MODEL 1
REMARK VINA RESULT:      -7.2      0.000      0.000
REMARK  Name = 
REMARK  4 active torsions:
REMARK  status: ('A' for Active; 'I' for Inactive)
REMARK    1  A    between atoms: C_1  and  N_2
REMARK    2  A    between atoms: C_5  and  C_6
REMARK    3  A    between atoms: C_9  and  C_10
REMARK    4  A    between atoms: C_10  and  C_11
REMARK                            x       y       z     vdW  Elec       q    Type
REMARK                         _______ _______ _______ _____ _____    ______ ____
ROOT
ATOM      1  C   UNL     1       8.210   8.467  17.484  0.00  0.00    +0.000 C 
ATOM      2  N   UNL     1       7.691   7.250  18.056  0.00  0.00    +0.000 N 
ATOM      3  C   UNL     1       7.094   6.275  17.282  0.00  0.00    +0.000 A 
ATOM      4  N   UNL     1       7.323   6.107  16.010  0.00  0.00    +0.000 NA
ATOM      5  C   UNL     1       6.669   5.078  15.354  0.00  0.00    +0.000 A 
ATOM      6  C   UNL     1       7.025   4.912  13.903  0.00  0.00    +0.000 C 
ATOM      7  N   UNL     1       5.804   4.261  15.884  0.00  0.00    +0.000 NA
ATOM      8  C   UNL     1       5.540   4.433  17.202  0.00  0.00    +0.000 A 
ATOM      9  C   UNL     1       4.713   3.801  18.108  0.00  0.00    +0.000 A 
ATOM     10  C   UNL     1       4.935   4.498  19.326  0.00  0.00    +0.000 A 
ATOM     11  N   UNL     1       5.818   5.498  19.207  0.00  0.00    +0.000 NA
ATOM     12  N   UNL     1       6.180   5.412  17.906  0.00  0.00    +0.000 N 
ATOM     13  H   UNL     1       7.280   7.340  18.986  0.00  0.00    +0.000 HD
ENDROOT
BRANCH   9  14
ATOM     14  C   UNL     1       3.788   2.663  17.853  0.00  0.00    +0.000 C 
BRANCH  14  15
ATOM     15  C   UNL     1       2.553   2.715  18.682  0.00  0.00    +0.000 A 
ATOM     16  C   UNL     1       1.288   3.227  18.476  0.00  0.00    +0.000 A 
ATOM     17  C   UNL     1       0.574   3.029  19.683  0.00  0.00    +0.000 A 
ATOM     18  C   UNL     1       1.444   2.404  20.544  0.00  0.00    +0.000 A 
ATOM     19  O   UNL     1       2.647   2.206  19.945  0.00  0.00    +0.000 OA
ENDBRANCH  14  15
ENDBRANCH   9  14
TORSDOF 2
ENDMDL
MODEL 2
REMARK VINA RESULT:      -7.2      2.995      5.841
REMARK  Name = 
REMARK  4 active torsions:
REMARK  status: ('A' for Active; 'I' for Inactive)
REMARK    1  A    between atoms: C_1  and  N_2
REMARK    2  A    between atoms: C_5  and  C_6
REMARK    3  A    between atoms: C_9  and  C_10
REMARK    4  A    between atoms: C_10  and  C_11
REMARK                            x       y       z     vdW  Elec       q    Type
REMARK                         _______ _______ _______ _____ _____    ______ ____
ROOT
ATOM      1  C   UNL     1       1.430   4.071  20.940  0.00  0.00    +0.000 C 
ATOM      2  N   UNL     1       2.808   4.304  20.586  0.00  0.00    +0.000 N 
ATOM      3  C   UNL     1       3.167   5.206  19.603  0.00  0.00    +0.000 A 
ATOM      4  N   UNL     1       2.434   6.218  19.233  0.00  0.00    +0.000 NA
ATOM      5  C   UNL     1       2.920   7.056  18.244  0.00  0.00    +0.000 A 
ATOM      6  C   UNL     1       2.045   8.231  17.910  0.00  0.00    +0.000 C 
ATOM      7  N   UNL     1       4.048   6.915  17.609  0.00  0.00    +0.000 NA
ATOM      8  C   UNL     1       4.816   5.857  17.968  0.00  0.00    +0.000 A 
ATOM      9  C   UNL     1       6.037   5.369  17.552  0.00  0.00    +0.000 A 
ATOM     10  C   UNL     1       6.247   4.220  18.361  0.00  0.00    +0.000 A 
ATOM     11  N   UNL     1       5.241   3.986  19.214  0.00  0.00    +0.000 NA
ATOM     12  N   UNL     1       4.399   5.015  18.959  0.00  0.00    +0.000 N 
ATOM     13  H   UNL     1       3.420   3.490  20.635  0.00  0.00    +0.000 HD
ENDROOT
BRANCH   9  14
ATOM     14  C   UNL     1       6.917   5.916  16.483  0.00  0.00    +0.000 C 
BRANCH  14  15
ATOM     15  C   UNL     1       6.768   5.209  15.182  0.00  0.00    +0.000 A 
ATOM     16  C   UNL     1       5.899   4.243  14.716  0.00  0.00    +0.000 A 
ATOM     17  C   UNL     1       6.322   3.923  13.403  0.00  0.00    +0.000 A 
ATOM     18  C   UNL     1       7.414   4.717  13.149  0.00  0.00    +0.000 A 
ATOM     19  O   UNL     1       7.692   5.504  14.220  0.00  0.00    +0.000 OA
ENDBRANCH  14  15
ENDBRANCH   9  14
TORSDOF 2
ENDMDL
MODEL 3
REMARK VINA RESULT:      -7.0      1.998      2.756
REMARK  Name = 
REMARK  4 active torsions:
REMARK  status: ('A' for Active; 'I' for Inactive)
REMARK    1  A    between atoms: C_1  and  N_2
REMARK    2  A    between atoms: C_5  and  C_6
REMARK    3  A    between atoms: C_9  and  C_10
REMARK    4  A    between atoms: C_10  and  C_11
REMARK                            x       y       z     vdW  Elec       q    Type
REMARK                         _______ _______ _______ _____ _____    ______ ____
ROOT
ATOM      1  C   UNL     1       7.485   8.111  17.331  0.00  0.00    +0.000 C 
ATOM      2  N   UNL     1       6.785   6.935  16.876  0.00  0.00    +0.000 N 
ATOM      3  C   UNL     1       5.466   6.696  17.209  0.00  0.00    +0.000 A 
ATOM      4  N   UNL     1       4.612   7.625  17.536  0.00  0.00    +0.000 NA
ATOM      5  C   UNL     1       3.313   7.249  17.833  0.00  0.00    +0.000 A 
ATOM      6  C   UNL     1       2.374   8.380  18.146  0.00  0.00    +0.000 C 
ATOM      7  N   UNL     1       2.854   6.031  17.849  0.00  0.00    +0.000 NA
ATOM      8  C   UNL     1       3.733   5.050  17.530  0.00  0.00    +0.000 A 
ATOM      9  C   UNL     1       3.649   3.676  17.436  0.00  0.00    +0.000 A 
ATOM     10  C   UNL     1       4.956   3.274  17.049  0.00  0.00    +0.000 A 
ATOM     11  N   UNL     1       5.806   4.300  16.919  0.00  0.00    +0.000 NA
ATOM     12  N   UNL     1       5.019   5.365  17.199  0.00  0.00    +0.000 N 
ATOM     13  H   UNL     1       7.347   6.087  16.805  0.00  0.00    +0.000 HD
ENDROOT
BRANCH   9  14
ATOM     14  C   UNL     1       2.462   2.818  17.701  0.00  0.00    +0.000 C 
BRANCH  14  15
ATOM     15  C   UNL     1       2.070   2.788  19.137  0.00  0.00    +0.000 A 
ATOM     16  C   UNL     1       0.886   3.017  19.808  0.00  0.00    +0.000 A 
ATOM     17  C   UNL     1       1.178   2.906  21.188  0.00  0.00    +0.000 A 
ATOM     18  C   UNL     1       2.518   2.610  21.273  0.00  0.00    +0.000 A 
ATOM     19  O   UNL     1       3.068   2.533  20.034  0.00  0.00    +0.000 OA
ENDBRANCH  14  15
ENDBRANCH   9  14
TORSDOF 2
ENDMDL
MODEL 4
REMARK VINA RESULT:      -6.9      2.962      5.886
REMARK  Name = 
REMARK  4 active torsions:
REMARK  status: ('A' for Active; 'I' for Inactive)
REMARK    1  A    between atoms: C_1  and  N_2
REMARK    2  A    between atoms: C_5  and  C_6
REMARK    3  A    between atoms: C_9  and  C_10
REMARK    4  A    between atoms: C_10  and  C_11
REMARK                            x       y       z     vdW  Elec       q    Type
REMARK                         _______ _______ _______ _____ _____    ______ ____
ROOT
ATOM      1  C   UNL     1       1.721   7.819  20.395  0.00  0.00    +0.000 C 
ATOM      2  N   UNL     1       2.346   7.413  19.161  0.00  0.00    +0.000 N 
ATOM      3  C   UNL     1       3.027   6.217  19.046  0.00  0.00    +0.000 A 
ATOM      4  N   UNL     1       2.815   5.177  19.803  0.00  0.00    +0.000 NA
ATOM      5  C   UNL     1       3.559   4.032  19.571  0.00  0.00    +0.000 A 
ATOM      6  C   UNL     1       3.219   2.858  20.445  0.00  0.00    +0.000 C 
ATOM      7  N   UNL     1       4.492   3.895  18.673  0.00  0.00    +0.000 NA
ATOM      8  C   UNL     1       4.739   4.973  17.889  0.00  0.00    +0.000 A 
ATOM      9  C   UNL     1       5.618   5.232  16.858  0.00  0.00    +0.000 A 
ATOM     10  C   UNL     1       5.335   6.574  16.488  0.00  0.00    +0.000 A 
ATOM     11  N   UNL     1       4.366   7.131  17.226  0.00  0.00    +0.000 NA
ATOM     12  N   UNL     1       4.015   6.119  18.054  0.00  0.00    +0.000 N 
ATOM     13  H   UNL     1       2.746   8.165  18.600  0.00  0.00    +0.000 HD
ENDROOT
BRANCH   9  14
ATOM     14  C   UNL     1       6.641   4.314  16.285  0.00  0.00    +0.000 C 
BRANCH  14  15
ATOM     15  C   UNL     1       6.757   4.418  14.805  0.00  0.00    +0.000 A 
ATOM     16  C   UNL     1       6.131   3.782  13.752  0.00  0.00    +0.000 A 
ATOM     17  C   UNL     1       6.738   4.270  12.570  0.00  0.00    +0.000 A 
ATOM     18  C   UNL     1       7.688   5.177  12.974  0.00  0.00    +0.000 A 
ATOM     19  O   UNL     1       7.706   5.277  14.329  0.00  0.00    +0.000 OA
ENDBRANCH  14  15
ENDBRANCH   9  14
TORSDOF 2
ENDMDL
MODEL 5
REMARK VINA RESULT:      -6.9      1.066      2.697
REMARK  Name = 
REMARK  4 active torsions:
REMARK  status: ('A' for Active; 'I' for Inactive)
REMARK    1  A    between atoms: C_1  and  N_2
REMARK    2  A    between atoms: C_5  and  C_6
REMARK    3  A    between atoms: C_9  and  C_10
REMARK    4  A    between atoms: C_10  and  C_11
REMARK                            x       y       z     vdW  Elec       q    Type
REMARK                         _______ _______ _______ _____ _____    ______ ____
ROOT
ATOM      1  C   UNL     1       7.750   5.370  13.467  0.00  0.00    +0.000 C 
ATOM      2  N   UNL     1       6.636   5.086  14.336  0.00  0.00    +0.000 N 
ATOM      3  C   UNL     1       6.650   5.419  15.676  0.00  0.00    +0.000 A 
ATOM      4  N   UNL     1       7.384   6.367  16.188  0.00  0.00    +0.000 NA
ATOM      5  C   UNL     1       7.291   6.609  17.548  0.00  0.00    +0.000 A 
ATOM      6  C   UNL     1       8.125   7.752  18.055  0.00  0.00    +0.000 C 
ATOM      7  N   UNL     1       6.551   5.950  18.393  0.00  0.00    +0.000 NA
ATOM      8  C   UNL     1       5.795   4.949  17.881  0.00  0.00    +0.000 A 
ATOM      9  C   UNL     1       4.907   4.041  18.421  0.00  0.00    +0.000 A 
ATOM     10  C   UNL     1       4.473   3.275  17.306  0.00  0.00    +0.000 A 
ATOM     11  N   UNL     1       5.042   3.651  16.154  0.00  0.00    +0.000 NA
ATOM     12  N   UNL     1       5.824   4.686  16.542  0.00  0.00    +0.000 N 
ATOM     13  H   UNL     1       6.129   4.223  14.137  0.00  0.00    +0.000 HD
ENDROOT
BRANCH   9  14
ATOM     14  C   UNL     1       4.517   3.893  19.850  0.00  0.00    +0.000 C 
BRANCH  14  15
ATOM     15  C   UNL     1       3.046   3.767  20.045  0.00  0.00    +0.000 A 
ATOM     16  C   UNL     1       1.970   4.573  19.733  0.00  0.00    +0.000 A 
ATOM     17  C   UNL     1       0.822   3.927  20.250  0.00  0.00    +0.000 A 
ATOM     18  C   UNL     1       1.267   2.766  20.836  0.00  0.00    +0.000 A 
ATOM     19  O   UNL     1       2.615   2.658  20.715  0.00  0.00    +0.000 OA
ENDBRANCH  14  15
ENDBRANCH   9  14
TORSDOF 2
ENDMDL
MODEL 6
REMARK VINA RESULT:      -6.7      3.030      6.301
REMARK  Name = 
REMARK  4 active torsions:
REMARK  status: ('A' for Active; 'I' for Inactive)
REMARK    1  A    between atoms: C_1  and  N_2
REMARK    2  A    between atoms: C_5  and  C_6
REMARK    3  A    between atoms: C_9  and  C_10
REMARK    4  A    between atoms: C_10  and  C_11
REMARK                            x       y       z     vdW  Elec       q    Type
REMARK                         _______ _______ _______ _____ _____    ______ ____
ROOT
ATOM      1  C   UNL     1       0.548   2.600  19.536  0.00  0.00    +0.000 C 
ATOM      2  N   UNL     1       1.900   2.808  19.083  0.00  0.00    +0.000 N 
ATOM      3  C   UNL     1       2.414   4.073  18.873  0.00  0.00    +0.000 A 
ATOM      4  N   UNL     1       1.966   5.152  19.451  0.00  0.00    +0.000 NA
ATOM      5  C   UNL     1       2.583   6.357  19.163  0.00  0.00    +0.000 A 
ATOM      6  C   UNL     1       2.048   7.547  19.910  0.00  0.00    +0.000 C 
ATOM      7  N   UNL     1       3.568   6.532  18.330  0.00  0.00    +0.000 NA
ATOM      8  C   UNL     1       4.034   5.424  17.704  0.00  0.00    +0.000 A 
ATOM      9  C   UNL     1       5.030   5.188  16.778  0.00  0.00    +0.000 A 
ATOM     10  C   UNL     1       4.975   3.786  16.559  0.00  0.00    +0.000 A 
ATOM     11  N   UNL     1       4.020   3.177  17.274  0.00  0.00    +0.000 NA
ATOM     12  N   UNL     1       3.484   4.204  17.973  0.00  0.00    +0.000 N 
ATOM     13  H   UNL     1       2.261   2.110  18.433  0.00  0.00    +0.000 HD
ENDROOT
BRANCH   9  14
ATOM     14  C   UNL     1       5.934   6.186  16.144  0.00  0.00    +0.000 C 
BRANCH  14  15
ATOM     15  C   UNL     1       6.916   6.775  17.096  0.00  0.00    +0.000 A 
ATOM     16  C   UNL     1       7.600   6.280  18.188  0.00  0.00    +0.000 A 
ATOM     17  C   UNL     1       8.334   7.364  18.726  0.00  0.00    +0.000 A 
ATOM     18  C   UNL     1       8.058   8.448  17.927  0.00  0.00    +0.000 A 
ATOM     19  O   UNL     1       7.201   8.100  16.932  0.00  0.00    +0.000 OA
ENDBRANCH  14  15
ENDBRANCH   9  14
TORSDOF 2
ENDMDL
MODEL 7
REMARK VINA RESULT:      -6.6      5.615      6.882
REMARK  Name = 
REMARK  4 active torsions:
REMARK  status: ('A' for Active; 'I' for Inactive)
REMARK    1  A    between atoms: C_1  and  N_2
REMARK    2  A    between atoms: C_5  and  C_6
REMARK    3  A    between atoms: C_9  and  C_10
REMARK    4  A    between atoms: C_10  and  C_11
REMARK                            x       y       z     vdW  Elec       q    Type
REMARK                         _______ _______ _______ _____ _____    ______ ____
ROOT
ATOM      1  C   UNL     1      -0.022  12.888  18.659  0.00  0.00    +0.000 C 
ATOM      2  N   UNL     1       0.300  11.536  18.276  0.00  0.00    +0.000 N 
ATOM      3  C   UNL     1       0.510  10.542  19.212  0.00  0.00    +0.000 A 
ATOM      4  N   UNL     1       0.024  10.559  20.421  0.00  0.00    +0.000 NA
ATOM      5  C   UNL     1       0.299   9.489  21.255  0.00  0.00    +0.000 A 
ATOM      6  C   UNL     1      -0.340   9.553  22.614  0.00  0.00    +0.000 C 
ATOM      7  N   UNL     1       1.035   8.456  20.958  0.00  0.00    +0.000 NA
ATOM      8  C   UNL     1       1.563   8.431  19.710  0.00  0.00    +0.000 A 
ATOM      9  C   UNL     1       2.373   7.548  19.026  0.00  0.00    +0.000 A 
ATOM     10  C   UNL     1       2.538   8.146  17.748  0.00  0.00    +0.000 A 
ATOM     11  N   UNL     1       1.899   9.316  17.628  0.00  0.00    +0.000 NA
ATOM     12  N   UNL     1       1.301   9.445  18.835  0.00  0.00    +0.000 N 
ATOM     13  H   UNL     1       0.880  11.439  17.443  0.00  0.00    +0.000 HD
ENDROOT
BRANCH   9  14
ATOM     14  C   UNL     1       2.953   6.272  19.529  0.00  0.00    +0.000 C 
BRANCH  14  15
ATOM     15  C   UNL     1       2.896   5.169  18.530  0.00  0.00    +0.000 A 
ATOM     16  C   UNL     1       1.891   4.332  18.091  0.00  0.00    +0.000 A 
ATOM     17  C   UNL     1       2.489   3.435  17.173  0.00  0.00    +0.000 A 
ATOM     18  C   UNL     1       3.816   3.785  17.105  0.00  0.00    +0.000 A 
ATOM     19  O   UNL     1       4.073   4.839  17.922  0.00  0.00    +0.000 OA
ENDBRANCH  14  15
ENDBRANCH   9  14
TORSDOF 2
ENDMDL
MODEL 8
REMARK VINA RESULT:      -6.6      3.217      6.491
REMARK  Name = 
REMARK  4 active torsions:
REMARK  status: ('A' for Active; 'I' for Inactive)
REMARK    1  A    between atoms: C_1  and  N_2
REMARK    2  A    between atoms: C_5  and  C_6
REMARK    3  A    between atoms: C_9  and  C_10
REMARK    4  A    between atoms: C_10  and  C_11
REMARK                            x       y       z     vdW  Elec       q    Type
REMARK                         _______ _______ _______ _____ _____    ______ ____
ROOT
ATOM      1  C   UNL     1       1.248   2.611  21.875  0.00  0.00    +0.000 C 
ATOM      2  N   UNL     1       2.476   2.968  21.210  0.00  0.00    +0.000 N 
ATOM      3  C   UNL     1       2.642   4.191  20.590  0.00  0.00    +0.000 A 
ATOM      4  N   UNL     1       1.973   5.266  20.898  0.00  0.00    +0.000 NA
ATOM      5  C   UNL     1       2.249   6.434  20.206  0.00  0.00    +0.000 A 
ATOM      6  C   UNL     1       1.477   7.643  20.654  0.00  0.00    +0.000 C 
ATOM      7  N   UNL     1       3.108   6.563  19.236  0.00  0.00    +0.000 NA
ATOM      8  C   UNL     1       3.800   5.450  18.890  0.00  0.00    +0.000 A 
ATOM      9  C   UNL     1       4.767   5.174  17.946  0.00  0.00    +0.000 A 
ATOM     10  C   UNL     1       5.055   3.796  18.136  0.00  0.00    +0.000 A 
ATOM     11  N   UNL     1       4.327   3.235  19.110  0.00  0.00    +0.000 NA
ATOM     12  N   UNL     1       3.591   4.279  19.559  0.00  0.00    +0.000 N 
ATOM     13  H   UNL     1       2.963   2.205  20.741  0.00  0.00    +0.000 HD
ENDROOT
BRANCH   9  14
ATOM     14  C   UNL     1       5.354   6.108  16.946  0.00  0.00    +0.000 C 
BRANCH  14  15
ATOM     15  C   UNL     1       6.549   6.835  17.455  0.00  0.00    +0.000 A 
ATOM     16  C   UNL     1       7.533   6.528  18.373  0.00  0.00    +0.000 A 
ATOM     17  C   UNL     1       8.358   7.673  18.476  0.00  0.00    +0.000 A 
ATOM     18  C   UNL     1       7.831   8.602  17.611  0.00  0.00    +0.000 A 
ATOM     19  O   UNL     1       6.735   8.103  16.984  0.00  0.00    +0.000 OA
ENDBRANCH  14  15
ENDBRANCH   9  14
TORSDOF 2
ENDMDL
MODEL 9
REMARK VINA RESULT:      -6.5      3.672      5.492
REMARK  Name = 
REMARK  4 active torsions:
REMARK  status: ('A' for Active; 'I' for Inactive)
REMARK    1  A    between atoms: C_1  and  N_2
REMARK    2  A    between atoms: C_5  and  C_6
REMARK    3  A    between atoms: C_9  and  C_10
REMARK    4  A    between atoms: C_10  and  C_11
REMARK                            x       y       z     vdW  Elec       q    Type
REMARK                         _______ _______ _______ _____ _____    ______ ____
ROOT
ATOM      1  C   UNL     1       5.158   0.517  20.451  0.00  0.00    +0.000 C 
ATOM      2  N   UNL     1       5.201   1.951  20.312  0.00  0.00    +0.000 N 
ATOM      3  C   UNL     1       4.219   2.648  19.635  0.00  0.00    +0.000 A 
ATOM      4  N   UNL     1       3.000   2.220  19.464  0.00  0.00    +0.000 NA
ATOM      5  C   UNL     1       2.109   3.027  18.778  0.00  0.00    +0.000 A 
ATOM      6  C   UNL     1       0.709   2.490  18.670  0.00  0.00    +0.000 C 
ATOM      7  N   UNL     1       2.379   4.185  18.247  0.00  0.00    +0.000 NA
ATOM      8  C   UNL     1       3.647   4.638  18.399  0.00  0.00    +0.000 A 
ATOM      9  C   UNL     1       4.316   5.776  17.999  0.00  0.00    +0.000 A 
ATOM     10  C   UNL     1       5.633   5.601  18.503  0.00  0.00    +0.000 A 
ATOM     11  N   UNL     1       5.796   4.445  19.160  0.00  0.00    +0.000 NA
ATOM     12  N   UNL     1       4.560   3.897  19.093  0.00  0.00    +0.000 N 
ATOM     13  H   UNL     1       6.131   2.357  20.212  0.00  0.00    +0.000 HD
ENDROOT
BRANCH   9  14
ATOM     14  C   UNL     1       3.778   6.913  17.202  0.00  0.00    +0.000 C 
BRANCH  14  15
ATOM     15  C   UNL     1       2.847   7.780  17.974  0.00  0.00    +0.000 A 
ATOM     16  C   UNL     1       2.268   7.683  19.223  0.00  0.00    +0.000 A 
ATOM     17  C   UNL     1       1.409   8.800  19.356  0.00  0.00    +0.000 A 
ATOM     18  C   UNL     1       1.523   9.511  18.185  0.00  0.00    +0.000 A 
ATOM     19  O   UNL     1       2.396   8.903  17.341  0.00  0.00    +0.000 OA
ENDBRANCH  14  15
ENDBRANCH   9  14
TORSDOF 2
ENDMDL
