MODEL 1
REMARK VINA RESULT:      -6.8      0.000      0.000
REMARK  Name = 
REMARK  6 active torsions:
REMARK  status: ('A' for Active; 'I' for Inactive)
REMARK    1  A    between atoms: C_1  and  C_2
REMARK    2  A    between atoms: C_2  and  C_3
REMARK    3  A    between atoms: C_4  and  C_5
REMARK    4  A    between atoms: N_10  and  N_11
REMARK    5  A    between atoms: N_11  and  C_12
REMARK    6  A    between atoms: N_15  and  C_16
REMARK                            x       y       z     vdW  Elec       q    Type
REMARK                         _______ _______ _______ _____ _____    ______ ____
ROOT
ATOM      1  C   UNL     1      -4.362  11.814  18.742  0.00  0.00    +0.000 A 
ATOM      2  C   UNL     1      -5.690  11.637  19.123  0.00  0.00    +0.000 A 
ATOM      3  C   UNL     1      -6.856  11.034  18.419  0.00  0.00    +0.000 C 
ATOM      4  N   UNL     1      -5.827  12.106  20.400  0.00  0.00    +0.000 N 
ATOM      5  C   UNL     1      -4.622  12.559  20.854  0.00  0.00    +0.000 A 
ATOM      6  C   UNL     1      -3.687  12.457  19.842  0.00  0.00    +0.000 A 
ATOM      7  C   UNL     1      -2.309  12.919  20.059  0.00  0.00    +0.000 C 
ATOM      8  N   UNL     1      -1.472  12.778  19.065  0.00  0.00    +0.000 NA
ATOM      9  C   UNL     1      -1.985  13.503  21.430  0.00  0.00    +0.000 C 
ATOM     10  C   UNL     1      -3.029  13.476  22.553  0.00  0.00    +0.000 C 
ATOM     11  C   UNL     1      -4.454  13.046  22.237  0.00  0.00    +0.000 C 
ATOM     12  H   UNL     1      -6.682  12.077  20.941  0.00  0.00    +0.000 HD
ENDROOT
BRANCH   8  13
ATOM     13  N   UNL     1      -0.130  13.162  19.091  0.00  0.00    +0.000 N 
ATOM     14  C   UNL     1       0.406  14.495  18.931  0.00  0.00    +0.000 C 
ATOM     15  C   UNL     1       0.858  12.146  19.093  0.00  0.00    +0.000 C 
ATOM     16  O   UNL     1       2.060  12.406  19.129  0.00  0.00    +0.000 OA
ATOM     17  N   UNL     1       0.321  10.880  19.018  0.00  0.00    +0.000 N 
ATOM     18  H   UNL     1      -0.662  10.899  18.783  0.00  0.00    +0.000 HD
BRANCH  17  19
ATOM     19  C   UNL     1       1.024   9.664  19.049  0.00  0.00    +0.000 A 
ATOM     20  C   UNL     1       1.670   9.133  17.929  0.00  0.00    +0.000 A 
ATOM     21  C   UNL     1       2.358   7.923  18.007  0.00  0.00    +0.000 A 
ATOM     22  C   UNL     1       2.418   7.229  19.212  0.00  0.00    +0.000 A 
ATOM     23  C   UNL     1       1.781   7.751  20.340  0.00  0.00    +0.000 A 
ATOM     24  C   UNL     1       1.094   8.967  20.262  0.00  0.00    +0.000 A 
ENDBRANCH  17  19
ENDBRANCH   8  13
BRANCH   1  26
ATOM     25  C   UNL     1      -3.213   9.941  17.559  0.00  0.00    +0.000 C 
ATOM     26  C   UNL     1      -3.784  11.350  17.442  0.00  0.00    +0.000 C 
ENDBRANCH   1  26
TORSDOF 3
ENDMDL
MODEL 2
REMARK VINA RESULT:      -6.6      7.122     10.194
REMARK  Name = 
REMARK  6 active torsions:
REMARK  status: ('A' for Active; 'I' for Inactive)
REMARK    1  A    between atoms: C_1  and  C_2
REMARK    2  A    between atoms: C_2  and  C_3
REMARK    3  A    between atoms: C_4  and  C_5
REMARK    4  A    between atoms: N_10  and  N_11
REMARK    5  A    between atoms: N_11  and  C_12
REMARK    6  A    between atoms: N_15  and  C_16
REMARK                            x       y       z     vdW  Elec       q    Type
REMARK                         _______ _______ _______ _____ _____    ______ ____
ROOT
ATOM      1  C   UNL     1       3.211   3.709  18.995  0.00  0.00    +0.000 A 
ATOM      2  C   UNL     1       1.927   3.621  19.527  0.00  0.00    +0.000 A 
ATOM      3  C   UNL     1       1.212   2.517  20.227  0.00  0.00    +0.000 C 
ATOM      4  N   UNL     1       1.316   4.831  19.349  0.00  0.00    +0.000 N 
ATOM      5  C   UNL     1       2.177   5.695  18.737  0.00  0.00    +0.000 A 
ATOM      6  C   UNL     1       3.351   5.032  18.440  0.00  0.00    +0.000 A 
ATOM      7  C   UNL     1       4.437   5.729  17.737  0.00  0.00    +0.000 C 
ATOM      8  N   UNL     1       5.526   5.047  17.501  0.00  0.00    +0.000 NA
ATOM      9  C   UNL     1       4.192   7.188  17.366  0.00  0.00    +0.000 C 
ATOM     10  C   UNL     1       2.921   7.906  17.832  0.00  0.00    +0.000 C 
ATOM     11  C   UNL     1       1.811   7.104  18.496  0.00  0.00    +0.000 C 
ATOM     12  H   UNL     1       0.382   5.062  19.667  0.00  0.00    +0.000 HD
ENDROOT
BRANCH   8  13
ATOM     13  N   UNL     1       6.653   5.545  16.844  0.00  0.00    +0.000 N 
ATOM     14  C   UNL     1       7.582   6.541  17.326  0.00  0.00    +0.000 C 
ATOM     15  C   UNL     1       6.845   5.197  15.483  0.00  0.00    +0.000 C 
ATOM     16  O   UNL     1       7.820   5.585  14.842  0.00  0.00    +0.000 OA
ATOM     17  N   UNL     1       5.820   4.425  14.981  0.00  0.00    +0.000 N 
ATOM     18  H   UNL     1       5.024   4.401  15.604  0.00  0.00    +0.000 HD
BRANCH  17  19
ATOM     19  C   UNL     1       5.734   3.877  13.691  0.00  0.00    +0.000 A 
ATOM     20  C   UNL     1       6.847   3.401  12.993  0.00  0.00    +0.000 A 
ATOM     21  C   UNL     1       6.714   2.862  11.714  0.00  0.00    +0.000 A 
ATOM     22  C   UNL     1       5.459   2.784  11.115  0.00  0.00    +0.000 A 
ATOM     23  C   UNL     1       4.338   3.252  11.804  0.00  0.00    +0.000 A 
ATOM     24  C   UNL     1       4.472   3.788  13.089  0.00  0.00    +0.000 A 
ENDBRANCH  17  19
ENDBRANCH   8  13
BRANCH   1  26
ATOM     25  C   UNL     1       3.805   1.399  18.259  0.00  0.00    +0.000 C 
ATOM     26  C   UNL     1       4.235   2.619  19.067  0.00  0.00    +0.000 C 
ENDBRANCH   1  26
TORSDOF 3
ENDMDL
MODEL 3
REMARK VINA RESULT:      -6.5      5.875     10.889
REMARK  Name = 
REMARK  6 active torsions:
REMARK  status: ('A' for Active; 'I' for Inactive)
REMARK    1  A    between atoms: C_1  and  C_2
REMARK    2  A    between atoms: C_2  and  C_3
REMARK    3  A    between atoms: C_4  and  C_5
REMARK    4  A    between atoms: N_10  and  N_11
REMARK    5  A    between atoms: N_11  and  C_12
REMARK    6  A    between atoms: N_15  and  C_16
REMARK                            x       y       z     vdW  Elec       q    Type
REMARK                         _______ _______ _______ _____ _____    ______ ____
ROOT
ATOM      1  C   UNL     1       5.975   4.610  14.788  0.00  0.00    +0.000 A 
ATOM      2  C   UNL     1       7.212   5.067  14.337  0.00  0.00    +0.000 A 
ATOM      3  C   UNL     1       7.783   5.204  12.968  0.00  0.00    +0.000 C 
ATOM      4  N   UNL     1       7.934   5.466  15.426  0.00  0.00    +0.000 N 
ATOM      5  C   UNL     1       7.191   5.297  16.557  0.00  0.00    +0.000 A 
ATOM      6  C   UNL     1       5.985   4.711  16.226  0.00  0.00    +0.000 A 
ATOM      7  C   UNL     1       5.009   4.382  17.274  0.00  0.00    +0.000 C 
ATOM      8  N   UNL     1       3.882   3.844  16.889  0.00  0.00    +0.000 NA
ATOM      9  C   UNL     1       5.401   4.715  18.710  0.00  0.00    +0.000 C 
ATOM     10  C   UNL     1       6.698   5.477  19.005  0.00  0.00    +0.000 C 
ATOM     11  C   UNL     1       7.691   5.726  17.878  0.00  0.00    +0.000 C 
ATOM     12  H   UNL     1       8.862   5.870  15.391  0.00  0.00    +0.000 HD
ENDROOT
BRANCH   8  13
ATOM     13  N   UNL     1       2.846   3.464  17.744  0.00  0.00    +0.000 N 
ATOM     14  C   UNL     1       2.256   2.152  17.882  0.00  0.00    +0.000 C 
ATOM     15  C   UNL     1       2.145   4.481  18.441  0.00  0.00    +0.000 C 
ATOM     16  O   UNL     1       1.229   4.224  19.220  0.00  0.00    +0.000 OA
ATOM     17  N   UNL     1       2.581   5.747  18.118  0.00  0.00    +0.000 N 
ATOM     18  H   UNL     1       3.186   5.743  17.308  0.00  0.00    +0.000 HD
BRANCH  17  19
ATOM     19  C   UNL     1       2.130   6.958  18.667  0.00  0.00    +0.000 A 
ATOM     20  C   UNL     1       1.926   7.141  20.037  0.00  0.00    +0.000 A 
ATOM     21  C   UNL     1       1.479   8.363  20.538  0.00  0.00    +0.000 A 
ATOM     22  C   UNL     1       1.237   9.426  19.673  0.00  0.00    +0.000 A 
ATOM     23  C   UNL     1       1.442   9.259  18.302  0.00  0.00    +0.000 A 
ATOM     24  C   UNL     1       1.895   8.034  17.801  0.00  0.00    +0.000 A 
ENDBRANCH  17  19
ENDBRANCH   8  13
BRANCH   1  26
ATOM     25  C   UNL     1       5.384   3.361  12.709  0.00  0.00    +0.000 C 
ATOM     26  C   UNL     1       4.859   4.164  13.896  0.00  0.00    +0.000 C 
ENDBRANCH   1  26
TORSDOF 3
ENDMDL
MODEL 4
REMARK VINA RESULT:      -6.4      1.026      1.082
REMARK  Name = 
REMARK  6 active torsions:
REMARK  status: ('A' for Active; 'I' for Inactive)
REMARK    1  A    between atoms: C_1  and  C_2
REMARK    2  A    between atoms: C_2  and  C_3
REMARK    3  A    between atoms: C_4  and  C_5
REMARK    4  A    between atoms: N_10  and  N_11
REMARK    5  A    between atoms: N_11  and  C_12
REMARK    6  A    between atoms: N_15  and  C_16
REMARK                            x       y       z     vdW  Elec       q    Type
REMARK                         _______ _______ _______ _____ _____    ______ ____
ROOT
ATOM      1  C   UNL     1      -4.421  12.026  19.123  0.00  0.00    +0.000 A 
ATOM      2  C   UNL     1      -5.809  11.905  19.088  0.00  0.00    +0.000 A 
ATOM      3  C   UNL     1      -6.744  11.476  18.011  0.00  0.00    +0.000 C 
ATOM      4  N   UNL     1      -6.289  12.231  20.326  0.00  0.00    +0.000 N 
ATOM      5  C   UNL     1      -5.251  12.538  21.155  0.00  0.00    +0.000 A 
ATOM      6  C   UNL     1      -4.068  12.485  20.443  0.00  0.00    +0.000 A 
ATOM      7  C   UNL     1      -2.795  12.815  21.098  0.00  0.00    +0.000 C 
ATOM      8  N   UNL     1      -1.713  12.729  20.370  0.00  0.00    +0.000 NA
ATOM      9  C   UNL     1      -2.858  13.210  22.569  0.00  0.00    +0.000 C 
ATOM     10  C   UNL     1      -4.181  13.131  23.339  0.00  0.00    +0.000 C 
ATOM     11  C   UNL     1      -5.470  12.847  22.582  0.00  0.00    +0.000 C 
ATOM     12  H   UNL     1      -7.265  12.203  20.596  0.00  0.00    +0.000 HD
ENDROOT
BRANCH   8  13
ATOM     13  N   UNL     1      -0.422  13.006  20.823  0.00  0.00    +0.000 N 
ATOM     14  C   UNL     1       0.069  14.250  21.371  0.00  0.00    +0.000 C 
ATOM     15  C   UNL     1       0.597  12.053  20.572  0.00  0.00    +0.000 C 
ATOM     16  O   UNL     1       1.754  12.221  20.951  0.00  0.00    +0.000 OA
ATOM     17  N   UNL     1       0.147  10.972  19.846  0.00  0.00    +0.000 N 
ATOM     18  H   UNL     1      -0.772  11.133  19.456  0.00  0.00    +0.000 HD
BRANCH  17  19
ATOM     19  C   UNL     1       0.890   9.838  19.477  0.00  0.00    +0.000 A 
ATOM     20  C   UNL     1       1.411   9.657  18.193  0.00  0.00    +0.000 A 
ATOM     21  C   UNL     1       2.145   8.516  17.872  0.00  0.00    +0.000 A 
ATOM     22  C   UNL     1       2.376   7.540  18.837  0.00  0.00    +0.000 A 
ATOM     23  C   UNL     1       1.865   7.710  20.125  0.00  0.00    +0.000 A 
ATOM     24  C   UNL     1       1.133   8.858  20.447  0.00  0.00    +0.000 A 
ENDBRANCH  17  19
ENDBRANCH   8  13
BRANCH   1  26
ATOM     25  C   UNL     1      -3.234  10.175  17.943  0.00  0.00    +0.000 C 
ATOM     26  C   UNL     1      -3.511  11.674  17.988  0.00  0.00    +0.000 C 
ENDBRANCH   1  26
TORSDOF 3
ENDMDL
MODEL 5
REMARK VINA RESULT:      -5.9      2.562      5.126
REMARK  Name = 
REMARK  6 active torsions:
REMARK  status: ('A' for Active; 'I' for Inactive)
REMARK    1  A    between atoms: C_1  and  C_2
REMARK    2  A    between atoms: C_2  and  C_3
REMARK    3  A    between atoms: C_4  and  C_5
REMARK    4  A    between atoms: N_10  and  N_11
REMARK    5  A    between atoms: N_11  and  C_12
REMARK    6  A    between atoms: N_15  and  C_16
REMARK                            x       y       z     vdW  Elec       q    Type
REMARK                         _______ _______ _______ _____ _____    ______ ____
ROOT
ATOM      1  C   UNL     1      -4.875  12.356  18.921  0.00  0.00    +0.000 A 
ATOM      2  C   UNL     1      -5.857  12.118  17.961  0.00  0.00    +0.000 A 
ATOM      3  C   UNL     1      -7.245  12.636  17.808  0.00  0.00    +0.000 C 
ATOM      4  N   UNL     1      -5.332  11.272  17.025  0.00  0.00    +0.000 N 
ATOM      5  C   UNL     1      -4.039  10.976  17.346  0.00  0.00    +0.000 A 
ATOM      6  C   UNL     1      -3.721  11.577  18.549  0.00  0.00    +0.000 A 
ATOM      7  C   UNL     1      -2.391  11.382  19.143  0.00  0.00    +0.000 C 
ATOM      8  N   UNL     1      -2.151  11.991  20.274  0.00  0.00    +0.000 NA
ATOM      9  C   UNL     1      -1.414  10.500  18.374  0.00  0.00    +0.000 C 
ATOM     10  C   UNL     1      -1.779   9.963  16.985  0.00  0.00    +0.000 C 
ATOM     11  C   UNL     1      -3.197  10.147  16.462  0.00  0.00    +0.000 C 
ATOM     12  H   UNL     1      -5.816  10.951  16.196  0.00  0.00    +0.000 HD
ENDROOT
BRANCH   8  13
ATOM     13  N   UNL     1      -0.949  11.918  20.981  0.00  0.00    +0.000 N 
ATOM     14  C   UNL     1      -0.604  10.989  22.033  0.00  0.00    +0.000 C 
ATOM     15  C   UNL     1      -0.004  12.960  20.807  0.00  0.00    +0.000 C 
ATOM     16  O   UNL     1       1.081  12.958  21.385  0.00  0.00    +0.000 OA
ATOM     17  N   UNL     1      -0.455  13.954  19.967  0.00  0.00    +0.000 N 
ATOM     18  H   UNL     1      -1.443  13.866  19.773  0.00  0.00    +0.000 HD
BRANCH  17  19
ATOM     19  C   UNL     1       0.256  15.092  19.552  0.00  0.00    +0.000 A 
ATOM     20  C   UNL     1       1.427  15.021  18.794  0.00  0.00    +0.000 A 
ATOM     21  C   UNL     1       2.099  16.178  18.402  0.00  0.00    +0.000 A 
ATOM     22  C   UNL     1       1.601  17.429  18.758  0.00  0.00    +0.000 A 
ATOM     23  C   UNL     1       0.429  17.515  19.512  0.00  0.00    +0.000 A 
ATOM     24  C   UNL     1      -0.246  16.353  19.900  0.00  0.00    +0.000 A 
ENDBRANCH  17  19
ENDBRANCH   8  13
BRANCH   1  26
ATOM     25  C   UNL     1      -5.614  12.601  21.292  0.00  0.00    +0.000 C 
ATOM     26  C   UNL     1      -5.025  13.302  20.072  0.00  0.00    +0.000 C 
ENDBRANCH   1  26
TORSDOF 3
ENDMDL
MODEL 6
REMARK VINA RESULT:      -5.9      1.113      1.560
REMARK  Name = 
REMARK  6 active torsions:
REMARK  status: ('A' for Active; 'I' for Inactive)
REMARK    1  A    between atoms: C_1  and  C_2
REMARK    2  A    between atoms: C_2  and  C_3
REMARK    3  A    between atoms: C_4  and  C_5
REMARK    4  A    between atoms: N_10  and  N_11
REMARK    5  A    between atoms: N_11  and  C_12
REMARK    6  A    between atoms: N_15  and  C_16
REMARK                            x       y       z     vdW  Elec       q    Type
REMARK                         _______ _______ _______ _____ _____    ______ ____
ROOT
ATOM      1  C   UNL     1      -4.455  12.256  19.703  0.00  0.00    +0.000 A 
ATOM      2  C   UNL     1      -5.826  12.070  19.866  0.00  0.00    +0.000 A 
ATOM      3  C   UNL     1      -6.898  11.680  18.909  0.00  0.00    +0.000 C 
ATOM      4  N   UNL     1      -6.123  12.274  21.185  0.00  0.00    +0.000 N 
ATOM      5  C   UNL     1      -4.981  12.566  21.873  0.00  0.00    +0.000 A 
ATOM      6  C   UNL     1      -3.921  12.628  20.989  0.00  0.00    +0.000 A 
ATOM      7  C   UNL     1      -2.575  12.968  21.471  0.00  0.00    +0.000 C 
ATOM      8  N   UNL     1      -1.615  12.993  20.585  0.00  0.00    +0.000 NA
ATOM      9  C   UNL     1      -2.426  13.244  22.964  0.00  0.00    +0.000 C 
ATOM     10  C   UNL     1      -3.612  13.039  23.914  0.00  0.00    +0.000 C 
ATOM     11  C   UNL     1      -4.990  12.751  23.337  0.00  0.00    +0.000 C 
ATOM     12  H   UNL     1      -7.043  12.177  21.595  0.00  0.00    +0.000 HD
ENDROOT
BRANCH   8  13
ATOM     13  N   UNL     1      -0.281  13.298  20.861  0.00  0.00    +0.000 N 
ATOM     14  C   UNL     1       0.267  14.580  21.241  0.00  0.00    +0.000 C 
ATOM     15  C   UNL     1       0.704  12.319  20.577  0.00  0.00    +0.000 C 
ATOM     16  O   UNL     1       1.897  12.509  20.804  0.00  0.00    +0.000 OA
ATOM     17  N   UNL     1       0.176  11.184  20.002  0.00  0.00    +0.000 N 
ATOM     18  H   UNL     1      -0.782  11.318  19.708  0.00  0.00    +0.000 HD
BRANCH  17  19
ATOM     19  C   UNL     1       0.874  10.017  19.648  0.00  0.00    +0.000 A 
ATOM     20  C   UNL     1       1.083   8.959  20.537  0.00  0.00    +0.000 A 
ATOM     21  C   UNL     1       1.780   7.818  20.142  0.00  0.00    +0.000 A 
ATOM     22  C   UNL     1       2.272   7.715  18.844  0.00  0.00    +0.000 A 
ATOM     23  C   UNL     1       2.067   8.763  17.944  0.00  0.00    +0.000 A 
ATOM     24  C   UNL     1       1.363   9.905  18.341  0.00  0.00    +0.000 A 
ENDBRANCH  17  19
ENDBRANCH   8  13
BRANCH   1  26
ATOM     25  C   UNL     1      -3.265  10.590  18.275  0.00  0.00    +0.000 C 
ATOM     26  C   UNL     1      -3.717  12.040  18.418  0.00  0.00    +0.000 C 
ENDBRANCH   1  26
TORSDOF 3
ENDMDL
MODEL 7
REMARK VINA RESULT:      -5.9      2.363      4.996
REMARK  Name = 
REMARK  6 active torsions:
REMARK  status: ('A' for Active; 'I' for Inactive)
REMARK    1  A    between atoms: C_1  and  C_2
REMARK    2  A    between atoms: C_2  and  C_3
REMARK    3  A    between atoms: C_4  and  C_5
REMARK    4  A    between atoms: N_10  and  N_11
REMARK    5  A    between atoms: N_11  and  C_12
REMARK    6  A    between atoms: N_15  and  C_16
REMARK                            x       y       z     vdW  Elec       q    Type
REMARK                         _______ _______ _______ _____ _____    ______ ____
ROOT
ATOM      1  C   UNL     1      -4.884  12.297  18.741  0.00  0.00    +0.000 A 
ATOM      2  C   UNL     1      -6.000  12.271  17.907  0.00  0.00    +0.000 A 
ATOM      3  C   UNL     1      -7.343  12.905  18.022  0.00  0.00    +0.000 C 
ATOM      4  N   UNL     1      -5.682  11.531  16.803  0.00  0.00    +0.000 N 
ATOM      5  C   UNL     1      -4.391  11.100  16.896  0.00  0.00    +0.000 A 
ATOM      6  C   UNL     1      -3.864  11.497  18.110  0.00  0.00    +0.000 A 
ATOM      7  C   UNL     1      -2.492  11.124  18.479  0.00  0.00    +0.000 C 
ATOM      8  N   UNL     1      -2.052  11.546  19.635  0.00  0.00    +0.000 NA
ATOM      9  C   UNL     1      -1.709  10.291  17.470  0.00  0.00    +0.000 C 
ATOM     10  C   UNL     1      -2.300   9.986  16.088  0.00  0.00    +0.000 C 
ATOM     11  C   UNL     1      -3.750  10.346  15.800  0.00  0.00    +0.000 C 
ATOM     12  H   UNL     1      -6.297  11.368  16.016  0.00  0.00    +0.000 HD
ENDROOT
BRANCH   8  13
ATOM     13  N   UNL     1      -0.781  11.285  20.149  0.00  0.00    +0.000 N 
ATOM     14  C   UNL     1      -0.387  10.191  21.007  0.00  0.00    +0.000 C 
ATOM     15  C   UNL     1       0.225  12.271  19.984  0.00  0.00    +0.000 C 
ATOM     16  O   UNL     1       1.371  12.108  20.398  0.00  0.00    +0.000 OA
ATOM     17  N   UNL     1      -0.240  13.406  19.357  0.00  0.00    +0.000 N 
ATOM     18  H   UNL     1      -1.249  13.418  19.295  0.00  0.00    +0.000 HD
BRANCH  17  19
ATOM     19  C   UNL     1       0.511  14.539  19.002  0.00  0.00    +0.000 A 
ATOM     20  C   UNL     1       0.023  15.842  19.128  0.00  0.00    +0.000 A 
ATOM     21  C   UNL     1       0.805  16.938  18.766  0.00  0.00    +0.000 A 
ATOM     22  C   UNL     1       2.095  16.745  18.278  0.00  0.00    +0.000 A 
ATOM     23  C   UNL     1       2.597  15.448  18.151  0.00  0.00    +0.000 A 
ATOM     24  C   UNL     1       1.813  14.350  18.520  0.00  0.00    +0.000 A 
ENDBRANCH  17  19
ENDBRANCH   8  13
BRANCH   1  26
ATOM     25  C   UNL     1      -5.568  12.393  21.139  0.00  0.00    +0.000 C 
ATOM     26  C   UNL     1      -4.796  13.077  20.016  0.00  0.00    +0.000 C 
ENDBRANCH   1  26
TORSDOF 3
ENDMDL
MODEL 8
REMARK VINA RESULT:      -5.9      2.317      6.391
REMARK  Name = 
REMARK  6 active torsions:
REMARK  status: ('A' for Active; 'I' for Inactive)
REMARK    1  A    between atoms: C_1  and  C_2
REMARK    2  A    between atoms: C_2  and  C_3
REMARK    3  A    between atoms: C_4  and  C_5
REMARK    4  A    between atoms: N_10  and  N_11
REMARK    5  A    between atoms: N_11  and  C_12
REMARK    6  A    between atoms: N_15  and  C_16
REMARK                            x       y       z     vdW  Elec       q    Type
REMARK                         _______ _______ _______ _____ _____    ______ ____
ROOT
ATOM      1  C   UNL     1       2.164   7.821  19.006  0.00  0.00    +0.000 A 
ATOM      2  C   UNL     1       2.219   6.565  19.606  0.00  0.00    +0.000 A 
ATOM      3  C   UNL     1       2.767   5.261  19.138  0.00  0.00    +0.000 C 
ATOM      4  N   UNL     1       1.675   6.672  20.856  0.00  0.00    +0.000 N 
ATOM      5  C   UNL     1       1.293   7.963  21.080  0.00  0.00    +0.000 A 
ATOM      6  C   UNL     1       1.519   8.709  19.941  0.00  0.00    +0.000 A 
ATOM      7  C   UNL     1       1.153  10.132  19.904  0.00  0.00    +0.000 C 
ATOM      8  N   UNL     1       1.409  10.782  18.799  0.00  0.00    +0.000 NA
ATOM      9  C   UNL     1       0.525  10.716  21.165  0.00  0.00    +0.000 C 
ATOM     10  C   UNL     1       0.414   9.872  22.440  0.00  0.00    +0.000 C 
ATOM     11  C   UNL     1       0.750   8.388  22.385  0.00  0.00    +0.000 C 
ATOM     12  H   UNL     1       1.611   5.918  21.528  0.00  0.00    +0.000 HD
ENDROOT
BRANCH   8  13
ATOM     13  N   UNL     1       1.128  12.133  18.585  0.00  0.00    +0.000 N 
ATOM     14  C   UNL     1       1.968  13.266  18.899  0.00  0.00    +0.000 C 
ATOM     15  C   UNL     1      -0.185  12.490  18.184  0.00  0.00    +0.000 C 
ATOM     16  O   UNL     1      -0.504  13.657  17.964  0.00  0.00    +0.000 OA
ATOM     17  N   UNL     1      -1.032  11.407  18.110  0.00  0.00    +0.000 N 
ATOM     18  H   UNL     1      -0.630  10.582  18.534  0.00  0.00    +0.000 HD
BRANCH  17  19
ATOM     19  C   UNL     1      -2.375  11.415  17.698  0.00  0.00    +0.000 A 
ATOM     20  C   UNL     1      -2.772  11.077  16.402  0.00  0.00    +0.000 A 
ATOM     21  C   UNL     1      -4.118  11.096  16.037  0.00  0.00    +0.000 A 
ATOM     22  C   UNL     1      -5.090  11.449  16.969  0.00  0.00    +0.000 A 
ATOM     23  C   UNL     1      -4.706  11.785  18.270  0.00  0.00    +0.000 A 
ATOM     24  C   UNL     1      -3.357  11.760  18.635  0.00  0.00    +0.000 A 
ENDBRANCH  17  19
ENDBRANCH   8  13
BRANCH   1  26
ATOM     25  C   UNL     1       4.045   7.396  17.421  0.00  0.00    +0.000 C 
ATOM     26  C   UNL     1       2.737   8.145  17.662  0.00  0.00    +0.000 C 
ENDBRANCH   1  26
TORSDOF 3
ENDMDL
MODEL 9
REMARK VINA RESULT:      -5.7      2.086      5.144
REMARK  Name = 
REMARK  6 active torsions:
REMARK  status: ('A' for Active; 'I' for Inactive)
REMARK    1  A    between atoms: C_1  and  C_2
REMARK    2  A    between atoms: C_2  and  C_3
REMARK    3  A    between atoms: C_4  and  C_5
REMARK    4  A    between atoms: N_10  and  N_11
REMARK    5  A    between atoms: N_11  and  C_12
REMARK    6  A    between atoms: N_15  and  C_16
REMARK                            x       y       z     vdW  Elec       q    Type
REMARK                         _______ _______ _______ _____ _____    ______ ____
ROOT
ATOM      1  C   UNL     1      -4.928  12.154  19.105  0.00  0.00    +0.000 A 
ATOM      2  C   UNL     1      -6.107  12.234  18.366  0.00  0.00    +0.000 A 
ATOM      3  C   UNL     1      -7.455  12.773  18.698  0.00  0.00    +0.000 C 
ATOM      4  N   UNL     1      -5.856  11.731  17.120  0.00  0.00    +0.000 N 
ATOM      5  C   UNL     1      -4.549  11.350  17.033  0.00  0.00    +0.000 A 
ATOM      6  C   UNL     1      -3.939  11.535  18.258  0.00  0.00    +0.000 A 
ATOM      7  C   UNL     1      -2.530  11.162  18.447  0.00  0.00    +0.000 C 
ATOM      8  N   UNL     1      -2.011  11.378  19.627  0.00  0.00    +0.000 NA
ATOM      9  C   UNL     1      -1.805  10.572  17.242  0.00  0.00    +0.000 C 
ATOM     10  C   UNL     1      -2.496  10.506  15.875  0.00  0.00    +0.000 C 
ATOM     11  C   UNL     1      -3.976  10.847  15.769  0.00  0.00    +0.000 C 
ATOM     12  H   UNL     1      -6.528  11.692  16.364  0.00  0.00    +0.000 HD
ENDROOT
BRANCH   8  13
ATOM     13  N   UNL     1      -0.694  11.084  19.986  0.00  0.00    +0.000 N 
ATOM     14  C   UNL     1      -0.159   9.804  20.390  0.00  0.00    +0.000 C 
ATOM     15  C   UNL     1       0.210  12.161  20.160  0.00  0.00    +0.000 C 
ATOM     16  O   UNL     1       1.388  11.981  20.463  0.00  0.00    +0.000 OA
ATOM     17  N   UNL     1      -0.386  13.391  19.988  0.00  0.00    +0.000 N 
ATOM     18  H   UNL     1      -1.394  13.321  19.957  0.00  0.00    +0.000 HD
BRANCH  17  19
ATOM     19  C   UNL     1       0.242  14.646  20.042  0.00  0.00    +0.000 A 
ATOM     20  C   UNL     1       0.303  15.413  21.209  0.00  0.00    +0.000 A 
ATOM     21  C   UNL     1       0.940  16.653  21.218  0.00  0.00    +0.000 A 
ATOM     22  C   UNL     1       1.533  17.143  20.057  0.00  0.00    +0.000 A 
ATOM     23  C   UNL     1       1.483  16.384  18.886  0.00  0.00    +0.000 A 
ATOM     24  C   UNL     1       0.848  15.138  18.880  0.00  0.00    +0.000 A 
ENDBRANCH  17  19
ENDBRANCH   8  13
BRANCH   1  26
ATOM     25  C   UNL     1      -4.285  14.131  20.485  0.00  0.00    +0.000 C 
ATOM     26  C   UNL     1      -4.761  12.682  20.495  0.00  0.00    +0.000 C 
ENDBRANCH   1  26
TORSDOF 3
ENDMDL
