MODEL 1
REMARK VINA RESULT:      -8.5      0.000      0.000
REMARK  Name = 
REMARK  5 active torsions:
REMARK  status: ('A' for Active; 'I' for Inactive)
REMARK    1  A    between atoms: C_1  and  C_2
REMARK    2  A    between atoms: C_7  and  N_8
REMARK    3  A    between atoms: C_9  and  C_10
REMARK    4  A    between atoms: C_11  and  C_12
REMARK    5  A    between atoms: C_15  and  O_16
REMARK                            x       y       z     vdW  Elec       q    Type
REMARK                         _______ _______ _______ _____ _____    ______ ____
ROOT
ATOM      1  N   UNL     1       3.519   4.396  18.361  0.00  0.00    +0.000 N 
ATOM      2  C   UNL     1       3.620   5.782  18.256  0.00  0.00    +0.000 A 
ATOM      3  N   UNL     1       4.322   6.371  17.334  0.00  0.00    +0.000 NA
ATOM      4  C   UNL     1       5.036   5.586  16.421  0.00  0.00    +0.000 A 
ATOM      5  C   UNL     1       5.831   6.224  15.465  0.00  0.00    +0.000 A 
ATOM      6  C   UNL     1       6.598   5.482  14.562  0.00  0.00    +0.000 A 
ATOM      7  C   UNL     1       6.574   4.088  14.607  0.00  0.00    +0.000 A 
ATOM      8  C   UNL     1       5.785   3.440  15.556  0.00  0.00    +0.000 A 
ATOM      9  C   UNL     1       5.023   4.196  16.459  0.00  0.00    +0.000 A 
ATOM     10  C   UNL     1       4.202   3.542  17.492  0.00  0.00    +0.000 A 
ATOM     11  O   UNL     1       4.175   2.313  17.534  0.00  0.00    +0.000 OA
ENDROOT
BRANCH   1  18
ATOM     12  C   UNL     1       0.697   3.746  17.869  0.00  0.00    +0.000 C 
ATOM     13  C   UNL     1       1.376   3.504  19.188  0.00  0.00    +0.000 A 
ATOM     14  C   UNL     1       0.643   2.966  20.257  0.00  0.00    +0.000 A 
ATOM     15  C   UNL     1       1.260   2.687  21.479  0.00  0.00    +0.000 A 
ATOM     16  C   UNL     1       2.623   2.921  21.645  0.00  0.00    +0.000 A 
ATOM     17  C   UNL     1       3.365   3.460  20.596  0.00  0.00    +0.000 A 
ATOM     18  C   UNL     1       2.743   3.778  19.380  0.00  0.00    +0.000 A 
ENDBRANCH   1  18
BRANCH   2  19
ATOM     19  C   UNL     1       2.964   6.615  19.315  0.00  0.00    +0.000 C 
ATOM     20  C   UNL     1       2.000   7.504  19.019  0.00  0.00    +0.000 C 
BRANCH  20  21
ATOM     21  C   UNL     1       1.513   8.509  19.982  0.00  0.00    +0.000 A 
ATOM     22  C   UNL     1       1.007   9.744  19.541  0.00  0.00    +0.000 A 
ATOM     23  C   UNL     1       0.455  10.661  20.439  0.00  0.00    +0.000 A 
ATOM     24  C   UNL     1       0.396  10.339  21.789  0.00  0.00    +0.000 A 
ATOM     25  C   UNL     1       0.887   9.123  22.249  0.00  0.00    +0.000 A 
ATOM     26  C   UNL     1       1.438   8.206  21.346  0.00  0.00    +0.000 A 
BRANCH  24  27
ATOM     27  O   UNL     1      -0.158  11.194  22.695  0.00  0.00    +0.000 OA
ATOM     28  H   UNL     1      -1.085  10.940  22.834  0.00  0.00    +0.000 HD
ENDBRANCH  24  27
ENDBRANCH  20  21
ENDBRANCH   2  19
TORSDOF 4
ENDMDL
MODEL 2
REMARK VINA RESULT:      -7.6      0.365      1.338
REMARK  Name = 
REMARK  5 active torsions:
REMARK  status: ('A' for Active; 'I' for Inactive)
REMARK    1  A    between atoms: C_1  and  C_2
REMARK    2  A    between atoms: C_7  and  N_8
REMARK    3  A    between atoms: C_9  and  C_10
REMARK    4  A    between atoms: C_11  and  C_12
REMARK    5  A    between atoms: C_15  and  O_16
REMARK                            x       y       z     vdW  Elec       q    Type
REMARK                         _______ _______ _______ _____ _____    ______ ____
ROOT
ATOM      1  N   UNL     1       3.451   4.409  18.232  0.00  0.00    +0.000 N 
ATOM      2  C   UNL     1       3.597   5.790  18.115  0.00  0.00    +0.000 A 
ATOM      3  N   UNL     1       4.296   6.348  17.172  0.00  0.00    +0.000 NA
ATOM      4  C   UNL     1       4.960   5.534  16.248  0.00  0.00    +0.000 A 
ATOM      5  C   UNL     1       5.753   6.138  15.268  0.00  0.00    +0.000 A 
ATOM      6  C   UNL     1       6.471   5.364  14.352  0.00  0.00    +0.000 A 
ATOM      7  C   UNL     1       6.400   3.972  14.407  0.00  0.00    +0.000 A 
ATOM      8  C   UNL     1       5.612   3.357  15.380  0.00  0.00    +0.000 A 
ATOM      9  C   UNL     1       4.899   4.145  16.296  0.00  0.00    +0.000 A 
ATOM     10  C   UNL     1       4.082   3.527  17.353  0.00  0.00    +0.000 A 
ATOM     11  O   UNL     1       4.014   2.300  17.405  0.00  0.00    +0.000 OA
ENDROOT
BRANCH   1  18
ATOM     12  C   UNL     1       4.788   3.194  20.548  0.00  0.00    +0.000 C 
ATOM     13  C   UNL     1       3.296   3.191  20.370  0.00  0.00    +0.000 A 
ATOM     14  C   UNL     1       2.484   2.564  21.327  0.00  0.00    +0.000 A 
ATOM     15  C   UNL     1       1.092   2.588  21.209  0.00  0.00    +0.000 A 
ATOM     16  C   UNL     1       0.490   3.255  20.146  0.00  0.00    +0.000 A 
ATOM     17  C   UNL     1       1.280   3.879  19.183  0.00  0.00    +0.000 A 
ATOM     18  C   UNL     1       2.679   3.825  19.275  0.00  0.00    +0.000 A 
ENDBRANCH   1  18
BRANCH   2  19
ATOM     19  C   UNL     1       2.996   6.653  19.184  0.00  0.00    +0.000 C 
ATOM     20  C   UNL     1       1.983   7.497  18.925  0.00  0.00    +0.000 C 
BRANCH  20  21
ATOM     21  C   UNL     1       1.537   8.530  19.877  0.00  0.00    +0.000 A 
ATOM     22  C   UNL     1       1.085   9.782  19.424  0.00  0.00    +0.000 A 
ATOM     23  C   UNL     1       0.572  10.730  20.312  0.00  0.00    +0.000 A 
ATOM     24  C   UNL     1       0.497  10.424  21.664  0.00  0.00    +0.000 A 
ATOM     25  C   UNL     1       0.934   9.193  22.137  0.00  0.00    +0.000 A 
ATOM     26  C   UNL     1       1.447   8.244  21.244  0.00  0.00    +0.000 A 
BRANCH  24  27
ATOM     27  O   UNL     1      -0.021  11.311  22.561  0.00  0.00    +0.000 OA
ATOM     28  H   UNL     1      -0.606  10.830  23.170  0.00  0.00    +0.000 HD
ENDBRANCH  24  27
ENDBRANCH  20  21
ENDBRANCH   2  19
TORSDOF 4
ENDMDL
MODEL 3
REMARK VINA RESULT:      -7.5      0.587      1.688
REMARK  Name = 
REMARK  5 active torsions:
REMARK  status: ('A' for Active; 'I' for Inactive)
REMARK    1  A    between atoms: C_1  and  C_2
REMARK    2  A    between atoms: C_7  and  N_8
REMARK    3  A    between atoms: C_9  and  C_10
REMARK    4  A    between atoms: C_11  and  C_12
REMARK    5  A    between atoms: C_15  and  O_16
REMARK                            x       y       z     vdW  Elec       q    Type
REMARK                         _______ _______ _______ _____ _____    ______ ____
ROOT
ATOM      1  N   UNL     1       3.493   4.477  18.005  0.00  0.00    +0.000 N 
ATOM      2  C   UNL     1       3.627   5.854  17.841  0.00  0.00    +0.000 A 
ATOM      3  N   UNL     1       4.355   6.386  16.905  0.00  0.00    +0.000 NA
ATOM      4  C   UNL     1       5.065   5.546  16.039  0.00  0.00    +0.000 A 
ATOM      5  C   UNL     1       5.888   6.124  15.067  0.00  0.00    +0.000 A 
ATOM      6  C   UNL     1       6.651   5.325  14.210  0.00  0.00    +0.000 A 
ATOM      7  C   UNL     1       6.595   3.936  14.317  0.00  0.00    +0.000 A 
ATOM      8  C   UNL     1       5.778   3.348  15.281  0.00  0.00    +0.000 A 
ATOM      9  C   UNL     1       5.020   4.159  16.138  0.00  0.00    +0.000 A 
ATOM     10  C   UNL     1       4.169   3.570  17.185  0.00  0.00    +0.000 A 
ATOM     11  O   UNL     1       4.114   2.346  17.282  0.00  0.00    +0.000 OA
ENDROOT
BRANCH   1  18
ATOM     12  C   UNL     1       4.742   3.503  20.479  0.00  0.00    +0.000 C 
ATOM     13  C   UNL     1       3.267   3.401  20.212  0.00  0.00    +0.000 A 
ATOM     14  C   UNL     1       2.430   2.796  21.161  0.00  0.00    +0.000 A 
ATOM     15  C   UNL     1       1.049   2.730  20.959  0.00  0.00    +0.000 A 
ATOM     16  C   UNL     1       0.482   3.287  19.816  0.00  0.00    +0.000 A 
ATOM     17  C   UNL     1       1.298   3.888  18.860  0.00  0.00    +0.000 A 
ATOM     18  C   UNL     1       2.689   3.922  19.039  0.00  0.00    +0.000 A 
ENDBRANCH   1  18
BRANCH   2  19
ATOM     19  C   UNL     1       2.974   6.748  18.852  0.00  0.00    +0.000 C 
ATOM     20  C   UNL     1       1.966   7.573  18.520  0.00  0.00    +0.000 C 
BRANCH  20  21
ATOM     21  C   UNL     1       1.472   8.635  19.415  0.00  0.00    +0.000 A 
ATOM     22  C   UNL     1       1.347   8.413  20.798  0.00  0.00    +0.000 A 
ATOM     23  C   UNL     1       0.972   9.442  21.664  0.00  0.00    +0.000 A 
ATOM     24  C   UNL     1       0.728  10.709  21.150  0.00  0.00    +0.000 A 
ATOM     25  C   UNL     1       0.848  10.955  19.787  0.00  0.00    +0.000 A 
ATOM     26  C   UNL     1       1.226   9.921  18.921  0.00  0.00    +0.000 A 
BRANCH  24  27
ATOM     27  O   UNL     1       0.385  11.748  21.963  0.00  0.00    +0.000 OA
ATOM     28  H   UNL     1      -0.509  11.588  22.309  0.00  0.00    +0.000 HD
ENDBRANCH  24  27
ENDBRANCH  20  21
ENDBRANCH   2  19
TORSDOF 4
ENDMDL
MODEL 4
REMARK VINA RESULT:      -7.4      3.750      7.332
REMARK  Name = 
REMARK  5 active torsions:
REMARK  status: ('A' for Active; 'I' for Inactive)
REMARK    1  A    between atoms: C_1  and  C_2
REMARK    2  A    between atoms: C_7  and  N_8
REMARK    3  A    between atoms: C_9  and  C_10
REMARK    4  A    between atoms: C_11  and  C_12
REMARK    5  A    between atoms: C_15  and  O_16
REMARK                            x       y       z     vdW  Elec       q    Type
REMARK                         _______ _______ _______ _____ _____    ______ ____
ROOT
ATOM      1  N   UNL     1       1.165  10.553  19.761  0.00  0.00    +0.000 N 
ATOM      2  C   UNL     1       0.905  10.012  21.018  0.00  0.00    +0.000 A 
ATOM      3  N   UNL     1       1.124   8.765  21.309  0.00  0.00    +0.000 NA
ATOM      4  C   UNL     1       1.611   7.912  20.313  0.00  0.00    +0.000 A 
ATOM      5  C   UNL     1       1.794   6.559  20.616  0.00  0.00    +0.000 A 
ATOM      6  C   UNL     1       2.236   5.661  19.640  0.00  0.00    +0.000 A 
ATOM      7  C   UNL     1       2.502   6.110  18.347  0.00  0.00    +0.000 A 
ATOM      8  C   UNL     1       2.324   7.457  18.032  0.00  0.00    +0.000 A 
ATOM      9  C   UNL     1       1.877   8.348  19.019  0.00  0.00    +0.000 A 
ATOM     10  C   UNL     1       1.651   9.770  18.711  0.00  0.00    +0.000 A 
ATOM     11  O   UNL     1       1.886  10.172  17.573  0.00  0.00    +0.000 OA
ENDROOT
BRANCH   1  18
ATOM     12  C   UNL     1      -1.376  11.358  18.527  0.00  0.00    +0.000 C 
ATOM     13  C   UNL     1      -0.270  12.329  18.832  0.00  0.00    +0.000 A 
ATOM     14  C   UNL     1      -0.424  13.683  18.500  0.00  0.00    +0.000 A 
ATOM     15  C   UNL     1       0.568  14.615  18.816  0.00  0.00    +0.000 A 
ATOM     16  C   UNL     1       1.720  14.211  19.486  0.00  0.00    +0.000 A 
ATOM     17  C   UNL     1       1.893  12.869  19.820  0.00  0.00    +0.000 A 
ATOM     18  C   UNL     1       0.917  11.923  19.470  0.00  0.00    +0.000 A 
ENDBRANCH   1  18
BRANCH   2  19
ATOM     19  C   UNL     1       0.258  10.896  22.042  0.00  0.00    +0.000 C 
ATOM     20  C   UNL     1      -1.077  11.045  22.104  0.00  0.00    +0.000 C 
BRANCH  20  21
ATOM     21  C   UNL     1      -1.730  12.084  22.921  0.00  0.00    +0.000 A 
ATOM     22  C   UNL     1      -1.153  13.358  23.063  0.00  0.00    +0.000 A 
ATOM     23  C   UNL     1      -1.812  14.377  23.755  0.00  0.00    +0.000 A 
ATOM     24  C   UNL     1      -3.063  14.128  24.302  0.00  0.00    +0.000 A 
ATOM     25  C   UNL     1      -3.657  12.878  24.172  0.00  0.00    +0.000 A 
ATOM     26  C   UNL     1      -2.995  11.859  23.477  0.00  0.00    +0.000 A 
BRANCH  24  27
ATOM     27  O   UNL     1      -3.753  15.102  24.962  0.00  0.00    +0.000 OA
ATOM     28  H   UNL     1      -4.256  15.620  24.313  0.00  0.00    +0.000 HD
ENDBRANCH  24  27
ENDBRANCH  20  21
ENDBRANCH   2  19
TORSDOF 4
ENDMDL
MODEL 5
REMARK VINA RESULT:      -7.3      2.125      7.046
REMARK  Name = 
REMARK  5 active torsions:
REMARK  status: ('A' for Active; 'I' for Inactive)
REMARK    1  A    between atoms: C_1  and  C_2
REMARK    2  A    between atoms: C_7  and  N_8
REMARK    3  A    between atoms: C_9  and  C_10
REMARK    4  A    between atoms: C_11  and  C_12
REMARK    5  A    between atoms: C_15  and  O_16
REMARK                            x       y       z     vdW  Elec       q    Type
REMARK                         _______ _______ _______ _____ _____    ______ ____
ROOT
ATOM      1  N   UNL     1       3.063   5.638  18.817  0.00  0.00    +0.000 N 
ATOM      2  C   UNL     1       3.528   6.248  17.653  0.00  0.00    +0.000 A 
ATOM      3  N   UNL     1       3.302   7.496  17.372  0.00  0.00    +0.000 NA
ATOM      4  C   UNL     1       2.531   8.261  18.254  0.00  0.00    +0.000 A 
ATOM      5  C   UNL     1       2.247   9.589  17.921  0.00  0.00    +0.000 A 
ATOM      6  C   UNL     1       1.443  10.377  18.749  0.00  0.00    +0.000 A 
ATOM      7  C   UNL     1       0.917   9.844  19.925  0.00  0.00    +0.000 A 
ATOM      8  C   UNL     1       1.194   8.521  20.270  0.00  0.00    +0.000 A 
ATOM      9  C   UNL     1       1.998   7.739  19.428  0.00  0.00    +0.000 A 
ATOM     10  C   UNL     1       2.286   6.330  19.748  0.00  0.00    +0.000 A 
ATOM     11  O   UNL     1       1.826   5.855  20.785  0.00  0.00    +0.000 OA
ENDROOT
BRANCH   1  18
ATOM     12  C   UNL     1       1.143   3.571  17.998  0.00  0.00    +0.000 C 
ATOM     13  C   UNL     1       2.399   3.265  18.765  0.00  0.00    +0.000 A 
ATOM     14  C   UNL     1       2.678   1.942  19.140  0.00  0.00    +0.000 A 
ATOM     15  C   UNL     1       3.861   1.623  19.811  0.00  0.00    +0.000 A 
ATOM     16  C   UNL     1       4.792   2.617  20.100  0.00  0.00    +0.000 A 
ATOM     17  C   UNL     1       4.530   3.937  19.739  0.00  0.00    +0.000 A 
ATOM     18  C   UNL     1       3.327   4.269  19.100  0.00  0.00    +0.000 A 
ENDBRANCH   1  18
BRANCH   2  19
ATOM     19  C   UNL     1       4.237   5.391  16.648  0.00  0.00    +0.000 C 
ATOM     20  C   UNL     1       5.342   5.816  16.011  0.00  0.00    +0.000 C 
BRANCH  20  21
ATOM     21  C   UNL     1       5.916   5.115  14.848  0.00  0.00    +0.000 A 
ATOM     22  C   UNL     1       5.174   4.145  14.152  0.00  0.00    +0.000 A 
ATOM     23  C   UNL     1       5.675   3.546  12.993  0.00  0.00    +0.000 A 
ATOM     24  C   UNL     1       6.922   3.925  12.517  0.00  0.00    +0.000 A 
ATOM     25  C   UNL     1       7.674   4.885  13.185  0.00  0.00    +0.000 A 
ATOM     26  C   UNL     1       7.169   5.483  14.345  0.00  0.00    +0.000 A 
BRANCH  24  27
ATOM     27  O   UNL     1       7.437   3.385  11.375  0.00  0.00    +0.000 OA
ATOM     28  H   UNL     1       6.730   2.904  10.914  0.00  0.00    +0.000 HD
ENDBRANCH  24  27
ENDBRANCH  20  21
ENDBRANCH   2  19
TORSDOF 4
ENDMDL
MODEL 6
REMARK VINA RESULT:      -7.0      2.198      7.167
REMARK  Name = 
REMARK  5 active torsions:
REMARK  status: ('A' for Active; 'I' for Inactive)
REMARK    1  A    between atoms: C_1  and  C_2
REMARK    2  A    between atoms: C_7  and  N_8
REMARK    3  A    between atoms: C_9  and  C_10
REMARK    4  A    between atoms: C_11  and  C_12
REMARK    5  A    between atoms: C_15  and  O_16
REMARK                            x       y       z     vdW  Elec       q    Type
REMARK                         _______ _______ _______ _____ _____    ______ ____
ROOT
ATOM      1  N   UNL     1       2.928   5.803  18.803  0.00  0.00    +0.000 N 
ATOM      2  C   UNL     1       3.382   6.392  17.624  0.00  0.00    +0.000 A 
ATOM      3  N   UNL     1       3.175   7.641  17.333  0.00  0.00    +0.000 NA
ATOM      4  C   UNL     1       2.438   8.431  18.223  0.00  0.00    +0.000 A 
ATOM      5  C   UNL     1       2.173   9.760  17.881  0.00  0.00    +0.000 A 
ATOM      6  C   UNL     1       1.403  10.574  18.717  0.00  0.00    +0.000 A 
ATOM      7  C   UNL     1       0.890  10.062  19.909  0.00  0.00    +0.000 A 
ATOM      8  C   UNL     1       1.147   8.738  20.262  0.00  0.00    +0.000 A 
ATOM      9  C   UNL     1       1.919   7.931  19.413  0.00  0.00    +0.000 A 
ATOM     10  C   UNL     1       2.184   6.521  19.742  0.00  0.00    +0.000 A 
ATOM     11  O   UNL     1       1.736   6.065  20.793  0.00  0.00    +0.000 OA
ENDROOT
BRANCH   1  18
ATOM     12  C   UNL     1       5.601   4.930  19.653  0.00  0.00    +0.000 C 
ATOM     13  C   UNL     1       4.454   3.980  19.455  0.00  0.00    +0.000 A 
ATOM     14  C   UNL     1       4.649   2.605  19.654  0.00  0.00    +0.000 A 
ATOM     15  C   UNL     1       3.589   1.705  19.523  0.00  0.00    +0.000 A 
ATOM     16  C   UNL     1       2.313   2.168  19.210  0.00  0.00    +0.000 A 
ATOM     17  C   UNL     1       2.101   3.529  19.003  0.00  0.00    +0.000 A 
ATOM     18  C   UNL     1       3.170   4.432  19.095  0.00  0.00    +0.000 A 
ENDBRANCH   1  18
BRANCH   2  19
ATOM     19  C   UNL     1       4.053   5.510  16.613  0.00  0.00    +0.000 C 
ATOM     20  C   UNL     1       5.261   5.810  16.105  0.00  0.00    +0.000 C 
BRANCH  20  21
ATOM     21  C   UNL     1       5.835   5.113  14.940  0.00  0.00    +0.000 A 
ATOM     22  C   UNL     1       5.082   4.170  14.220  0.00  0.00    +0.000 A 
ATOM     23  C   UNL     1       5.585   3.576  13.060  0.00  0.00    +0.000 A 
ATOM     24  C   UNL     1       6.847   3.935  12.605  0.00  0.00    +0.000 A 
ATOM     25  C   UNL     1       7.611   4.868  13.297  0.00  0.00    +0.000 A 
ATOM     26  C   UNL     1       7.103   5.461  14.459  0.00  0.00    +0.000 A 
BRANCH  24  27
ATOM     27  O   UNL     1       7.365   3.399  11.463  0.00  0.00    +0.000 OA
ATOM     28  H   UNL     1       6.971   3.855  10.701  0.00  0.00    +0.000 HD
ENDBRANCH  24  27
ENDBRANCH  20  21
ENDBRANCH   2  19
TORSDOF 4
ENDMDL
MODEL 7
REMARK VINA RESULT:      -7.0      3.877      6.995
REMARK  Name = 
REMARK  5 active torsions:
REMARK  status: ('A' for Active; 'I' for Inactive)
REMARK    1  A    between atoms: C_1  and  C_2
REMARK    2  A    between atoms: C_7  and  N_8
REMARK    3  A    between atoms: C_9  and  C_10
REMARK    4  A    between atoms: C_11  and  C_12
REMARK    5  A    between atoms: C_15  and  O_16
REMARK                            x       y       z     vdW  Elec       q    Type
REMARK                         _______ _______ _______ _____ _____    ______ ____
ROOT
ATOM      1  N   UNL     1       1.010  10.023  19.445  0.00  0.00    +0.000 N 
ATOM      2  C   UNL     1       1.758  10.413  18.336  0.00  0.00    +0.000 A 
ATOM      3  N   UNL     1       2.560   9.607  17.707  0.00  0.00    +0.000 NA
ATOM      4  C   UNL     1       2.709   8.297  18.175  0.00  0.00    +0.000 A 
ATOM      5  C   UNL     1       3.612   7.450  17.526  0.00  0.00    +0.000 A 
ATOM      6  C   UNL     1       3.828   6.148  17.986  0.00  0.00    +0.000 A 
ATOM      7  C   UNL     1       3.137   5.678  19.102  0.00  0.00    +0.000 A 
ATOM      8  C   UNL     1       2.232   6.513  19.758  0.00  0.00    +0.000 A 
ATOM      9  C   UNL     1       2.028   7.819  19.289  0.00  0.00    +0.000 A 
ATOM     10  C   UNL     1       1.102   8.735  19.976  0.00  0.00    +0.000 A 
ATOM     11  O   UNL     1       0.488   8.325  20.960  0.00  0.00    +0.000 OA
ENDROOT
BRANCH   1  18
ATOM     12  C   UNL     1      -1.734  10.412  18.473  0.00  0.00    +0.000 C 
ATOM     13  C   UNL     1      -1.163  11.170  19.638  0.00  0.00    +0.000 A 
ATOM     14  C   UNL     1      -1.949  12.130  20.294  0.00  0.00    +0.000 A 
ATOM     15  C   UNL     1      -1.459  12.814  21.409  0.00  0.00    +0.000 A 
ATOM     16  C   UNL     1      -0.186  12.535  21.899  0.00  0.00    +0.000 A 
ATOM     17  C   UNL     1       0.610  11.588  21.258  0.00  0.00    +0.000 A 
ATOM     18  C   UNL     1       0.139  10.926  20.115  0.00  0.00    +0.000 A 
ENDBRANCH   1  18
BRANCH   2  19
ATOM     19  C   UNL     1       1.698  11.852  17.921  0.00  0.00    +0.000 C 
ATOM     20  C   UNL     1       2.488  12.784  18.482  0.00  0.00    +0.000 C 
BRANCH  20  21
ATOM     21  C   UNL     1       2.288  14.230  18.283  0.00  0.00    +0.000 A 
ATOM     22  C   UNL     1       1.139  14.874  18.777  0.00  0.00    +0.000 A 
ATOM     23  C   UNL     1       0.987  16.259  18.677  0.00  0.00    +0.000 A 
ATOM     24  C   UNL     1       1.994  17.012  18.089  0.00  0.00    +0.000 A 
ATOM     25  C   UNL     1       3.142  16.401  17.597  0.00  0.00    +0.000 A 
ATOM     26  C   UNL     1       3.291  15.013  17.700  0.00  0.00    +0.000 A 
BRANCH  24  27
ATOM     27  O   UNL     1       1.898  18.370  17.995  0.00  0.00    +0.000 OA
ATOM     28  H   UNL     1       2.780  18.753  18.132  0.00  0.00    +0.000 HD
ENDBRANCH  24  27
ENDBRANCH  20  21
ENDBRANCH   2  19
TORSDOF 4
ENDMDL
MODEL 8
REMARK VINA RESULT:      -6.9      4.062      7.368
REMARK  Name = 
REMARK  5 active torsions:
REMARK  status: ('A' for Active; 'I' for Inactive)
REMARK    1  A    between atoms: C_1  and  C_2
REMARK    2  A    between atoms: C_7  and  N_8
REMARK    3  A    between atoms: C_9  and  C_10
REMARK    4  A    between atoms: C_11  and  C_12
REMARK    5  A    between atoms: C_15  and  O_16
REMARK                            x       y       z     vdW  Elec       q    Type
REMARK                         _______ _______ _______ _____ _____    ______ ____
ROOT
ATOM      1  N   UNL     1       0.732  10.365  19.680  0.00  0.00    +0.000 N 
ATOM      2  C   UNL     1       1.493  10.736  18.573  0.00  0.00    +0.000 A 
ATOM      3  N   UNL     1       2.277   9.910  17.946  0.00  0.00    +0.000 NA
ATOM      4  C   UNL     1       2.393   8.597  18.416  0.00  0.00    +0.000 A 
ATOM      5  C   UNL     1       3.277   7.728  17.770  0.00  0.00    +0.000 A 
ATOM      6  C   UNL     1       3.459   6.421  18.231  0.00  0.00    +0.000 A 
ATOM      7  C   UNL     1       2.753   5.969  19.346  0.00  0.00    +0.000 A 
ATOM      8  C   UNL     1       1.867   6.826  19.998  0.00  0.00    +0.000 A 
ATOM      9  C   UNL     1       1.696   8.136  19.528  0.00  0.00    +0.000 A 
ATOM     10  C   UNL     1       0.791   9.075  20.212  0.00  0.00    +0.000 A 
ATOM     11  O   UNL     1       0.164   8.682  21.194  0.00  0.00    +0.000 OA
ENDROOT
BRANCH   1  18
ATOM     12  C   UNL     1      -1.999  10.821  18.699  0.00  0.00    +0.000 C 
ATOM     13  C   UNL     1      -1.413  11.565  19.866  0.00  0.00    +0.000 A 
ATOM     14  C   UNL     1      -2.176  12.545  20.519  0.00  0.00    +0.000 A 
ATOM     15  C   UNL     1      -1.673  13.218  21.635  0.00  0.00    +0.000 A 
ATOM     16  C   UNL     1      -0.409  12.908  22.129  0.00  0.00    +0.000 A 
ATOM     17  C   UNL     1       0.366  11.941  21.491  0.00  0.00    +0.000 A 
ATOM     18  C   UNL     1      -0.118  11.290  20.346  0.00  0.00    +0.000 A 
ENDBRANCH   1  18
BRANCH   2  19
ATOM     19  C   UNL     1       1.470  12.176  18.157  0.00  0.00    +0.000 C 
ATOM     20  C   UNL     1       2.389  13.054  18.595  0.00  0.00    +0.000 C 
BRANCH  20  21
ATOM     21  C   UNL     1       2.257  14.511  18.412  0.00  0.00    +0.000 A 
ATOM     22  C   UNL     1       3.220  15.237  17.689  0.00  0.00    +0.000 A 
ATOM     23  C   UNL     1       3.052  16.599  17.430  0.00  0.00    +0.000 A 
ATOM     24  C   UNL     1       1.910  17.243  17.886  0.00  0.00    +0.000 A 
ATOM     25  C   UNL     1       0.942  16.547  18.600  0.00  0.00    +0.000 A 
ATOM     26  C   UNL     1       1.112  15.181  18.857  0.00  0.00    +0.000 A 
BRANCH  24  27
ATOM     27  O   UNL     1       1.695  18.566  17.633  0.00  0.00    +0.000 OA
ATOM     28  H   UNL     1       0.937  18.864  18.162  0.00  0.00    +0.000 HD
ENDBRANCH  24  27
ENDBRANCH  20  21
ENDBRANCH   2  19
TORSDOF 4
ENDMDL
MODEL 9
REMARK VINA RESULT:      -6.7      2.391      2.902
REMARK  Name = 
REMARK  5 active torsions:
REMARK  status: ('A' for Active; 'I' for Inactive)
REMARK    1  A    between atoms: C_1  and  C_2
REMARK    2  A    between atoms: C_7  and  N_8
REMARK    3  A    between atoms: C_9  and  C_10
REMARK    4  A    between atoms: C_11  and  C_12
REMARK    5  A    between atoms: C_15  and  O_16
REMARK                            x       y       z     vdW  Elec       q    Type
REMARK                         _______ _______ _______ _____ _____    ______ ____
ROOT
ATOM      1  N   UNL     1       3.642   5.531  18.690  0.00  0.00    +0.000 N 
ATOM      2  C   UNL     1       3.454   6.806  18.158  0.00  0.00    +0.000 A 
ATOM      3  N   UNL     1       4.437   7.565  17.778  0.00  0.00    +0.000 NA
ATOM      4  C   UNL     1       5.749   7.103  17.935  0.00  0.00    +0.000 A 
ATOM      5  C   UNL     1       6.805   7.945  17.572  0.00  0.00    +0.000 A 
ATOM      6  C   UNL     1       8.133   7.544  17.754  0.00  0.00    +0.000 A 
ATOM      7  C   UNL     1       8.416   6.292  18.298  0.00  0.00    +0.000 A 
ATOM      8  C   UNL     1       7.372   5.444  18.663  0.00  0.00    +0.000 A 
ATOM      9  C   UNL     1       6.044   5.858  18.480  0.00  0.00    +0.000 A 
ATOM     10  C   UNL     1       4.918   4.997  18.881  0.00  0.00    +0.000 A 
ATOM     11  O   UNL     1       5.163   3.891  19.360  0.00  0.00    +0.000 OA
ENDROOT
BRANCH   1  18
ATOM     12  C   UNL     1       2.605   3.450  16.896  0.00  0.00    +0.000 C 
ATOM     13  C   UNL     1       1.997   3.753  18.237  0.00  0.00    +0.000 A 
ATOM     14  C   UNL     1       0.867   3.039  18.663  0.00  0.00    +0.000 A 
ATOM     15  C   UNL     1       0.311   3.267  19.925  0.00  0.00    +0.000 A 
ATOM     16  C   UNL     1       0.888   4.197  20.786  0.00  0.00    +0.000 A 
ATOM     17  C   UNL     1       2.007   4.919  20.378  0.00  0.00    +0.000 A 
ATOM     18  C   UNL     1       2.546   4.722  19.098  0.00  0.00    +0.000 A 
ENDBRANCH   1  18
BRANCH   2  19
ATOM     19  C   UNL     1       2.057   7.349  18.117  0.00  0.00    +0.000 C 
ATOM     20  C   UNL     1       1.812   8.655  17.915  0.00  0.00    +0.000 C 
BRANCH  20  21
ATOM     21  C   UNL     1       0.483   9.262  18.115  0.00  0.00    +0.000 A 
ATOM     22  C   UNL     1       0.189   9.983  19.286  0.00  0.00    +0.000 A 
ATOM     23  C   UNL     1      -1.033  10.641  19.441  0.00  0.00    +0.000 A 
ATOM     24  C   UNL     1      -1.968  10.590  18.416  0.00  0.00    +0.000 A 
ATOM     25  C   UNL     1      -1.700   9.887  17.247  0.00  0.00    +0.000 A 
ATOM     26  C   UNL     1      -0.473   9.230  17.094  0.00  0.00    +0.000 A 
BRANCH  24  27
ATOM     27  O   UNL     1      -3.163  11.240  18.516  0.00  0.00    +0.000 OA
ATOM     28  H   UNL     1      -3.299  11.497  19.442  0.00  0.00    +0.000 HD
ENDBRANCH  24  27
ENDBRANCH  20  21
ENDBRANCH   2  19
TORSDOF 4
ENDMDL
