MODEL 1
REMARK VINA RESULT:      -9.2      0.000      0.000
REMARK  Name = 
REMARK  5 active torsions:
REMARK  status: ('A' for Active; 'I' for Inactive)
REMARK    1  A    between atoms: C_1  and  C_2
REMARK    2  A    between atoms: N_7  and  C_8
REMARK    3  A    between atoms: C_8  and  C_9
REMARK    4  A    between atoms: C_13  and  C_14
REMARK    5  A    between atoms: C_26  and  C_27
REMARK                            x       y       z     vdW  Elec       q    Type
REMARK                         _______ _______ _______ _____ _____    ______ ____
ROOT
ATOM      1  C   UNL     1       2.375   7.258  19.480  0.00  0.00    +0.000 C 
ATOM      2  O   UNL     1       1.989   7.257  20.652  0.00  0.00    +0.000 OA
ATOM      3  N   UNL     1       3.293   6.348  18.984  0.00  0.00    +0.000 N 
ATOM      4  N   UNL     1       3.889   6.513  17.767  0.00  0.00    +0.000 NA
ATOM      5  C   UNL     1       4.729   5.537  17.604  0.00  0.00    +0.000 C 
ATOM      6  C   UNL     1       4.794   4.566  18.758  0.00  0.00    +0.000 C 
ATOM      7  C   UNL     1       3.810   5.208  19.736  0.00  0.00    +0.000 C 
ENDROOT
BRANCH   5   8
ATOM      8  C   UNL     1       5.565   5.373  16.381  0.00  0.00    +0.000 A 
ATOM      9  C   UNL     1       5.066   4.574  15.420  0.00  0.00    +0.000 A 
ATOM     10  C   UNL     1       5.798   4.351  14.187  0.00  0.00    +0.000 A 
ATOM     11  C   UNL     1       5.310   3.532  13.166  0.00  0.00    +0.000 A 
ATOM     12  C   UNL     1       6.052   3.359  11.994  0.00  0.00    +0.000 A 
ATOM     13  C   UNL     1       7.284   4.001  11.839  0.00  0.00    +0.000 A 
ATOM     14  C   UNL     1       7.776   4.816  12.855  0.00  0.00    +0.000 A 
ATOM     15  C   UNL     1       7.025   4.979  14.016  0.00  0.00    +0.000 A 
ATOM     16  O   UNL     1       7.554   5.808  15.018  0.00  0.00    +0.000 OA
ATOM     17  C   UNL     1       6.873   6.041  16.207  0.00  0.00    +0.000 A 
ATOM     18  O   UNL     1       7.353   6.773  17.065  0.00  0.00    +0.000 OA
ENDBRANCH   5   8
BRANCH   7  19
ATOM     19  C   UNL     1       2.725   4.240  20.167  0.00  0.00    +0.000 A 
ATOM     20  C   UNL     1       1.817   3.736  19.227  0.00  0.00    +0.000 A 
ATOM     21  C   UNL     1       0.819   2.836  19.611  0.00  0.00    +0.000 A 
ATOM     22  C   UNL     1       0.715   2.439  20.941  0.00  0.00    +0.000 A 
ATOM     23  C   UNL     1       1.615   2.929  21.888  0.00  0.00    +0.000 A 
ATOM     24  C   UNL     1       2.614   3.821  21.503  0.00  0.00    +0.000 A 
ENDBRANCH   7  19
BRANCH   1  25
ATOM     25  C   UNL     1       1.830   8.275  18.467  0.00  0.00    +0.000 C 
BRANCH  25  32
ATOM     26  C   UNL     1       1.042  10.850  21.139  0.00  0.00    +0.000 C 
ATOM     27  C   UNL     1       0.848   9.585  20.286  0.00  0.00    +0.000 C 
ATOM     28  C   UNL     1      -0.639   9.350  19.971  0.00  0.00    +0.000 C 
ATOM     29  C   UNL     1      -1.183  10.350  18.954  0.00  0.00    +0.000 C 
ATOM     30  C   UNL     1      -0.287  10.435  17.722  0.00  0.00    +0.000 C 
ATOM     31  C   UNL     1       1.186  10.620  18.096  0.00  0.00    +0.000 C 
ATOM     32  N   UNL     1       1.685   9.632  19.068  0.00  0.00    +0.000 NA
ENDBRANCH  25  32
ENDBRANCH   1  25
TORSDOF 4
ENDMDL
MODEL 2
REMARK VINA RESULT:      -9.1      0.486      1.350
REMARK  Name = 
REMARK  5 active torsions:
REMARK  status: ('A' for Active; 'I' for Inactive)
REMARK    1  A    between atoms: C_1  and  C_2
REMARK    2  A    between atoms: N_7  and  C_8
REMARK    3  A    between atoms: C_8  and  C_9
REMARK    4  A    between atoms: C_13  and  C_14
REMARK    5  A    between atoms: C_26  and  C_27
REMARK                            x       y       z     vdW  Elec       q    Type
REMARK                         _______ _______ _______ _____ _____    ______ ____
ROOT
ATOM      1  C   UNL     1       2.541   7.251  19.582  0.00  0.00    +0.000 C 
ATOM      2  O   UNL     1       2.129   7.182  20.744  0.00  0.00    +0.000 OA
ATOM      3  N   UNL     1       3.390   6.311  19.024  0.00  0.00    +0.000 N 
ATOM      4  N   UNL     1       4.026   6.527  17.835  0.00  0.00    +0.000 NA
ATOM      5  C   UNL     1       4.785   5.501  17.601  0.00  0.00    +0.000 C 
ATOM      6  C   UNL     1       4.743   4.434  18.668  0.00  0.00    +0.000 C 
ATOM      7  C   UNL     1       3.794   5.072  19.682  0.00  0.00    +0.000 C 
ENDROOT
BRANCH   5   8
ATOM      8  C   UNL     1       5.632   5.371  16.382  0.00  0.00    +0.000 A 
ATOM      9  C   UNL     1       5.156   4.573  15.408  0.00  0.00    +0.000 A 
ATOM     10  C   UNL     1       5.901   4.382  14.177  0.00  0.00    +0.000 A 
ATOM     11  C   UNL     1       5.438   3.564  13.143  0.00  0.00    +0.000 A 
ATOM     12  C   UNL     1       6.191   3.422  11.973  0.00  0.00    +0.000 A 
ATOM     13  C   UNL     1       7.408   4.094  11.834  0.00  0.00    +0.000 A 
ATOM     14  C   UNL     1       7.876   4.907  12.863  0.00  0.00    +0.000 A 
ATOM     15  C   UNL     1       7.115   5.039  14.021  0.00  0.00    +0.000 A 
ATOM     16  O   UNL     1       7.619   5.867  15.036  0.00  0.00    +0.000 OA
ATOM     17  C   UNL     1       6.926   6.070  16.224  0.00  0.00    +0.000 A 
ATOM     18  O   UNL     1       7.384   6.802  17.094  0.00  0.00    +0.000 OA
ENDBRANCH   5   8
BRANCH   7  19
ATOM     19  C   UNL     1       2.623   4.167  20.012  0.00  0.00    +0.000 A 
ATOM     20  C   UNL     1       1.759   3.735  18.997  0.00  0.00    +0.000 A 
ATOM     21  C   UNL     1       0.682   2.893  19.288  0.00  0.00    +0.000 A 
ATOM     22  C   UNL     1       0.455   2.481  20.597  0.00  0.00    +0.000 A 
ATOM     23  C   UNL     1       1.309   2.899  21.618  0.00  0.00    +0.000 A 
ATOM     24  C   UNL     1       2.387   3.733  21.327  0.00  0.00    +0.000 A 
ENDBRANCH   7  19
BRANCH   1  25
ATOM     25  C   UNL     1       2.105   8.392  18.653  0.00  0.00    +0.000 C 
BRANCH  25  32
ATOM     26  C   UNL     1      -1.199  10.162  18.072  0.00  0.00    +0.000 C 
ATOM     27  C   UNL     1       0.325   9.965  18.062  0.00  0.00    +0.000 C 
ATOM     28  C   UNL     1       1.058  11.280  18.379  0.00  0.00    +0.000 C 
ATOM     29  C   UNL     1       0.927  11.679  19.847  0.00  0.00    +0.000 C 
ATOM     30  C   UNL     1       1.287  10.522  20.773  0.00  0.00    +0.000 C 
ATOM     31  C   UNL     1       0.569   9.228  20.381  0.00  0.00    +0.000 C 
ATOM     32  N   UNL     1       0.725   8.863  18.964  0.00  0.00    +0.000 NA
ENDBRANCH  25  32
ENDBRANCH   1  25
TORSDOF 4
ENDMDL
MODEL 3
REMARK VINA RESULT:      -8.7      3.278      6.945
REMARK  Name = 
REMARK  5 active torsions:
REMARK  status: ('A' for Active; 'I' for Inactive)
REMARK    1  A    between atoms: C_1  and  C_2
REMARK    2  A    between atoms: N_7  and  C_8
REMARK    3  A    between atoms: C_8  and  C_9
REMARK    4  A    between atoms: C_13  and  C_14
REMARK    5  A    between atoms: C_26  and  C_27
REMARK                            x       y       z     vdW  Elec       q    Type
REMARK                         _______ _______ _______ _____ _____    ______ ____
ROOT
ATOM      1  C   UNL     1       0.536  12.789  18.701  0.00  0.00    +0.000 C 
ATOM      2  O   UNL     1      -0.376  13.563  19.007  0.00  0.00    +0.000 OA
ATOM      3  N   UNL     1       0.438  11.414  18.832  0.00  0.00    +0.000 N 
ATOM      4  N   UNL     1       1.527  10.598  18.726  0.00  0.00    +0.000 NA
ATOM      5  C   UNL     1       1.132   9.381  18.945  0.00  0.00    +0.000 C 
ATOM      6  C   UNL     1      -0.341   9.245  19.246  0.00  0.00    +0.000 C 
ATOM      7  C   UNL     1      -0.782  10.709  19.216  0.00  0.00    +0.000 C 
ENDROOT
BRANCH   5   8
ATOM      8  C   UNL     1       2.045   8.205  18.904  0.00  0.00    +0.000 A 
ATOM      9  C   UNL     1       2.820   8.090  17.810  0.00  0.00    +0.000 A 
ATOM     10  C   UNL     1       3.749   6.983  17.672  0.00  0.00    +0.000 A 
ATOM     11  C   UNL     1       4.571   6.832  16.553  0.00  0.00    +0.000 A 
ATOM     12  C   UNL     1       5.455   5.751  16.476  0.00  0.00    +0.000 A 
ATOM     13  C   UNL     1       5.518   4.817  17.513  0.00  0.00    +0.000 A 
ATOM     14  C   UNL     1       4.697   4.961  18.630  0.00  0.00    +0.000 A 
ATOM     15  C   UNL     1       3.824   6.043  18.692  0.00  0.00    +0.000 A 
ATOM     16  O   UNL     1       3.012   6.154  19.833  0.00  0.00    +0.000 OA
ATOM     17  C   UNL     1       2.116   7.205  19.991  0.00  0.00    +0.000 A 
ATOM     18  O   UNL     1       1.422   7.283  20.998  0.00  0.00    +0.000 OA
ENDBRANCH   5   8
BRANCH   7  19
ATOM     19  C   UNL     1      -1.928  10.938  18.249  0.00  0.00    +0.000 A 
ATOM     20  C   UNL     1      -1.834  10.484  16.926  0.00  0.00    +0.000 A 
ATOM     21  C   UNL     1      -2.888  10.681  16.030  0.00  0.00    +0.000 A 
ATOM     22  C   UNL     1      -4.042  11.340  16.445  0.00  0.00    +0.000 A 
ATOM     23  C   UNL     1      -4.151  11.793  17.760  0.00  0.00    +0.000 A 
ATOM     24  C   UNL     1      -3.103  11.591  18.656  0.00  0.00    +0.000 A 
ENDBRANCH   7  19
BRANCH   1  25
ATOM     25  C   UNL     1       1.856  13.311  18.117  0.00  0.00    +0.000 C 
BRANCH  25  32
ATOM     26  C   UNL     1       3.071  16.867  17.600  0.00  0.00    +0.000 C 
ATOM     27  C   UNL     1       3.133  15.331  17.588  0.00  0.00    +0.000 C 
ATOM     28  C   UNL     1       4.537  14.828  17.963  0.00  0.00    +0.000 C 
ATOM     29  C   UNL     1       4.845  15.019  19.446  0.00  0.00    +0.000 C 
ATOM     30  C   UNL     1       3.727  14.467  20.323  0.00  0.00    +0.000 C 
ATOM     31  C   UNL     1       2.349  14.960  19.874  0.00  0.00    +0.000 C 
ATOM     32  N   UNL     1       2.076  14.749  18.443  0.00  0.00    +0.000 NA
ENDBRANCH  25  32
ENDBRANCH   1  25
TORSDOF 4
ENDMDL
MODEL 4
REMARK VINA RESULT:      -8.6      3.306      6.882
REMARK  Name = 
REMARK  5 active torsions:
REMARK  status: ('A' for Active; 'I' for Inactive)
REMARK    1  A    between atoms: C_1  and  C_2
REMARK    2  A    between atoms: N_7  and  C_8
REMARK    3  A    between atoms: C_8  and  C_9
REMARK    4  A    between atoms: C_13  and  C_14
REMARK    5  A    between atoms: C_26  and  C_27
REMARK                            x       y       z     vdW  Elec       q    Type
REMARK                         _______ _______ _______ _____ _____    ______ ____
ROOT
ATOM      1  C   UNL     1       0.427  12.830  18.638  0.00  0.00    +0.000 C 
ATOM      2  O   UNL     1      -0.493  13.594  18.940  0.00  0.00    +0.000 OA
ATOM      3  N   UNL     1       0.350  11.455  18.787  0.00  0.00    +0.000 N 
ATOM      4  N   UNL     1       1.450  10.654  18.683  0.00  0.00    +0.000 NA
ATOM      5  C   UNL     1       1.073   9.434  18.921  0.00  0.00    +0.000 C 
ATOM      6  C   UNL     1      -0.396   9.281  19.234  0.00  0.00    +0.000 C 
ATOM      7  C   UNL     1      -0.857  10.737  19.189  0.00  0.00    +0.000 C 
ENDROOT
BRANCH   5   8
ATOM      8  C   UNL     1       2.003   8.270  18.888  0.00  0.00    +0.000 A 
ATOM      9  C   UNL     1       2.764   8.146  17.785  0.00  0.00    +0.000 A 
ATOM     10  C   UNL     1       3.707   7.050  17.654  0.00  0.00    +0.000 A 
ATOM     11  C   UNL     1       4.515   6.891  16.526  0.00  0.00    +0.000 A 
ATOM     12  C   UNL     1       5.413   5.821  16.456  0.00  0.00    +0.000 A 
ATOM     13  C   UNL     1       5.505   4.908  17.510  0.00  0.00    +0.000 A 
ATOM     14  C   UNL     1       4.698   5.060  18.635  0.00  0.00    +0.000 A 
ATOM     15  C   UNL     1       3.810   6.130  18.691  0.00  0.00    +0.000 A 
ATOM     16  O   UNL     1       3.013   6.251  19.841  0.00  0.00    +0.000 OA
ATOM     17  C   UNL     1       2.105   7.292  19.993  0.00  0.00    +0.000 A 
ATOM     18  O   UNL     1       1.424   7.379  21.008  0.00  0.00    +0.000 OA
ENDBRANCH   5   8
BRANCH   7  19
ATOM     19  C   UNL     1      -2.013  10.938  18.228  0.00  0.00    +0.000 A 
ATOM     20  C   UNL     1      -1.934  10.445  16.919  0.00  0.00    +0.000 A 
ATOM     21  C   UNL     1      -2.997  10.615  16.028  0.00  0.00    +0.000 A 
ATOM     22  C   UNL     1      -4.146  11.286  16.435  0.00  0.00    +0.000 A 
ATOM     23  C   UNL     1      -4.242  11.779  17.737  0.00  0.00    +0.000 A 
ATOM     24  C   UNL     1      -3.184  11.604  18.627  0.00  0.00    +0.000 A 
ENDBRANCH   7  19
BRANCH   1  25
ATOM     25  C   UNL     1       1.736  13.362  18.037  0.00  0.00    +0.000 C 
BRANCH  25  32
ATOM     26  C   UNL     1       2.530  15.732  20.890  0.00  0.00    +0.000 C 
ATOM     27  C   UNL     1       1.906  15.267  19.565  0.00  0.00    +0.000 C 
ATOM     28  C   UNL     1       1.891  16.403  18.528  0.00  0.00    +0.000 C 
ATOM     29  C   UNL     1       3.284  16.712  17.984  0.00  0.00    +0.000 C 
ATOM     30  C   UNL     1       3.992  15.445  17.516  0.00  0.00    +0.000 C 
ATOM     31  C   UNL     1       3.933  14.333  18.566  0.00  0.00    +0.000 C 
ATOM     32  N   UNL     1       2.575  14.049  19.061  0.00  0.00    +0.000 NA
ENDBRANCH  25  32
ENDBRANCH   1  25
TORSDOF 4
ENDMDL
MODEL 5
REMARK VINA RESULT:      -8.5      3.391      7.096
REMARK  Name = 
REMARK  5 active torsions:
REMARK  status: ('A' for Active; 'I' for Inactive)
REMARK    1  A    between atoms: C_1  and  C_2
REMARK    2  A    between atoms: N_7  and  C_8
REMARK    3  A    between atoms: C_8  and  C_9
REMARK    4  A    between atoms: C_13  and  C_14
REMARK    5  A    between atoms: C_26  and  C_27
REMARK                            x       y       z     vdW  Elec       q    Type
REMARK                         _______ _______ _______ _____ _____    ______ ____
ROOT
ATOM      1  C   UNL     1       0.178  12.942  18.763  0.00  0.00    +0.000 C 
ATOM      2  O   UNL     1      -0.776  13.672  19.046  0.00  0.00    +0.000 OA
ATOM      3  N   UNL     1       0.128  11.561  18.858  0.00  0.00    +0.000 N 
ATOM      4  N   UNL     1       1.253  10.790  18.781  0.00  0.00    +0.000 NA
ATOM      5  C   UNL     1       0.896   9.554  18.955  0.00  0.00    +0.000 C 
ATOM      6  C   UNL     1      -0.582   9.355  19.187  0.00  0.00    +0.000 C 
ATOM      7  C   UNL     1      -1.078  10.800  19.172  0.00  0.00    +0.000 C 
ENDROOT
BRANCH   5   8
ATOM      8  C   UNL     1       1.856   8.415  18.926  0.00  0.00    +0.000 A 
ATOM      9  C   UNL     1       2.602   8.291  17.813  0.00  0.00    +0.000 A 
ATOM     10  C   UNL     1       3.571   7.218  17.685  0.00  0.00    +0.000 A 
ATOM     11  C   UNL     1       4.365   7.060  16.546  0.00  0.00    +0.000 A 
ATOM     12  C   UNL     1       5.290   6.014  16.480  0.00  0.00    +0.000 A 
ATOM     13  C   UNL     1       5.423   5.122  17.547  0.00  0.00    +0.000 A 
ATOM     14  C   UNL     1       4.631   5.273  18.683  0.00  0.00    +0.000 A 
ATOM     15  C   UNL     1       3.715   6.320  18.735  0.00  0.00    +0.000 A 
ATOM     16  O   UNL     1       2.935   6.440  19.896  0.00  0.00    +0.000 OA
ATOM     17  C   UNL     1       2.002   7.459  20.045  0.00  0.00    +0.000 A 
ATOM     18  O   UNL     1       1.336   7.546  21.071  0.00  0.00    +0.000 OA
ENDBRANCH   5   8
BRANCH   7  19
ATOM     19  C   UNL     1      -2.190  11.009  18.161  0.00  0.00    +0.000 A 
ATOM     20  C   UNL     1      -3.405  11.582  18.559  0.00  0.00    +0.000 A 
ATOM     21  C   UNL     1      -4.432  11.788  17.635  0.00  0.00    +0.000 A 
ATOM     22  C   UNL     1      -4.256  11.417  16.305  0.00  0.00    +0.000 A 
ATOM     23  C   UNL     1      -3.051  10.849  15.892  0.00  0.00    +0.000 A 
ATOM     24  C   UNL     1      -2.024  10.649  16.813  0.00  0.00    +0.000 A 
ENDBRANCH   7  19
BRANCH   1  25
ATOM     25  C   UNL     1       1.501  13.528  18.250  0.00  0.00    +0.000 C 
BRANCH  25  32
ATOM     26  C   UNL     1       2.117  16.800  20.065  0.00  0.00    +0.000 C 
ATOM     27  C   UNL     1       1.880  15.865  18.869  0.00  0.00    +0.000 C 
ATOM     28  C   UNL     1       2.711  16.300  17.650  0.00  0.00    +0.000 C 
ATOM     29  C   UNL     1       4.199  16.009  17.827  0.00  0.00    +0.000 C 
ATOM     30  C   UNL     1       4.436  14.568  18.265  0.00  0.00    +0.000 C 
ATOM     31  C   UNL     1       3.549  14.174  19.448  0.00  0.00    +0.000 C 
ATOM     32  N   UNL     1       2.118  14.454  19.242  0.00  0.00    +0.000 NA
ENDBRANCH  25  32
ENDBRANCH   1  25
TORSDOF 4
ENDMDL
MODEL 6
REMARK VINA RESULT:      -8.3      3.910      7.791
REMARK  Name = 
REMARK  5 active torsions:
REMARK  status: ('A' for Active; 'I' for Inactive)
REMARK    1  A    between atoms: C_1  and  C_2
REMARK    2  A    between atoms: N_7  and  C_8
REMARK    3  A    between atoms: C_8  and  C_9
REMARK    4  A    between atoms: C_13  and  C_14
REMARK    5  A    between atoms: C_26  and  C_27
REMARK                            x       y       z     vdW  Elec       q    Type
REMARK                         _______ _______ _______ _____ _____    ______ ____
ROOT
ATOM      1  C   UNL     1       0.834  13.591  20.778  0.00  0.00    +0.000 C 
ATOM      2  O   UNL     1       0.415  14.383  21.628  0.00  0.00    +0.000 OA
ATOM      3  N   UNL     1       0.630  12.224  20.851  0.00  0.00    +0.000 N 
ATOM      4  N   UNL     1       1.301  11.349  20.047  0.00  0.00    +0.000 NA
ATOM      5  C   UNL     1       0.940  10.148  20.382  0.00  0.00    +0.000 C 
ATOM      6  C   UNL     1      -0.060  10.086  21.512  0.00  0.00    +0.000 C 
ATOM      7  C   UNL     1      -0.206  11.568  21.854  0.00  0.00    +0.000 C 
ENDROOT
BRANCH   5   8
ATOM      8  C   UNL     1       1.458   8.922  19.713  0.00  0.00    +0.000 A 
ATOM      9  C   UNL     1       1.554   7.819  20.479  0.00  0.00    +0.000 A 
ATOM     10  C   UNL     1       2.042   6.570  19.923  0.00  0.00    +0.000 A 
ATOM     11  C   UNL     1       2.152   5.405  20.686  0.00  0.00    +0.000 A 
ATOM     12  C   UNL     1       2.620   4.226  20.097  0.00  0.00    +0.000 A 
ATOM     13  C   UNL     1       2.982   4.208  18.748  0.00  0.00    +0.000 A 
ATOM     14  C   UNL     1       2.878   5.368  17.984  0.00  0.00    +0.000 A 
ATOM     15  C   UNL     1       2.409   6.533  18.584  0.00  0.00    +0.000 A 
ATOM     16  O   UNL     1       2.318   7.682  17.781  0.00  0.00    +0.000 OA
ATOM     17  C   UNL     1       1.852   8.890  18.287  0.00  0.00    +0.000 A 
ATOM     18  O   UNL     1       1.777   9.878  17.566  0.00  0.00    +0.000 OA
ENDBRANCH   5   8
BRANCH   7  19
ATOM     19  C   UNL     1      -1.652  12.022  21.809  0.00  0.00    +0.000 A 
ATOM     20  C   UNL     1      -2.370  12.206  22.998  0.00  0.00    +0.000 A 
ATOM     21  C   UNL     1      -3.700  12.634  22.968  0.00  0.00    +0.000 A 
ATOM     22  C   UNL     1      -4.327  12.875  21.749  0.00  0.00    +0.000 A 
ATOM     23  C   UNL     1      -3.624  12.700  20.556  0.00  0.00    +0.000 A 
ATOM     24  C   UNL     1      -2.295  12.280  20.586  0.00  0.00    +0.000 A 
ENDBRANCH   7  19
BRANCH   1  25
ATOM     25  C   UNL     1       1.601  14.086  19.544  0.00  0.00    +0.000 C 
BRANCH  25  32
ATOM     26  C   UNL     1       2.779  17.589  20.399  0.00  0.00    +0.000 C 
ATOM     27  C   UNL     1       1.985  16.501  19.659  0.00  0.00    +0.000 C 
ATOM     28  C   UNL     1       1.849  16.832  18.163  0.00  0.00    +0.000 C 
ATOM     29  C   UNL     1       3.164  16.657  17.407  0.00  0.00    +0.000 C 
ATOM     30  C   UNL     1       3.793  15.297  17.692  0.00  0.00    +0.000 C 
ATOM     31  C   UNL     1       3.858  14.998  19.192  0.00  0.00    +0.000 C 
ATOM     32  N   UNL     1       2.572  15.163  19.891  0.00  0.00    +0.000 NA
ENDBRANCH  25  32
ENDBRANCH   1  25
TORSDOF 4
ENDMDL
MODEL 7
REMARK VINA RESULT:      -8.2      4.930     10.727
REMARK  Name = 
REMARK  5 active torsions:
REMARK  status: ('A' for Active; 'I' for Inactive)
REMARK    1  A    between atoms: C_1  and  C_2
REMARK    2  A    between atoms: N_7  and  C_8
REMARK    3  A    between atoms: C_8  and  C_9
REMARK    4  A    between atoms: C_13  and  C_14
REMARK    5  A    between atoms: C_26  and  C_27
REMARK                            x       y       z     vdW  Elec       q    Type
REMARK                         _______ _______ _______ _____ _____    ______ ____
ROOT
ATOM      1  C   UNL     1       2.084  12.435  18.935  0.00  0.00    +0.000 C 
ATOM      2  O   UNL     1       2.683  12.042  17.929  0.00  0.00    +0.000 OA
ATOM      3  N   UNL     1       0.882  11.895  19.360  0.00  0.00    +0.000 N 
ATOM      4  N   UNL     1       0.119  12.495  20.319  0.00  0.00    +0.000 NA
ATOM      5  C   UNL     1      -0.961  11.789  20.463  0.00  0.00    +0.000 C 
ATOM      6  C   UNL     1      -1.044  10.579  19.564  0.00  0.00    +0.000 C 
ATOM      7  C   UNL     1       0.247  10.724  18.759  0.00  0.00    +0.000 C 
ENDROOT
BRANCH   5   8
ATOM      8  C   UNL     1      -2.036  12.129  21.436  0.00  0.00    +0.000 A 
ATOM      9  C   UNL     1      -3.114  12.762  20.937  0.00  0.00    +0.000 A 
ATOM     10  C   UNL     1      -4.221  13.134  21.799  0.00  0.00    +0.000 A 
ATOM     11  C   UNL     1      -5.357  13.788  21.316  0.00  0.00    +0.000 A 
ATOM     12  C   UNL     1      -6.399  14.115  22.190  0.00  0.00    +0.000 A 
ATOM     13  C   UNL     1      -6.308  13.794  23.546  0.00  0.00    +0.000 A 
ATOM     14  C   UNL     1      -5.176  13.145  24.033  0.00  0.00    +0.000 A 
ATOM     15  C   UNL     1      -4.148  12.825  23.151  0.00  0.00    +0.000 A 
ATOM     16  O   UNL     1      -3.023  12.171  23.680  0.00  0.00    +0.000 OA
ATOM     17  C   UNL     1      -1.950  11.802  22.876  0.00  0.00    +0.000 A 
ATOM     18  O   UNL     1      -0.981  11.227  23.359  0.00  0.00    +0.000 OA
ENDBRANCH   5   8
BRANCH   7  19
ATOM     19  C   UNL     1       1.108   9.478  18.836  0.00  0.00    +0.000 A 
ATOM     20  C   UNL     1       1.230   8.780  20.044  0.00  0.00    +0.000 A 
ATOM     21  C   UNL     1       2.012   7.625  20.124  0.00  0.00    +0.000 A 
ATOM     22  C   UNL     1       2.686   7.162  18.998  0.00  0.00    +0.000 A 
ATOM     23  C   UNL     1       2.572   7.844  17.786  0.00  0.00    +0.000 A 
ATOM     24  C   UNL     1       1.786   8.992  17.705  0.00  0.00    +0.000 A 
ENDBRANCH   7  19
BRANCH   1  25
ATOM     25  C   UNL     1       2.661  13.552  19.815  0.00  0.00    +0.000 C 
BRANCH  25  32
ATOM     26  C   UNL     1       3.201  16.457  17.436  0.00  0.00    +0.000 C 
ATOM     27  C   UNL     1       3.586  15.308  18.383  0.00  0.00    +0.000 C 
ATOM     28  C   UNL     1       4.823  15.670  19.222  0.00  0.00    +0.000 C 
ATOM     29  C   UNL     1       4.513  16.708  20.298  0.00  0.00    +0.000 C 
ATOM     30  C   UNL     1       3.293  16.309  21.121  0.00  0.00    +0.000 C 
ATOM     31  C   UNL     1       2.109  15.911  20.236  0.00  0.00    +0.000 C 
ATOM     32  N   UNL     1       2.436  14.900  19.217  0.00  0.00    +0.000 NA
ENDBRANCH  25  32
ENDBRANCH   1  25
TORSDOF 4
ENDMDL
MODEL 8
REMARK VINA RESULT:      -8.2      3.821      7.636
REMARK  Name = 
REMARK  5 active torsions:
REMARK  status: ('A' for Active; 'I' for Inactive)
REMARK    1  A    between atoms: C_1  and  C_2
REMARK    2  A    between atoms: N_7  and  C_8
REMARK    3  A    between atoms: C_8  and  C_9
REMARK    4  A    between atoms: C_13  and  C_14
REMARK    5  A    between atoms: C_26  and  C_27
REMARK                            x       y       z     vdW  Elec       q    Type
REMARK                         _______ _______ _______ _____ _____    ______ ____
ROOT
ATOM      1  C   UNL     1       1.191  13.232  21.102  0.00  0.00    +0.000 C 
ATOM      2  O   UNL     1       0.703  13.997  21.939  0.00  0.00    +0.000 OA
ATOM      3  N   UNL     1       0.846  11.895  21.006  0.00  0.00    +0.000 N 
ATOM      4  N   UNL     1       1.565  11.015  20.249  0.00  0.00    +0.000 NA
ATOM      5  C   UNL     1       1.034   9.840  20.399  0.00  0.00    +0.000 C 
ATOM      6  C   UNL     1      -0.156   9.803  21.328  0.00  0.00    +0.000 C 
ATOM      7  C   UNL     1      -0.218  11.261  21.781  0.00  0.00    +0.000 C 
ENDROOT
BRANCH   5   8
ATOM      8  C   UNL     1       1.544   8.619  19.714  0.00  0.00    +0.000 A 
ATOM      9  C   UNL     1       1.630   7.506  20.465  0.00  0.00    +0.000 A 
ATOM     10  C   UNL     1       2.110   6.261  19.893  0.00  0.00    +0.000 A 
ATOM     11  C   UNL     1       2.210   5.085  20.640  0.00  0.00    +0.000 A 
ATOM     12  C   UNL     1       2.670   3.911  20.036  0.00  0.00    +0.000 A 
ATOM     13  C   UNL     1       3.034   3.908  18.688  0.00  0.00    +0.000 A 
ATOM     14  C   UNL     1       2.939   5.079  17.939  0.00  0.00    +0.000 A 
ATOM     15  C   UNL     1       2.478   6.240  18.554  0.00  0.00    +0.000 A 
ATOM     16  O   UNL     1       2.397   7.400  17.767  0.00  0.00    +0.000 OA
ATOM     17  C   UNL     1       1.939   8.604  18.289  0.00  0.00    +0.000 A 
ATOM     18  O   UNL     1       1.872   9.602  17.581  0.00  0.00    +0.000 OA
ENDBRANCH   5   8
BRANCH   7  19
ATOM     19  C   UNL     1      -1.581  11.878  21.531  0.00  0.00    +0.000 A 
ATOM     20  C   UNL     1      -2.036  12.071  20.220  0.00  0.00    +0.000 A 
ATOM     21  C   UNL     1      -3.294  12.629  19.978  0.00  0.00    +0.000 A 
ATOM     22  C   UNL     1      -4.106  13.005  21.044  0.00  0.00    +0.000 A 
ATOM     23  C   UNL     1      -3.668  12.815  22.355  0.00  0.00    +0.000 A 
ATOM     24  C   UNL     1      -2.416  12.253  22.597  0.00  0.00    +0.000 A 
ENDBRANCH   7  19
BRANCH   1  25
ATOM     25  C   UNL     1       2.215  13.732  20.073  0.00  0.00    +0.000 C 
BRANCH  25  32
ATOM     26  C   UNL     1       1.619  17.149  18.538  0.00  0.00    +0.000 C 
ATOM     27  C   UNL     1       2.035  15.670  18.589  0.00  0.00    +0.000 C 
ATOM     28  C   UNL     1       3.270  15.409  17.710  0.00  0.00    +0.000 C 
ATOM     29  C   UNL     1       4.547  15.987  18.315  0.00  0.00    +0.000 C 
ATOM     30  C   UNL     1       4.714  15.566  19.771  0.00  0.00    +0.000 C 
ATOM     31  C   UNL     1       3.441  15.801  20.586  0.00  0.00    +0.000 C 
ATOM     32  N   UNL     1       2.229  15.221  19.984  0.00  0.00    +0.000 NA
ENDBRANCH  25  32
ENDBRANCH   1  25
TORSDOF 4
ENDMDL
MODEL 9
REMARK VINA RESULT:      -8.2      5.322      9.664
REMARK  Name = 
REMARK  5 active torsions:
REMARK  status: ('A' for Active; 'I' for Inactive)
REMARK    1  A    between atoms: C_1  and  C_2
REMARK    2  A    between atoms: N_7  and  C_8
REMARK    3  A    between atoms: C_8  and  C_9
REMARK    4  A    between atoms: C_13  and  C_14
REMARK    5  A    between atoms: C_26  and  C_27
REMARK                            x       y       z     vdW  Elec       q    Type
REMARK                         _______ _______ _______ _____ _____    ______ ____
ROOT
ATOM      1  C   UNL     1      -0.399  15.341  22.780  0.00  0.00    +0.000 C 
ATOM      2  O   UNL     1      -1.051  16.113  23.488  0.00  0.00    +0.000 OA
ATOM      3  N   UNL     1      -0.704  13.997  22.644  0.00  0.00    +0.000 N 
ATOM      4  N   UNL     1       0.161  13.115  22.062  0.00  0.00    +0.000 NA
ATOM      5  C   UNL     1      -0.377  11.935  22.127  0.00  0.00    +0.000 C 
ATOM      6  C   UNL     1      -1.727  11.897  22.802  0.00  0.00    +0.000 C 
ATOM      7  C   UNL     1      -1.893  13.362  23.205  0.00  0.00    +0.000 C 
ENDROOT
BRANCH   5   8
ATOM      8  C   UNL     1       0.273  10.710  21.582  0.00  0.00    +0.000 A 
ATOM      9  C   UNL     1       0.503  10.697  20.256  0.00  0.00    +0.000 A 
ATOM     10  C   UNL     1       1.135   9.553  19.624  0.00  0.00    +0.000 A 
ATOM     11  C   UNL     1       1.393   9.506  18.252  0.00  0.00    +0.000 A 
ATOM     12  C   UNL     1       2.014   8.382  17.697  0.00  0.00    +0.000 A 
ATOM     13  C   UNL     1       2.375   7.304  18.508  0.00  0.00    +0.000 A 
ATOM     14  C   UNL     1       2.117   7.345  19.876  0.00  0.00    +0.000 A 
ATOM     15  C   UNL     1       1.500   8.471  20.415  0.00  0.00    +0.000 A 
ATOM     16  O   UNL     1       1.255   8.475  21.797  0.00  0.00    +0.000 OA
ATOM     17  C   UNL     1       0.654   9.558  22.428  0.00  0.00    +0.000 A 
ATOM     18  O   UNL     1       0.455   9.541  23.637  0.00  0.00    +0.000 OA
ENDBRANCH   5   8
BRANCH   7  19
ATOM     19  C   UNL     1      -3.186  13.954  22.677  0.00  0.00    +0.000 A 
ATOM     20  C   UNL     1      -3.421  14.013  21.297  0.00  0.00    +0.000 A 
ATOM     21  C   UNL     1      -4.613  14.547  20.800  0.00  0.00    +0.000 A 
ATOM     22  C   UNL     1      -5.577  15.033  21.677  0.00  0.00    +0.000 A 
ATOM     23  C   UNL     1      -5.359  14.978  23.054  0.00  0.00    +0.000 A 
ATOM     24  C   UNL     1      -4.173  14.439  23.550  0.00  0.00    +0.000 A 
ENDBRANCH   7  19
BRANCH   1  25
ATOM     25  C   UNL     1       0.803  15.838  21.964  0.00  0.00    +0.000 C 
BRANCH  25  32
ATOM     26  C   UNL     1      -1.054  17.083  18.900  0.00  0.00    +0.000 C 
ATOM     27  C   UNL     1      -0.254  16.102  19.773  0.00  0.00    +0.000 C 
ATOM     28  C   UNL     1       0.749  15.297  18.929  0.00  0.00    +0.000 C 
ATOM     29  C   UNL     1       1.930  16.145  18.464  0.00  0.00    +0.000 C 
ATOM     30  C   UNL     1       2.559  16.908  19.625  0.00  0.00    +0.000 C 
ATOM     31  C   UNL     1       1.511  17.649  20.459  0.00  0.00    +0.000 C 
ATOM     32  N   UNL     1       0.392  16.802  20.904  0.00  0.00    +0.000 NA
ENDBRANCH  25  32
ENDBRANCH   1  25
TORSDOF 4
ENDMDL
