MODEL 1
REMARK VINA RESULT:      -8.1      0.000      0.000
REMARK  Name = 
REMARK  4 active torsions:
REMARK  status: ('A' for Active; 'I' for Inactive)
REMARK    1  A    between atoms: C_2  and  C_7
REMARK    2  A    between atoms: N_3  and  C_4
REMARK    3  A    between atoms: N_9  and  C_10
REMARK    4  A    between atoms: C_10  and  C_11
REMARK                            x       y       z     vdW  Elec       q    Type
REMARK                         _______ _______ _______ _____ _____    ______ ____
ROOT
ATOM      1  C   UNL     1       6.441   4.797  15.708  0.00  0.00    +0.000 C 
ATOM      2  C   UNL     1       6.009   6.253  15.978  0.00  0.00    +0.000 C 
ATOM      3  N   UNL     1       5.678   6.520  17.399  0.00  0.00    +0.000 NA
ATOM      4  C   UNL     1       6.857   6.138  18.212  0.00  0.00    +0.000 C 
ATOM      5  C   UNL     1       7.434   4.725  17.915  0.00  0.00    +0.000 C 
ATOM      6  N   UNL     1       7.668   4.432  16.482  0.00  0.00    +0.000 NA
ATOM      7  H   UNL     1       7.812   3.424  16.389  0.00  0.00    +0.000 HD
ENDROOT
BRANCH   1   9
ATOM      8  O   UNL     1       7.454   5.209  13.561  0.00  0.00    +0.000 OA
ATOM      9  C   UNL     1       6.599   4.598  14.198  0.00  0.00    +0.000 C 
ATOM     10  N   UNL     1       5.704   3.732  13.601  0.00  0.00    +0.000 N 
ATOM     11  H   UNL     1       5.144   3.152  14.217  0.00  0.00    +0.000 HD
BRANCH  10  12
ATOM     12  C   UNL     1       5.724   3.509  12.190  0.00  0.00    +0.000 C 
ATOM     13  C   UNL     1       5.606   2.142  11.583  0.00  0.00    +0.000 C 
ATOM     14  C   UNL     1       4.457   3.104  11.482  0.00  0.00    +0.000 C 
ENDBRANCH  10  12
ENDBRANCH   1   9
BRANCH   3  15
ATOM     15  C   UNL     1       4.471   5.802  17.856  0.00  0.00    +0.000 C 
BRANCH  15  16
ATOM     16  C   UNL     1       3.419   6.681  18.504  0.00  0.00    +0.000 A 
ATOM     17  C   UNL     1       2.872   6.351  19.752  0.00  0.00    +0.000 A 
ATOM     18  C   UNL     1       1.908   7.172  20.348  0.00  0.00    +0.000 A 
ATOM     19  C   UNL     1       1.490   8.336  19.706  0.00  0.00    +0.000 A 
ATOM     20  C   UNL     1       2.048   8.689  18.474  0.00  0.00    +0.000 A 
ATOM     21  C   UNL     1       2.988   7.857  17.865  0.00  0.00    +0.000 A 
ATOM     22  O   UNL     1       1.721   9.842  17.806  0.00  0.00    +0.000 OA
ATOM     23  C   UNL     1       1.123  10.788  18.701  0.00  0.00    +0.000 C 
ATOM     24  C   UNL     1       0.018  10.122  19.503  0.00  0.00    +0.000 C 
ATOM     25  O   UNL     1       0.544   9.093  20.349  0.00  0.00    +0.000 OA
ENDBRANCH  15  16
ENDBRANCH   3  15
TORSDOF 4
ENDMDL
MODEL 2
REMARK VINA RESULT:      -8.0      1.159      1.862
REMARK  Name = 
REMARK  4 active torsions:
REMARK  status: ('A' for Active; 'I' for Inactive)
REMARK    1  A    between atoms: C_2  and  C_7
REMARK    2  A    between atoms: N_3  and  C_4
REMARK    3  A    between atoms: N_9  and  C_10
REMARK    4  A    between atoms: C_10  and  C_11
REMARK                            x       y       z     vdW  Elec       q    Type
REMARK                         _______ _______ _______ _____ _____    ______ ____
ROOT
ATOM      1  C   UNL     1       5.540   4.781  15.980  0.00  0.00    +0.000 C 
ATOM      2  C   UNL     1       5.555   6.275  16.364  0.00  0.00    +0.000 C 
ATOM      3  N   UNL     1       4.961   6.551  17.694  0.00  0.00    +0.000 NA
ATOM      4  C   UNL     1       5.685   5.723  18.688  0.00  0.00    +0.000 C 
ATOM      5  C   UNL     1       5.823   4.219  18.318  0.00  0.00    +0.000 C 
ATOM      6  N   UNL     1       6.323   3.953  16.949  0.00  0.00    +0.000 NA
ATOM      7  H   UNL     1       6.148   2.969  16.738  0.00  0.00    +0.000 HD
ENDROOT
BRANCH   1   9
ATOM      8  O   UNL     1       6.967   5.297  14.108  0.00  0.00    +0.000 OA
ATOM      9  C   UNL     1       6.024   4.635  14.534  0.00  0.00    +0.000 C 
ATOM     10  N   UNL     1       5.313   3.756  13.740  0.00  0.00    +0.000 N 
ATOM     11  H   UNL     1       4.660   3.137  14.209  0.00  0.00    +0.000 HD
BRANCH  10  12
ATOM     12  C   UNL     1       5.641   3.578  12.361  0.00  0.00    +0.000 C 
ATOM     13  C   UNL     1       5.625   2.236  11.690  0.00  0.00    +0.000 C 
ATOM     14  C   UNL     1       4.554   3.241  11.375  0.00  0.00    +0.000 C 
ENDBRANCH  10  12
ENDBRANCH   1   9
BRANCH   3  15
ATOM     15  C   UNL     1       3.509   6.284  17.746  0.00  0.00    +0.000 C 
BRANCH  15  16
ATOM     16  C   UNL     1       2.683   7.395  18.363  0.00  0.00    +0.000 A 
ATOM     17  C   UNL     1       2.331   8.531  17.619  0.00  0.00    +0.000 A 
ATOM     18  C   UNL     1       1.561   9.549  18.192  0.00  0.00    +0.000 A 
ATOM     19  C   UNL     1       1.128   9.436  19.512  0.00  0.00    +0.000 A 
ATOM     20  C   UNL     1       1.450   8.297  20.254  0.00  0.00    +0.000 A 
ATOM     21  C   UNL     1       2.240   7.295  19.694  0.00  0.00    +0.000 A 
ATOM     22  O   UNL     1       1.018   8.094  21.541  0.00  0.00    +0.000 OA
ATOM     23  C   UNL     1      -0.107   8.933  21.831  0.00  0.00    +0.000 C 
ATOM     24  C   UNL     1       0.190  10.366  21.425  0.00  0.00    +0.000 C 
ATOM     25  O   UNL     1       0.376  10.471  20.007  0.00  0.00    +0.000 OA
ENDBRANCH  15  16
ENDBRANCH   3  15
TORSDOF 4
ENDMDL
MODEL 3
REMARK VINA RESULT:      -7.9      2.675      8.152
REMARK  Name = 
REMARK  4 active torsions:
REMARK  status: ('A' for Active; 'I' for Inactive)
REMARK    1  A    between atoms: C_2  and  C_7
REMARK    2  A    between atoms: N_3  and  C_4
REMARK    3  A    between atoms: N_9  and  C_10
REMARK    4  A    between atoms: C_10  and  C_11
REMARK                            x       y       z     vdW  Elec       q    Type
REMARK                         _______ _______ _______ _____ _____    ______ ____
ROOT
ATOM      1  C   UNL     1       2.216   5.629  19.909  0.00  0.00    +0.000 C 
ATOM      2  C   UNL     1       2.232   5.264  18.410  0.00  0.00    +0.000 C 
ATOM      3  N   UNL     1       2.611   3.854  18.147  0.00  0.00    +0.000 NA
ATOM      4  C   UNL     1       1.680   2.991  18.912  0.00  0.00    +0.000 C 
ATOM      5  C   UNL     1       1.511   3.369  20.411  0.00  0.00    +0.000 C 
ATOM      6  N   UNL     1       1.231   4.800  20.670  0.00  0.00    +0.000 NA
ATOM      7  H   UNL     1       1.377   4.972  21.667  0.00  0.00    +0.000 HD
ENDROOT
BRANCH   1   9
ATOM      8  O   UNL     1       2.264   7.914  19.146  0.00  0.00    +0.000 OA
ATOM      9  C   UNL     1       1.973   7.135  20.050  0.00  0.00    +0.000 C 
ATOM     10  N   UNL     1       1.455   7.558  21.258  0.00  0.00    +0.000 N 
ATOM     11  H   UNL     1       1.096   6.841  21.881  0.00  0.00    +0.000 HD
BRANCH  10  12
ATOM     12  C   UNL     1       1.236   8.945  21.522  0.00  0.00    +0.000 C 
ATOM     13  C   UNL     1      -0.060   9.635  21.212  0.00  0.00    +0.000 C 
ATOM     14  C   UNL     1       0.312   9.353  22.640  0.00  0.00    +0.000 C 
ENDBRANCH  10  12
ENDBRANCH   1   9
BRANCH   3  15
ATOM     15  C   UNL     1       4.014   3.557  18.502  0.00  0.00    +0.000 C 
BRANCH  15  16
ATOM     16  C   UNL     1       5.034   4.004  17.474  0.00  0.00    +0.000 A 
ATOM     17  C   UNL     1       6.250   4.583  17.868  0.00  0.00    +0.000 A 
ATOM     18  C   UNL     1       7.190   4.986  16.914  0.00  0.00    +0.000 A 
ATOM     19  C   UNL     1       6.929   4.804  15.557  0.00  0.00    +0.000 A 
ATOM     20  C   UNL     1       5.733   4.204  15.154  0.00  0.00    +0.000 A 
ATOM     21  C   UNL     1       4.782   3.828  16.102  0.00  0.00    +0.000 A 
ATOM     22  O   UNL     1       5.428   3.949  13.840  0.00  0.00    +0.000 OA
ATOM     23  C   UNL     1       6.615   3.958  13.039  0.00  0.00    +0.000 C 
ATOM     24  C   UNL     1       7.429   5.209  13.324  0.00  0.00    +0.000 C 
ATOM     25  O   UNL     1       7.897   5.220  14.679  0.00  0.00    +0.000 OA
ENDBRANCH  15  16
ENDBRANCH   3  15
TORSDOF 4
ENDMDL
MODEL 4
REMARK VINA RESULT:      -7.5      2.389      7.765
REMARK  Name = 
REMARK  4 active torsions:
REMARK  status: ('A' for Active; 'I' for Inactive)
REMARK    1  A    between atoms: C_2  and  C_7
REMARK    2  A    between atoms: N_3  and  C_4
REMARK    3  A    between atoms: N_9  and  C_10
REMARK    4  A    between atoms: C_10  and  C_11
REMARK                            x       y       z     vdW  Elec       q    Type
REMARK                         _______ _______ _______ _____ _____    ______ ____
ROOT
ATOM      1  C   UNL     1       2.576   6.372  19.605  0.00  0.00    +0.000 C 
ATOM      2  C   UNL     1       2.494   5.361  18.443  0.00  0.00    +0.000 C 
ATOM      3  N   UNL     1       2.950   3.998  18.809  0.00  0.00    +0.000 NA
ATOM      4  C   UNL     1       2.150   3.558  19.977  0.00  0.00    +0.000 C 
ATOM      5  C   UNL     1       2.080   4.577  21.150  0.00  0.00    +0.000 C 
ATOM      6  N   UNL     1       1.720   5.959  20.759  0.00  0.00    +0.000 NA
ATOM      7  H   UNL     1       1.936   6.573  21.548  0.00  0.00    +0.000 HD
ENDROOT
BRANCH   1   9
ATOM      8  O   UNL     1       2.715   8.180  18.017  0.00  0.00    +0.000 OA
ATOM      9  C   UNL     1       2.238   7.769  19.073  0.00  0.00    +0.000 C 
ATOM     10  N   UNL     1       1.410   8.539  19.865  0.00  0.00    +0.000 N 
ATOM     11  H   UNL     1       0.937   8.068  20.630  0.00  0.00    +0.000 HD
BRANCH  10  12
ATOM     12  C   UNL     1       1.069   9.876  19.495  0.00  0.00    +0.000 C 
ATOM     13  C   UNL     1      -0.346  10.319  19.267  0.00  0.00    +0.000 C 
ATOM     14  C   UNL     1       0.390  10.775  20.495  0.00  0.00    +0.000 C 
ENDBRANCH  10  12
ENDBRANCH   1   9
BRANCH   3  15
ATOM     15  C   UNL     1       4.395   3.933  19.107  0.00  0.00    +0.000 C 
BRANCH  15  16
ATOM     16  C   UNL     1       5.298   4.281  17.940  0.00  0.00    +0.000 A 
ATOM     17  C   UNL     1       6.553   4.873  18.150  0.00  0.00    +0.000 A 
ATOM     18  C   UNL     1       7.384   5.183  17.069  0.00  0.00    +0.000 A 
ATOM     19  C   UNL     1       6.974   4.896  15.768  0.00  0.00    +0.000 A 
ATOM     20  C   UNL     1       5.738   4.282  15.550  0.00  0.00    +0.000 A 
ATOM     21  C   UNL     1       4.895   3.998  16.624  0.00  0.00    +0.000 A 
ATOM     22  O   UNL     1       5.288   3.927  14.303  0.00  0.00    +0.000 OA
ATOM     23  C   UNL     1       6.380   3.854  13.378  0.00  0.00    +0.000 C 
ATOM     24  C   UNL     1       7.227   5.112  13.468  0.00  0.00    +0.000 C 
ATOM     25  O   UNL     1       7.841   5.226  14.758  0.00  0.00    +0.000 OA
ENDBRANCH  15  16
ENDBRANCH   3  15
TORSDOF 4
ENDMDL
MODEL 5
REMARK VINA RESULT:      -7.5      2.500      7.643
REMARK  Name = 
REMARK  4 active torsions:
REMARK  status: ('A' for Active; 'I' for Inactive)
REMARK    1  A    between atoms: C_2  and  C_7
REMARK    2  A    between atoms: N_3  and  C_4
REMARK    3  A    between atoms: N_9  and  C_10
REMARK    4  A    between atoms: C_10  and  C_11
REMARK                            x       y       z     vdW  Elec       q    Type
REMARK                         _______ _______ _______ _____ _____    ______ ____
ROOT
ATOM      1  C   UNL     1       2.191   5.502  20.048  0.00  0.00    +0.000 C 
ATOM      2  C   UNL     1       2.242   5.111  18.556  0.00  0.00    +0.000 C 
ATOM      3  N   UNL     1       2.751   3.738  18.320  0.00  0.00    +0.000 NA
ATOM      4  C   UNL     1       1.904   2.806  19.102  0.00  0.00    +0.000 C 
ATOM      5  C   UNL     1       1.700   3.195  20.594  0.00  0.00    +0.000 C 
ATOM      6  N   UNL     1       1.287   4.598  20.825  0.00  0.00    +0.000 NA
ATOM      7  H   UNL     1       1.416   4.802  21.819  0.00  0.00    +0.000 HD
ENDROOT
BRANCH   1   9
ATOM      8  O   UNL     1       1.276   7.425  21.175  0.00  0.00    +0.000 OA
ATOM      9  C   UNL     1       1.808   6.981  20.160  0.00  0.00    +0.000 C 
ATOM     10  N   UNL     1       2.057   7.761  19.049  0.00  0.00    +0.000 N 
ATOM     11  H   UNL     1       2.641   7.356  18.324  0.00  0.00    +0.000 HD
BRANCH  10  12
ATOM     12  C   UNL     1       1.695   9.142  19.021  0.00  0.00    +0.000 C 
ATOM     13  C   UNL     1       2.023  10.045  17.868  0.00  0.00    +0.000 C 
ATOM     14  C   UNL     1       0.604   9.607  18.092  0.00  0.00    +0.000 C 
ENDBRANCH  10  12
ENDBRANCH   1   9
BRANCH   3  15
ATOM     15  C   UNL     1       4.176   3.580  18.678  0.00  0.00    +0.000 C 
BRANCH  15  16
ATOM     16  C   UNL     1       5.151   4.027  17.607  0.00  0.00    +0.000 A 
ATOM     17  C   UNL     1       6.371   4.629  17.948  0.00  0.00    +0.000 A 
ATOM     18  C   UNL     1       7.269   5.031  16.954  0.00  0.00    +0.000 A 
ATOM     19  C   UNL     1       6.962   4.826  15.610  0.00  0.00    +0.000 A 
ATOM     20  C   UNL     1       5.761   4.201  15.261  0.00  0.00    +0.000 A 
ATOM     21  C   UNL     1       4.851   3.826  16.248  0.00  0.00    +0.000 A 
ATOM     22  O   UNL     1       5.413   3.922  13.963  0.00  0.00    +0.000 OA
ATOM     23  C   UNL     1       6.569   3.937  13.118  0.00  0.00    +0.000 C 
ATOM     24  C   UNL     1       7.374   5.204  13.355  0.00  0.00    +0.000 C 
ATOM     25  O   UNL     1       7.890   5.242  14.691  0.00  0.00    +0.000 OA
ENDBRANCH  15  16
ENDBRANCH   3  15
TORSDOF 4
ENDMDL
MODEL 6
REMARK VINA RESULT:      -7.3      1.555      2.303
REMARK  Name = 
REMARK  4 active torsions:
REMARK  status: ('A' for Active; 'I' for Inactive)
REMARK    1  A    between atoms: C_2  and  C_7
REMARK    2  A    between atoms: N_3  and  C_4
REMARK    3  A    between atoms: N_9  and  C_10
REMARK    4  A    between atoms: C_10  and  C_11
REMARK                            x       y       z     vdW  Elec       q    Type
REMARK                         _______ _______ _______ _____ _____    ______ ____
ROOT
ATOM      1  C   UNL     1       4.780   4.818  16.550  0.00  0.00    +0.000 C 
ATOM      2  C   UNL     1       5.024   6.104  17.365  0.00  0.00    +0.000 C 
ATOM      3  N   UNL     1       4.324   6.120  18.672  0.00  0.00    +0.000 NA
ATOM      4  C   UNL     1       4.743   4.911  19.419  0.00  0.00    +0.000 C 
ATOM      5  C   UNL     1       4.643   3.578  18.625  0.00  0.00    +0.000 C 
ATOM      6  N   UNL     1       5.260   3.602  17.278  0.00  0.00    +0.000 NA
ATOM      7  H   UNL     1       4.932   2.779  16.769  0.00  0.00    +0.000 HD
ENDROOT
BRANCH   1   9
ATOM      8  O   UNL     1       5.779   6.079  14.757  0.00  0.00    +0.000 OA
ATOM      9  C   UNL     1       5.412   4.980  15.164  0.00  0.00    +0.000 C 
ATOM     10  N   UNL     1       5.502   3.835  14.398  0.00  0.00    +0.000 N 
ATOM     11  H   UNL     1       5.327   2.952  14.867  0.00  0.00    +0.000 HD
BRANCH  10  12
ATOM     12  C   UNL     1       6.026   3.876  13.069  0.00  0.00    +0.000 C 
ATOM     13  C   UNL     1       6.321   2.638  12.275  0.00  0.00    +0.000 C 
ATOM     14  C   UNL     1       5.144   3.496  11.909  0.00  0.00    +0.000 C 
ENDBRANCH  10  12
ENDBRANCH   1   9
BRANCH   3  15
ATOM     15  C   UNL     1       2.854   6.173  18.540  0.00  0.00    +0.000 C 
BRANCH  15  16
ATOM     16  C   UNL     1       2.242   7.533  18.813  0.00  0.00    +0.000 A 
ATOM     17  C   UNL     1       2.070   8.466  17.780  0.00  0.00    +0.000 A 
ATOM     18  C   UNL     1       1.497   9.716  18.038  0.00  0.00    +0.000 A 
ATOM     19  C   UNL     1       1.081  10.041  19.327  0.00  0.00    +0.000 A 
ATOM     20  C   UNL     1       1.222   9.108  20.358  0.00  0.00    +0.000 A 
ATOM     21  C   UNL     1       1.819   7.873  20.110  0.00  0.00    +0.000 A 
ATOM     22  O   UNL     1       0.793   9.338  21.641  0.00  0.00    +0.000 OA
ATOM     23  C   UNL     1      -0.167  10.401  21.666  0.00  0.00    +0.000 C 
ATOM     24  C   UNL     1       0.359  11.599  20.893  0.00  0.00    +0.000 C 
ATOM     25  O   UNL     1       0.526  11.282  19.506  0.00  0.00    +0.000 OA
ENDBRANCH  15  16
ENDBRANCH   3  15
TORSDOF 4
ENDMDL
MODEL 7
REMARK VINA RESULT:      -7.0      2.886      4.389
REMARK  Name = 
REMARK  4 active torsions:
REMARK  status: ('A' for Active; 'I' for Inactive)
REMARK    1  A    between atoms: C_2  and  C_7
REMARK    2  A    between atoms: N_3  and  C_4
REMARK    3  A    between atoms: N_9  and  C_10
REMARK    4  A    between atoms: C_10  and  C_11
REMARK                            x       y       z     vdW  Elec       q    Type
REMARK                         _______ _______ _______ _____ _____    ______ ____
ROOT
ATOM      1  C   UNL     1       5.373   5.165  17.631  0.00  0.00    +0.000 C 
ATOM      2  C   UNL     1       4.812   5.583  19.006  0.00  0.00    +0.000 C 
ATOM      3  N   UNL     1       3.435   5.093  19.258  0.00  0.00    +0.000 NA
ATOM      4  C   UNL     1       3.448   3.620  19.095  0.00  0.00    +0.000 C 
ATOM      5  C   UNL     1       4.109   3.107  17.785  0.00  0.00    +0.000 C 
ATOM      6  N   UNL     1       5.444   3.678  17.491  0.00  0.00    +0.000 NA
ATOM      7  H   UNL     1       5.668   3.463  16.517  0.00  0.00    +0.000 HD
ENDROOT
BRANCH   1   9
ATOM      8  O   UNL     1       7.730   5.212  17.131  0.00  0.00    +0.000 OA
ATOM      9  C   UNL     1       6.723   5.856  17.415  0.00  0.00    +0.000 C 
ATOM     10  N   UNL     1       6.744   7.225  17.600  0.00  0.00    +0.000 N 
ATOM     11  H   UNL     1       5.846   7.693  17.673  0.00  0.00    +0.000 HD
BRANCH  10  12
ATOM     12  C   UNL     1       7.958   7.967  17.476  0.00  0.00    +0.000 C 
ATOM     13  C   UNL     1       8.030   9.449  17.704  0.00  0.00    +0.000 C 
ATOM     14  C   UNL     1       8.628   8.509  18.712  0.00  0.00    +0.000 C 
ENDBRANCH  10  12
ENDBRANCH   1   9
BRANCH   3  15
ATOM     15  C   UNL     1       2.430   5.711  18.370  0.00  0.00    +0.000 C 
BRANCH  15  16
ATOM     16  C   UNL     1       2.035   7.125  18.748  0.00  0.00    +0.000 A 
ATOM     17  C   UNL     1       1.948   8.134  17.777  0.00  0.00    +0.000 A 
ATOM     18  C   UNL     1       1.575   9.435  18.133  0.00  0.00    +0.000 A 
ATOM     19  C   UNL     1       1.276   9.737  19.460  0.00  0.00    +0.000 A 
ATOM     20  C   UNL     1       1.333   8.733  20.431  0.00  0.00    +0.000 A 
ATOM     21  C   UNL     1       1.733   7.443  20.083  0.00  0.00    +0.000 A 
ATOM     22  O   UNL     1       1.007   8.944  21.747  0.00  0.00    +0.000 OA
ATOM     23  C   UNL     1       0.213  10.129  21.883  0.00  0.00    +0.000 C 
ATOM     24  C   UNL     1       0.866  11.284  21.145  0.00  0.00    +0.000 C 
ATOM     25  O   UNL     1       0.916  11.031  19.735  0.00  0.00    +0.000 OA
ENDBRANCH  15  16
ENDBRANCH   3  15
TORSDOF 4
ENDMDL
MODEL 8
REMARK VINA RESULT:      -7.0      2.553      4.704
REMARK  Name = 
REMARK  4 active torsions:
REMARK  status: ('A' for Active; 'I' for Inactive)
REMARK    1  A    between atoms: C_2  and  C_7
REMARK    2  A    between atoms: N_3  and  C_4
REMARK    3  A    between atoms: N_9  and  C_10
REMARK    4  A    between atoms: C_10  and  C_11
REMARK                            x       y       z     vdW  Elec       q    Type
REMARK                         _______ _______ _______ _____ _____    ______ ____
ROOT
ATOM      1  C   UNL     1       6.939   6.892  17.271  0.00  0.00    +0.000 C 
ATOM      2  C   UNL     1       6.194   5.961  18.250  0.00  0.00    +0.000 C 
ATOM      3  N   UNL     1       5.123   5.161  17.608  0.00  0.00    +0.000 NA
ATOM      4  C   UNL     1       5.738   4.405  16.492  0.00  0.00    +0.000 C 
ATOM      5  C   UNL     1       6.610   5.252  15.522  0.00  0.00    +0.000 C 
ATOM      6  N   UNL     1       7.612   6.123  16.179  0.00  0.00    +0.000 NA
ATOM      7  H   UNL     1       7.948   6.792  15.483  0.00  0.00    +0.000 HD
ENDROOT
BRANCH   1   9
ATOM      8  O   UNL     1       8.614   7.312  18.952  0.00  0.00    +0.000 OA
ATOM      9  C   UNL     1       7.902   7.780  18.066  0.00  0.00    +0.000 C 
ATOM     10  N   UNL     1       7.887   9.125  17.757  0.00  0.00    +0.000 N 
ATOM     11  H   UNL     1       7.395   9.398  16.912  0.00  0.00    +0.000 HD
BRANCH  10  12
ATOM     12  C   UNL     1       8.706  10.055  18.469  0.00  0.00    +0.000 C 
ATOM     13  C   UNL     1       9.943  10.664  17.879  0.00  0.00    +0.000 C 
ATOM     14  C   UNL     1       8.712  11.505  18.061  0.00  0.00    +0.000 C 
ENDBRANCH  10  12
ENDBRANCH   1   9
BRANCH   3  15
ATOM     15  C   UNL     1       3.996   5.985  17.126  0.00  0.00    +0.000 C 
BRANCH  15  16
ATOM     16  C   UNL     1       3.142   6.592  18.221  0.00  0.00    +0.000 A 
ATOM     17  C   UNL     1       2.923   5.910  19.427  0.00  0.00    +0.000 A 
ATOM     18  C   UNL     1       2.141   6.480  20.437  0.00  0.00    +0.000 A 
ATOM     19  C   UNL     1       1.578   7.742  20.255  0.00  0.00    +0.000 A 
ATOM     20  C   UNL     1       1.812   8.442  19.069  0.00  0.00    +0.000 A 
ATOM     21  C   UNL     1       2.568   7.864  18.050  0.00  0.00    +0.000 A 
ATOM     22  O   UNL     1       1.332   9.707  18.838  0.00  0.00    +0.000 OA
ATOM     23  C   UNL     1       0.979  10.342  20.073  0.00  0.00    +0.000 C 
ATOM     24  C   UNL     1       0.106   9.419  20.906  0.00  0.00    +0.000 C 
ATOM     25  O   UNL     1       0.825   8.239  21.288  0.00  0.00    +0.000 OA
ENDBRANCH  15  16
ENDBRANCH   3  15
TORSDOF 4
ENDMDL
MODEL 9
REMARK VINA RESULT:      -6.9      3.977      5.931
REMARK  Name = 
REMARK  4 active torsions:
REMARK  status: ('A' for Active; 'I' for Inactive)
REMARK    1  A    between atoms: C_2  and  C_7
REMARK    2  A    between atoms: N_3  and  C_4
REMARK    3  A    between atoms: N_9  and  C_10
REMARK    4  A    between atoms: C_10  and  C_11
REMARK                            x       y       z     vdW  Elec       q    Type
REMARK                         _______ _______ _______ _____ _____    ______ ____
ROOT
ATOM      1  C   UNL     1       6.880   6.110  16.754  0.00  0.00    +0.000 C 
ATOM      2  C   UNL     1       6.590   4.744  17.409  0.00  0.00    +0.000 C 
ATOM      3  N   UNL     1       5.782   3.838  16.557  0.00  0.00    +0.000 NA
ATOM      4  C   UNL     1       6.492   3.687  15.265  0.00  0.00    +0.000 C 
ATOM      5  C   UNL     1       6.931   5.020  14.594  0.00  0.00    +0.000 C 
ATOM      6  N   UNL     1       7.652   5.961  15.482  0.00  0.00    +0.000 NA
ATOM      7  H   UNL     1       7.675   6.872  15.018  0.00  0.00    +0.000 HD
ENDROOT
BRANCH   1   9
ATOM      8  O   UNL     1       7.978   6.568  18.850  0.00  0.00    +0.000 OA
ATOM      9  C   UNL     1       7.575   7.014  17.778  0.00  0.00    +0.000 C 
ATOM     10  N   UNL     1       7.677   8.349  17.442  0.00  0.00    +0.000 N 
ATOM     11  H   UNL     1       7.466   8.599  16.481  0.00  0.00    +0.000 HD
BRANCH  10  12
ATOM     12  C   UNL     1       8.258   9.294  18.343  0.00  0.00    +0.000 C 
ATOM     13  C   UNL     1       9.448  10.133  17.981  0.00  0.00    +0.000 C 
ATOM     14  C   UNL     1       8.090  10.768  18.085  0.00  0.00    +0.000 C 
ENDBRANCH  10  12
ENDBRANCH   1   9
BRANCH   3  15
ATOM     15  C   UNL     1       4.402   4.322  16.344  0.00  0.00    +0.000 C 
BRANCH  15  16
ATOM     16  C   UNL     1       3.447   4.032  17.485  0.00  0.00    +0.000 A 
ATOM     17  C   UNL     1       2.069   4.259  17.348  0.00  0.00    +0.000 A 
ATOM     18  C   UNL     1       1.193   3.980  18.402  0.00  0.00    +0.000 A 
ATOM     19  C   UNL     1       1.683   3.463  19.599  0.00  0.00    +0.000 A 
ATOM     20  C   UNL     1       3.051   3.207  19.737  0.00  0.00    +0.000 A 
ATOM     21  C   UNL     1       3.929   3.511  18.698  0.00  0.00    +0.000 A 
ATOM     22  O   UNL     1       3.599   2.654  20.867  0.00  0.00    +0.000 OA
ATOM     23  C   UNL     1       2.591   1.995  21.643  0.00  0.00    +0.000 C 
ATOM     24  C   UNL     1       1.398   2.914  21.839  0.00  0.00    +0.000 C 
ATOM     25  O   UNL     1       0.766   3.212  20.587  0.00  0.00    +0.000 OA
ENDBRANCH  15  16
ENDBRANCH   3  15
TORSDOF 4
ENDMDL
