MODEL 1
REMARK VINA RESULT:      -7.1      0.000      0.000
REMARK  Name = 
REMARK  3 active torsions:
REMARK  status: ('A' for Active; 'I' for Inactive)
REMARK    1  A    between atoms: C_6  and  C_7
REMARK    2  A    between atoms: C_6  and  C_8
REMARK    3  A    between atoms: C_11  and  C_12
REMARK                            x       y       z     vdW  Elec       q    Type
REMARK                         _______ _______ _______ _____ _____    ______ ____
ROOT
ATOM      1  C   UNL     1       2.150   7.476  18.169  0.00  0.00    +0.000 C 
ATOM      2  C   UNL     1       2.952   6.635  18.858  0.00  0.00    +0.000 C 
ATOM      3  C   UNL     1       2.382   6.238  20.257  0.00  0.00    +0.000 C 
ATOM      4  C   UNL     1       1.622   4.889  20.182  0.00  0.00    +0.000 C 
ATOM      5  C   UNL     1       2.474   3.958  19.379  0.00  0.00    +0.000 C 
ATOM      6  C   UNL     1       3.297   3.395  18.246  0.00  0.00    +0.000 C 
ATOM      7  C   UNL     1       3.640   1.973  18.756  0.00  0.00    +0.000 C 
ATOM      8  C   UNL     1       2.510   3.242  16.910  0.00  0.00    +0.000 C 
ATOM      9  C   UNL     1       4.558   4.349  18.105  0.00  0.00    +0.000 C 
ATOM     10  C   UNL     1       5.341   3.876  16.936  0.00  0.00    +0.000 C 
ATOM     11  C   UNL     1       5.574   4.580  15.816  0.00  0.00    +0.000 C 
ATOM     12  C   UNL     1       6.090   3.922  14.582  0.00  0.00    +0.000 C 
ATOM     13  C   UNL     1       5.202   6.036  15.747  0.00  0.00    +0.000 C 
ATOM     14  C   UNL     1       4.940   6.760  17.075  0.00  0.00    +0.000 C 
ATOM     15  C   UNL     1       4.300   5.971  18.259  0.00  0.00    +0.000 C 
ENDROOT
TORSDOF 0
ENDMDL
MODEL 2
REMARK VINA RESULT:      -6.7      1.238      1.893
REMARK  Name = 
REMARK  3 active torsions:
REMARK  status: ('A' for Active; 'I' for Inactive)
REMARK    1  A    between atoms: C_6  and  C_7
REMARK    2  A    between atoms: C_6  and  C_8
REMARK    3  A    between atoms: C_11  and  C_12
REMARK                            x       y       z     vdW  Elec       q    Type
REMARK                         _______ _______ _______ _____ _____    ______ ____
ROOT
ATOM      1  C   UNL     1       1.398   5.802  20.484  0.00  0.00    +0.000 C 
ATOM      2  C   UNL     1       2.417   4.925  20.616  0.00  0.00    +0.000 C 
ATOM      3  C   UNL     1       2.121   3.775  21.631  0.00  0.00    +0.000 C 
ATOM      4  C   UNL     1       1.595   2.513  20.900  0.00  0.00    +0.000 C 
ATOM      5  C   UNL     1       2.471   2.311  19.704  0.00  0.00    +0.000 C 
ATOM      6  C   UNL     1       3.212   2.576  18.416  0.00  0.00    +0.000 C 
ATOM      7  C   UNL     1       3.856   1.200  18.111  0.00  0.00    +0.000 C 
ATOM      8  C   UNL     1       2.285   2.940  17.218  0.00  0.00    +0.000 C 
ATOM      9  C   UNL     1       4.263   3.720  18.743  0.00  0.00    +0.000 C 
ATOM     10  C   UNL     1       4.945   4.069  17.471  0.00  0.00    +0.000 C 
ATOM     11  C   UNL     1       4.899   5.266  16.864  0.00  0.00    +0.000 C 
ATOM     12  C   UNL     1       5.342   5.436  15.451  0.00  0.00    +0.000 C 
ATOM     13  C   UNL     1       4.282   6.447  17.565  0.00  0.00    +0.000 C 
ATOM     14  C   UNL     1       4.089   6.341  19.085  0.00  0.00    +0.000 C 
ATOM     15  C   UNL     1       3.761   4.953  19.716  0.00  0.00    +0.000 C 
ENDROOT
TORSDOF 0
ENDMDL
MODEL 3
REMARK VINA RESULT:      -6.7      1.391      4.755
REMARK  Name = 
REMARK  3 active torsions:
REMARK  status: ('A' for Active; 'I' for Inactive)
REMARK    1  A    between atoms: C_6  and  C_7
REMARK    2  A    between atoms: C_6  and  C_8
REMARK    3  A    between atoms: C_11  and  C_12
REMARK                            x       y       z     vdW  Elec       q    Type
REMARK                         _______ _______ _______ _____ _____    ______ ____
ROOT
ATOM      1  C   UNL     1       5.413   3.712  16.495  0.00  0.00    +0.000 C 
ATOM      2  C   UNL     1       5.446   4.666  17.452  0.00  0.00    +0.000 C 
ATOM      3  C   UNL     1       5.995   6.037  16.943  0.00  0.00    +0.000 C 
ATOM      4  C   UNL     1       4.833   6.981  16.538  0.00  0.00    +0.000 C 
ATOM      5  C   UNL     1       3.804   6.888  17.621  0.00  0.00    +0.000 C 
ATOM      6  C   UNL     1       2.809   6.313  18.598  0.00  0.00    +0.000 C 
ATOM      7  C   UNL     1       2.215   7.583  19.258  0.00  0.00    +0.000 C 
ATOM      8  C   UNL     1       1.637   5.539  17.923  0.00  0.00    +0.000 C 
ATOM      9  C   UNL     1       3.647   5.403  19.593  0.00  0.00    +0.000 C 
ATOM     10  C   UNL     1       2.681   4.748  20.511  0.00  0.00    +0.000 C 
ATOM     11  C   UNL     1       2.471   3.425  20.607  0.00  0.00    +0.000 C 
ATOM     12  C   UNL     1       1.277   2.880  21.314  0.00  0.00    +0.000 C 
ATOM     13  C   UNL     1       3.380   2.460  19.895  0.00  0.00    +0.000 C 
ATOM     14  C   UNL     1       4.737   2.996  19.414  0.00  0.00    +0.000 C 
ATOM     15  C   UNL     1       4.847   4.478  18.943  0.00  0.00    +0.000 C 
ENDROOT
TORSDOF 0
ENDMDL
MODEL 4
REMARK VINA RESULT:      -6.6      1.060      4.238
REMARK  Name = 
REMARK  3 active torsions:
REMARK  status: ('A' for Active; 'I' for Inactive)
REMARK    1  A    between atoms: C_6  and  C_7
REMARK    2  A    between atoms: C_6  and  C_8
REMARK    3  A    between atoms: C_11  and  C_12
REMARK                            x       y       z     vdW  Elec       q    Type
REMARK                         _______ _______ _______ _____ _____    ______ ____
ROOT
ATOM      1  C   UNL     1       6.228   7.065  17.090  0.00  0.00    +0.000 C 
ATOM      2  C   UNL     1       5.278   6.285  16.528  0.00  0.00    +0.000 C 
ATOM      3  C   UNL     1       5.803   5.435  15.327  0.00  0.00    +0.000 C 
ATOM      4  C   UNL     1       6.199   4.009  15.791  0.00  0.00    +0.000 C 
ATOM      5  C   UNL     1       5.103   3.527  16.688  0.00  0.00    +0.000 C 
ATOM      6  C   UNL     1       4.108   3.467  17.821  0.00  0.00    +0.000 C 
ATOM      7  C   UNL     1       3.449   2.080  17.615  0.00  0.00    +0.000 C 
ATOM      8  C   UNL     1       4.762   3.474  19.235  0.00  0.00    +0.000 C 
ATOM      9  C   UNL     1       3.119   4.688  17.601  0.00  0.00    +0.000 C 
ATOM     10  C   UNL     1       2.183   4.712  18.754  0.00  0.00    +0.000 C 
ATOM     11  C   UNL     1       2.075   5.705  19.651  0.00  0.00    +0.000 C 
ATOM     12  C   UNL     1       1.349   5.511  20.938  0.00  0.00    +0.000 C 
ATOM     13  C   UNL     1       2.793   7.009  19.427  0.00  0.00    +0.000 C 
ATOM     14  C   UNL     1       3.295   7.300  18.005  0.00  0.00    +0.000 C 
ATOM     15  C   UNL     1       3.778   6.118  17.110  0.00  0.00    +0.000 C 
ENDROOT
TORSDOF 0
ENDMDL
MODEL 5
REMARK VINA RESULT:      -6.6      1.412      3.698
REMARK  Name = 
REMARK  3 active torsions:
REMARK  status: ('A' for Active; 'I' for Inactive)
REMARK    1  A    between atoms: C_6  and  C_7
REMARK    2  A    between atoms: C_6  and  C_8
REMARK    3  A    between atoms: C_11  and  C_12
REMARK                            x       y       z     vdW  Elec       q    Type
REMARK                         _______ _______ _______ _____ _____    ______ ____
ROOT
ATOM      1  C   UNL     1       4.179   2.200  18.186  0.00  0.00    +0.000 C 
ATOM      2  C   UNL     1       3.702   3.148  17.348  0.00  0.00    +0.000 C 
ATOM      3  C   UNL     1       2.158   3.065  17.130  0.00  0.00    +0.000 C 
ATOM      4  C   UNL     1       1.412   4.034  18.083  0.00  0.00    +0.000 C 
ATOM      5  C   UNL     1       2.152   5.334  18.043  0.00  0.00    +0.000 C 
ATOM      6  C   UNL     1       3.272   6.341  18.124  0.00  0.00    +0.000 C 
ATOM      7  C   UNL     1       2.534   7.682  17.884  0.00  0.00    +0.000 C 
ATOM      8  C   UNL     1       3.950   6.419  19.525  0.00  0.00    +0.000 C 
ATOM      9  C   UNL     1       4.294   5.954  16.973  0.00  0.00    +0.000 C 
ATOM     10  C   UNL     1       5.456   6.872  17.087  0.00  0.00    +0.000 C 
ATOM     11  C   UNL     1       6.718   6.503  17.356  0.00  0.00    +0.000 C 
ATOM     12  C   UNL     1       7.747   7.502  17.762  0.00  0.00    +0.000 C 
ATOM     13  C   UNL     1       7.094   5.046  17.371  0.00  0.00    +0.000 C 
ATOM     14  C   UNL     1       6.127   4.063  16.694  0.00  0.00    +0.000 C 
ATOM     15  C   UNL     1       4.595   4.351  16.736  0.00  0.00    +0.000 C 
ENDROOT
TORSDOF 0
ENDMDL
MODEL 6
REMARK VINA RESULT:      -6.4      1.289      3.510
REMARK  Name = 
REMARK  3 active torsions:
REMARK  status: ('A' for Active; 'I' for Inactive)
REMARK    1  A    between atoms: C_6  and  C_7
REMARK    2  A    between atoms: C_6  and  C_8
REMARK    3  A    between atoms: C_11  and  C_12
REMARK                            x       y       z     vdW  Elec       q    Type
REMARK                         _______ _______ _______ _____ _____    ______ ____
ROOT
ATOM      1  C   UNL     1       3.317   1.463  18.303  0.00  0.00    +0.000 C 
ATOM      2  C   UNL     1       2.495   2.492  18.003  0.00  0.00    +0.000 C 
ATOM      3  C   UNL     1       1.055   2.328  18.587  0.00  0.00    +0.000 C 
ATOM      4  C   UNL     1       0.919   3.075  19.940  0.00  0.00    +0.000 C 
ATOM      5  C   UNL     1       1.555   4.417  19.757  0.00  0.00    +0.000 C 
ATOM      6  C   UNL     1       2.575   5.481  19.433  0.00  0.00    +0.000 C 
ATOM      7  C   UNL     1       1.840   6.783  19.839  0.00  0.00    +0.000 C 
ATOM      8  C   UNL     1       3.876   5.387  20.285  0.00  0.00    +0.000 C 
ATOM      9  C   UNL     1       2.855   5.359  17.876  0.00  0.00    +0.000 C 
ATOM     10  C   UNL     1       3.926   6.333  17.543  0.00  0.00    +0.000 C 
ATOM     11  C   UNL     1       5.142   6.022  17.065  0.00  0.00    +0.000 C 
ATOM     12  C   UNL     1       6.250   7.019  17.060  0.00  0.00    +0.000 C 
ATOM     13  C   UNL     1       5.448   4.614  16.633  0.00  0.00    +0.000 C 
ATOM     14  C   UNL     1       4.256   3.680  16.380  0.00  0.00    +0.000 C 
ATOM     15  C   UNL     1       2.967   3.841  17.243  0.00  0.00    +0.000 C 
ENDROOT
TORSDOF 0
ENDMDL
MODEL 7
REMARK VINA RESULT:      -6.3      1.094      3.747
REMARK  Name = 
REMARK  3 active torsions:
REMARK  status: ('A' for Active; 'I' for Inactive)
REMARK    1  A    between atoms: C_6  and  C_7
REMARK    2  A    between atoms: C_6  and  C_8
REMARK    3  A    between atoms: C_11  and  C_12
REMARK                            x       y       z     vdW  Elec       q    Type
REMARK                         _______ _______ _______ _____ _____    ______ ____
ROOT
ATOM      1  C   UNL     1       2.131   6.942  20.194  0.00  0.00    +0.000 C 
ATOM      2  C   UNL     1       2.109   6.640  18.877  0.00  0.00    +0.000 C 
ATOM      3  C   UNL     1       2.260   7.888  17.950  0.00  0.00    +0.000 C 
ATOM      4  C   UNL     1       3.738   8.083  17.521  0.00  0.00    +0.000 C 
ATOM      5  C   UNL     1       4.254   6.734  17.129  0.00  0.00    +0.000 C 
ATOM      6  C   UNL     1       4.613   5.270  17.191  0.00  0.00    +0.000 C 
ATOM      7  C   UNL     1       5.349   5.048  15.846  0.00  0.00    +0.000 C 
ATOM      8  C   UNL     1       5.605   4.912  18.337  0.00  0.00    +0.000 C 
ATOM      9  C   UNL     1       3.237   4.487  17.308  0.00  0.00    +0.000 C 
ATOM     10  C   UNL     1       3.562   3.046  17.466  0.00  0.00    +0.000 C 
ATOM     11  C   UNL     1       3.266   2.293  18.537  0.00  0.00    +0.000 C 
ATOM     12  C   UNL     1       3.899   0.960  18.744  0.00  0.00    +0.000 C 
ATOM     13  C   UNL     1       2.373   2.835  19.621  0.00  0.00    +0.000 C 
ATOM     14  C   UNL     1       1.519   4.064  19.280  0.00  0.00    +0.000 C 
ATOM     15  C   UNL     1       2.081   5.132  18.291  0.00  0.00    +0.000 C 
ENDROOT
TORSDOF 0
ENDMDL
MODEL 8
REMARK VINA RESULT:      -6.0      1.234      3.368
REMARK  Name = 
REMARK  3 active torsions:
REMARK  status: ('A' for Active; 'I' for Inactive)
REMARK    1  A    between atoms: C_6  and  C_7
REMARK    2  A    between atoms: C_6  and  C_8
REMARK    3  A    between atoms: C_11  and  C_12
REMARK                            x       y       z     vdW  Elec       q    Type
REMARK                         _______ _______ _______ _____ _____    ______ ____
ROOT
ATOM      1  C   UNL     1       2.378   2.587  20.791  0.00  0.00    +0.000 C 
ATOM      2  C   UNL     1       1.856   3.445  19.886  0.00  0.00    +0.000 C 
ATOM      3  C   UNL     1       0.817   4.438  20.498  0.00  0.00    +0.000 C 
ATOM      4  C   UNL     1       1.491   5.786  20.864  0.00  0.00    +0.000 C 
ATOM      5  C   UNL     1       2.362   6.161  19.707  0.00  0.00    +0.000 C 
ATOM      6  C   UNL     1       3.421   6.085  18.634  0.00  0.00    +0.000 C 
ATOM      7  C   UNL     1       3.351   7.495  17.995  0.00  0.00    +0.000 C 
ATOM      8  C   UNL     1       4.864   5.886  19.185  0.00  0.00    +0.000 C 
ATOM      9  C   UNL     1       2.973   4.915  17.659  0.00  0.00    +0.000 C 
ATOM     10  C   UNL     1       4.044   4.752  16.643  0.00  0.00    +0.000 C 
ATOM     11  C   UNL     1       4.793   3.652  16.468  0.00  0.00    +0.000 C 
ATOM     12  C   UNL     1       6.040   3.686  15.652  0.00  0.00    +0.000 C 
ATOM     13  C   UNL     1       4.452   2.380  17.197  0.00  0.00    +0.000 C 
ATOM     14  C   UNL     1       3.044   2.270  17.799  0.00  0.00    +0.000 C 
ATOM     15  C   UNL     1       2.348   3.553  18.348  0.00  0.00    +0.000 C 
ENDROOT
TORSDOF 0
ENDMDL
MODEL 9
REMARK VINA RESULT:      -5.8      9.337     11.375
REMARK  Name = 
REMARK  3 active torsions:
REMARK  status: ('A' for Active; 'I' for Inactive)
REMARK    1  A    between atoms: C_6  and  C_7
REMARK    2  A    between atoms: C_6  and  C_8
REMARK    3  A    between atoms: C_11  and  C_12
REMARK                            x       y       z     vdW  Elec       q    Type
REMARK                         _______ _______ _______ _____ _____    ______ ____
ROOT
ATOM      1  C   UNL     1      11.748  15.407  17.851  0.00  0.00    +0.000 C 
ATOM      2  C   UNL     1      11.939  14.806  19.046  0.00  0.00    +0.000 C 
ATOM      3  C   UNL     1      12.298  15.803  20.194  0.00  0.00    +0.000 C 
ATOM      4  C   UNL     1      11.032  16.202  20.995  0.00  0.00    +0.000 C 
ATOM      5  C   UNL     1      10.266  14.942  21.248  0.00  0.00    +0.000 C 
ATOM      6  C   UNL     1       9.533  13.645  21.008  0.00  0.00    +0.000 C 
ATOM      7  C   UNL     1       9.034  13.275  22.428  0.00  0.00    +0.000 C 
ATOM      8  C   UNL     1       8.282  13.788  20.090  0.00  0.00    +0.000 C 
ATOM      9  C   UNL     1      10.608  12.636  20.421  0.00  0.00    +0.000 C 
ATOM     10  C   UNL     1       9.895  11.377  20.086  0.00  0.00    +0.000 C 
ATOM     11  C   UNL     1       9.775  10.852  18.856  0.00  0.00    +0.000 C 
ATOM     12  C   UNL     1       8.789   9.773  18.569  0.00  0.00    +0.000 C 
ATOM     13  C   UNL     1      10.555  11.430  17.707  0.00  0.00    +0.000 C 
ATOM     14  C   UNL     1      11.749  12.333  18.049  0.00  0.00    +0.000 C 
ATOM     15  C   UNL     1      11.684  13.232  19.322  0.00  0.00    +0.000 C 
ENDROOT
TORSDOF 0
ENDMDL
