MODEL 1
REMARK VINA RESULT:      -7.1      0.000      0.000
REMARK  Name = 
REMARK  15 active torsions:
REMARK  status: ('A' for Active; 'I' for Inactive)
REMARK    1  A    between atoms: C_1  and  C_2
REMARK    2  A    between atoms: C_2  and  C_3
REMARK    3  A    between atoms: C_3  and  C_4
REMARK    4  A    between atoms: C_4  and  C_5
REMARK    5  A    between atoms: C_5  and  C_6
REMARK    6  A    between atoms: C_6  and  C_7
REMARK    7  A    between atoms: C_7  and  C_8
REMARK    8  A    between atoms: C_8  and  C_9
REMARK    9  A    between atoms: C_9  and  C_10
REMARK   10  A    between atoms: C_10  and  S_11
REMARK   11  A    between atoms: S_11  and  C_13
REMARK   12  A    between atoms: C_18  and  O_19
REMARK   13  A    between atoms: O_19  and  C_20
REMARK   14  A    between atoms: C_23  and  O_24
REMARK   15  A    between atoms: O_24  and  C_25
REMARK                            x       y       z     vdW  Elec       q    Type
REMARK                         _______ _______ _______ _____ _____    ______ ____
ROOT
ATOM      1  C   UNL     1       5.705   4.690  17.871  0.00  0.00    +0.000 C 
ATOM      2  C   UNL     1       5.552   3.711  18.758  0.00  0.00    +0.000 C 
ATOM      3  C   UNL     1       4.243   3.529  19.397  0.00  0.00    +0.000 C 
ATOM      4  O   UNL     1       3.905   2.384  19.619  0.00  0.00    +0.000 OA
ATOM      5  C   UNL     1       3.404   4.737  19.630  0.00  0.00    +0.000 A 
ATOM      6  C   UNL     1       2.449   4.837  20.658  0.00  0.00    +0.000 A 
ATOM      7  C   UNL     1       1.665   5.995  20.722  0.00  0.00    +0.000 A 
ATOM      8  C   UNL     1       1.834   7.034  19.824  0.00  0.00    +0.000 A 
ATOM      9  C   UNL     1       2.792   6.980  18.805  0.00  0.00    +0.000 A 
ATOM     10  C   UNL     1       3.579   5.810  18.697  0.00  0.00    +0.000 A 
ATOM     11  C   UNL     1       4.552   5.568  17.600  0.00  0.00    +0.000 C 
ATOM     12  O   UNL     1       4.387   5.997  16.462  0.00  0.00    +0.000 OA
ENDROOT
BRANCH   1  13
ATOM     13  S   UNL     1       7.185   4.693  16.890  0.00  0.00    +0.000 S 
ATOM     14  O   UNL     1       8.337   4.220  17.853  0.00  0.00    +0.000 OA
BRANCH  13  15
ATOM     15  C   UNL     1       7.374   6.476  16.601  0.00  0.00    +0.000 C 
BRANCH  15  16
ATOM     16  C   UNL     1       7.849   7.146  17.881  0.00  0.00    +0.000 C 
BRANCH  16  17
ATOM     17  C   UNL     1       7.670   8.661  17.838  0.00  0.00    +0.000 C 
BRANCH  17  18
ATOM     18  C   UNL     1       8.737   9.323  18.706  0.00  0.00    +0.000 C 
BRANCH  18  19
ATOM     19  C   UNL     1       9.324  10.562  18.043  0.00  0.00    +0.000 C 
BRANCH  19  20
ATOM     20  C   UNL     1       9.799  11.555  19.102  0.00  0.00    +0.000 C 
BRANCH  20  21
ATOM     21  C   UNL     1       9.580  11.003  20.506  0.00  0.00    +0.000 C 
BRANCH  21  22
ATOM     22  C   UNL     1       9.605  12.122  21.543  0.00  0.00    +0.000 C 
BRANCH  22  24
ATOM     23  C   UNL     1       8.182  11.531  23.528  0.00  0.00    +0.000 C 
ATOM     24  C   UNL     1       8.241  12.282  22.209  0.00  0.00    +0.000 C 
ENDBRANCH  22  24
ENDBRANCH  21  22
ENDBRANCH  20  21
ENDBRANCH  19  20
ENDBRANCH  18  19
ENDBRANCH  17  18
ENDBRANCH  16  17
ENDBRANCH  15  16
ENDBRANCH  13  15
ENDBRANCH   1  13
BRANCH   6  25
ATOM     25  O   UNL     1       2.101   4.023  21.697  0.00  0.00    +0.000 OA
ATOM     26  C   UNL     1       1.280   2.886  21.544  0.00  0.00    +0.000 C 
ENDBRANCH   6  25
BRANCH   9  27
ATOM     27  O   UNL     1       2.752   8.152  18.117  0.00  0.00    +0.000 OA
ATOM     28  C   UNL     1       1.663   9.050  18.146  0.00  0.00    +0.000 C 
ENDBRANCH   9  27
TORSDOF 12
ENDMDL
MODEL 2
REMARK VINA RESULT:      -7.1      1.651      2.324
REMARK  Name = 
REMARK  15 active torsions:
REMARK  status: ('A' for Active; 'I' for Inactive)
REMARK    1  A    between atoms: C_1  and  C_2
REMARK    2  A    between atoms: C_2  and  C_3
REMARK    3  A    between atoms: C_3  and  C_4
REMARK    4  A    between atoms: C_4  and  C_5
REMARK    5  A    between atoms: C_5  and  C_6
REMARK    6  A    between atoms: C_6  and  C_7
REMARK    7  A    between atoms: C_7  and  C_8
REMARK    8  A    between atoms: C_8  and  C_9
REMARK    9  A    between atoms: C_9  and  C_10
REMARK   10  A    between atoms: C_10  and  S_11
REMARK   11  A    between atoms: S_11  and  C_13
REMARK   12  A    between atoms: C_18  and  O_19
REMARK   13  A    between atoms: O_19  and  C_20
REMARK   14  A    between atoms: C_23  and  O_24
REMARK   15  A    between atoms: O_24  and  C_25
REMARK                            x       y       z     vdW  Elec       q    Type
REMARK                         _______ _______ _______ _____ _____    ______ ____
ROOT
ATOM      1  C   UNL     1       5.427   5.416  17.712  0.00  0.00    +0.000 C 
ATOM      2  C   UNL     1       5.339   4.107  17.930  0.00  0.00    +0.000 C 
ATOM      3  C   UNL     1       4.041   3.535  18.306  0.00  0.00    +0.000 C 
ATOM      4  O   UNL     1       3.788   2.432  17.866  0.00  0.00    +0.000 OA
ATOM      5  C   UNL     1       3.110   4.378  19.107  0.00  0.00    +0.000 A 
ATOM      6  C   UNL     1       2.139   3.855  19.980  0.00  0.00    +0.000 A 
ATOM      7  C   UNL     1       1.269   4.749  20.614  0.00  0.00    +0.000 A 
ATOM      8  C   UNL     1       1.368   6.116  20.419  0.00  0.00    +0.000 A 
ATOM      9  C   UNL     1       2.338   6.674  19.578  0.00  0.00    +0.000 A 
ATOM     10  C   UNL     1       3.213   5.792  18.901  0.00  0.00    +0.000 A 
ATOM     11  C   UNL     1       4.213   6.233  17.895  0.00  0.00    +0.000 C 
ATOM     12  O   UNL     1       4.029   7.195  17.155  0.00  0.00    +0.000 OA
ENDROOT
BRANCH   1  13
ATOM     13  S   UNL     1       6.912   6.031  16.959  0.00  0.00    +0.000 S 
ATOM     14  O   UNL     1       7.412   4.886  16.002  0.00  0.00    +0.000 OA
BRANCH  13  15
ATOM     15  C   UNL     1       8.006   6.086  18.409  0.00  0.00    +0.000 C 
BRANCH  15  16
ATOM     16  C   UNL     1       8.309   7.535  18.756  0.00  0.00    +0.000 C 
BRANCH  16  17
ATOM     17  C   UNL     1       8.098   8.467  17.566  0.00  0.00    +0.000 C 
BRANCH  17  18
ATOM     18  C   UNL     1       7.940   9.901  18.067  0.00  0.00    +0.000 C 
BRANCH  18  19
ATOM     19  C   UNL     1       9.260  10.662  18.045  0.00  0.00    +0.000 C 
BRANCH  19  20
ATOM     20  C   UNL     1       9.733  10.945  19.470  0.00  0.00    +0.000 C 
BRANCH  20  21
ATOM     21  C   UNL     1      11.153  11.499  19.473  0.00  0.00    +0.000 C 
BRANCH  21  22
ATOM     22  C   UNL     1      11.690  11.637  18.051  0.00  0.00    +0.000 C 
BRANCH  22  24
ATOM     23  C   UNL     1      10.934  13.853  17.136  0.00  0.00    +0.000 C 
ATOM     24  C   UNL     1      12.088  13.081  17.754  0.00  0.00    +0.000 C 
ENDBRANCH  22  24
ENDBRANCH  21  22
ENDBRANCH  20  21
ENDBRANCH  19  20
ENDBRANCH  18  19
ENDBRANCH  17  18
ENDBRANCH  16  17
ENDBRANCH  15  16
ENDBRANCH  13  15
ENDBRANCH   1  13
BRANCH   6  25
ATOM     25  O   UNL     1       1.842   2.592  20.404  0.00  0.00    +0.000 OA
ATOM     26  C   UNL     1       2.084   2.144  21.719  0.00  0.00    +0.000 C 
ENDBRANCH   6  25
BRANCH   9  27
ATOM     27  O   UNL     1       2.217   8.027  19.622  0.00  0.00    +0.000 OA
ATOM     28  C   UNL     1       1.285   8.712  20.432  0.00  0.00    +0.000 C 
ENDBRANCH   9  27
TORSDOF 12
ENDMDL
MODEL 3
REMARK VINA RESULT:      -7.1      1.592      2.078
REMARK  Name = 
REMARK  15 active torsions:
REMARK  status: ('A' for Active; 'I' for Inactive)
REMARK    1  A    between atoms: C_1  and  C_2
REMARK    2  A    between atoms: C_2  and  C_3
REMARK    3  A    between atoms: C_3  and  C_4
REMARK    4  A    between atoms: C_4  and  C_5
REMARK    5  A    between atoms: C_5  and  C_6
REMARK    6  A    between atoms: C_6  and  C_7
REMARK    7  A    between atoms: C_7  and  C_8
REMARK    8  A    between atoms: C_8  and  C_9
REMARK    9  A    between atoms: C_9  and  C_10
REMARK   10  A    between atoms: C_10  and  S_11
REMARK   11  A    between atoms: S_11  and  C_13
REMARK   12  A    between atoms: C_18  and  O_19
REMARK   13  A    between atoms: O_19  and  C_20
REMARK   14  A    between atoms: C_23  and  O_24
REMARK   15  A    between atoms: O_24  and  C_25
REMARK                            x       y       z     vdW  Elec       q    Type
REMARK                         _______ _______ _______ _____ _____    ______ ____
ROOT
ATOM      1  C   UNL     1       5.468   5.357  17.520  0.00  0.00    +0.000 C 
ATOM      2  C   UNL     1       5.343   4.057  17.770  0.00  0.00    +0.000 C 
ATOM      3  C   UNL     1       4.044   3.540  18.215  0.00  0.00    +0.000 C 
ATOM      4  O   UNL     1       3.733   2.438  17.810  0.00  0.00    +0.000 OA
ATOM      5  C   UNL     1       3.180   4.433  19.037  0.00  0.00    +0.000 A 
ATOM      6  C   UNL     1       2.232   3.963  19.964  0.00  0.00    +0.000 A 
ATOM      7  C   UNL     1       1.422   4.901  20.615  0.00  0.00    +0.000 A 
ATOM      8  C   UNL     1       1.561   6.259  20.386  0.00  0.00    +0.000 A 
ATOM      9  C   UNL     1       2.512   6.764  19.491  0.00  0.00    +0.000 A 
ATOM     10  C   UNL     1       3.324   5.838  18.797  0.00  0.00    +0.000 A 
ATOM     11  C   UNL     1       4.293   6.222  17.738  0.00  0.00    +0.000 C 
ATOM     12  O   UNL     1       4.110   7.174  16.986  0.00  0.00    +0.000 OA
ENDROOT
BRANCH   1  13
ATOM     13  S   UNL     1       6.939   5.903  16.690  0.00  0.00    +0.000 S 
ATOM     14  O   UNL     1       7.855   4.629  16.563  0.00  0.00    +0.000 OA
BRANCH  13  15
ATOM     15  C   UNL     1       7.641   6.991  17.964  0.00  0.00    +0.000 C 
BRANCH  15  16
ATOM     16  C   UNL     1       7.264   8.432  17.659  0.00  0.00    +0.000 C 
BRANCH  16  17
ATOM     17  C   UNL     1       8.476   9.358  17.672  0.00  0.00    +0.000 C 
BRANCH  17  18
ATOM     18  C   UNL     1       8.942   9.563  19.112  0.00  0.00    +0.000 C 
BRANCH  18  19
ATOM     19  C   UNL     1       9.743  10.848  19.275  0.00  0.00    +0.000 C 
BRANCH  19  20
ATOM     20  C   UNL     1      10.395  11.239  17.951  0.00  0.00    +0.000 C 
BRANCH  20  21
ATOM     21  C   UNL     1      11.453  12.317  18.160  0.00  0.00    +0.000 C 
BRANCH  21  22
ATOM     22  C   UNL     1      11.659  12.599  19.646  0.00  0.00    +0.000 C 
BRANCH  22  24
ATOM     23  C   UNL     1      12.022  14.946  18.822  0.00  0.00    +0.000 C 
ATOM     24  C   UNL     1      11.481  14.084  19.950  0.00  0.00    +0.000 C 
ENDBRANCH  22  24
ENDBRANCH  21  22
ENDBRANCH  20  21
ENDBRANCH  19  20
ENDBRANCH  18  19
ENDBRANCH  17  18
ENDBRANCH  16  17
ENDBRANCH  15  16
ENDBRANCH  13  15
ENDBRANCH   1  13
BRANCH   6  25
ATOM     25  O   UNL     1       1.910   2.720  20.428  0.00  0.00    +0.000 OA
ATOM     26  C   UNL     1       1.652   2.448  21.787  0.00  0.00    +0.000 C 
ENDBRANCH   6  25
BRANCH   9  27
ATOM     27  O   UNL     1       2.440   8.121  19.511  0.00  0.00    +0.000 OA
ATOM     28  C   UNL     1       1.245   8.848  19.706  0.00  0.00    +0.000 C 
ENDBRANCH   9  27
TORSDOF 12
ENDMDL
MODEL 4
REMARK VINA RESULT:      -6.9      1.648      2.056
REMARK  Name = 
REMARK  15 active torsions:
REMARK  status: ('A' for Active; 'I' for Inactive)
REMARK    1  A    between atoms: C_1  and  C_2
REMARK    2  A    between atoms: C_2  and  C_3
REMARK    3  A    between atoms: C_3  and  C_4
REMARK    4  A    between atoms: C_4  and  C_5
REMARK    5  A    between atoms: C_5  and  C_6
REMARK    6  A    between atoms: C_6  and  C_7
REMARK    7  A    between atoms: C_7  and  C_8
REMARK    8  A    between atoms: C_8  and  C_9
REMARK    9  A    between atoms: C_9  and  C_10
REMARK   10  A    between atoms: C_10  and  S_11
REMARK   11  A    between atoms: S_11  and  C_13
REMARK   12  A    between atoms: C_18  and  O_19
REMARK   13  A    between atoms: O_19  and  C_20
REMARK   14  A    between atoms: C_23  and  O_24
REMARK   15  A    between atoms: O_24  and  C_25
REMARK                            x       y       z     vdW  Elec       q    Type
REMARK                         _______ _______ _______ _____ _____    ______ ____
ROOT
ATOM      1  C   UNL     1       5.326   5.493  17.672  0.00  0.00    +0.000 C 
ATOM      2  C   UNL     1       5.158   4.174  17.635  0.00  0.00    +0.000 C 
ATOM      3  C   UNL     1       3.828   3.618  17.910  0.00  0.00    +0.000 C 
ATOM      4  O   UNL     1       3.508   2.638  17.268  0.00  0.00    +0.000 OA
ATOM      5  C   UNL     1       2.951   4.346  18.868  0.00  0.00    +0.000 A 
ATOM      6  C   UNL     1       1.950   3.723  19.637  0.00  0.00    +0.000 A 
ATOM      7  C   UNL     1       1.136   4.529  20.441  0.00  0.00    +0.000 A 
ATOM      8  C   UNL     1       1.318   5.899  20.512  0.00  0.00    +0.000 A 
ATOM      9  C   UNL     1       2.320   6.549  19.782  0.00  0.00    +0.000 A 
ATOM     10  C   UNL     1       3.139   5.764  18.938  0.00  0.00    +0.000 A 
ATOM     11  C   UNL     1       4.164   6.330  18.023  0.00  0.00    +0.000 C 
ATOM     12  O   UNL     1       4.038   7.426  17.484  0.00  0.00    +0.000 OA
ENDROOT
BRANCH   1  13
ATOM     13  S   UNL     1       6.846   6.152  17.033  0.00  0.00    +0.000 S 
ATOM     14  O   UNL     1       7.438   5.033  16.099  0.00  0.00    +0.000 OA
BRANCH  13  15
ATOM     15  C   UNL     1       7.833   6.210  18.557  0.00  0.00    +0.000 C 
BRANCH  15  16
ATOM     16  C   UNL     1       8.402   7.609  18.735  0.00  0.00    +0.000 C 
BRANCH  16  17
ATOM     17  C   UNL     1       7.852   8.589  17.703  0.00  0.00    +0.000 C 
BRANCH  17  18
ATOM     18  C   UNL     1       8.530   9.946  17.880  0.00  0.00    +0.000 C 
BRANCH  18  19
ATOM     19  C   UNL     1       9.223  10.066  19.231  0.00  0.00    +0.000 C 
BRANCH  19  20
ATOM     20  C   UNL     1       9.956  11.402  19.334  0.00  0.00    +0.000 C 
BRANCH  20  21
ATOM     21  C   UNL     1      10.140  11.812  20.791  0.00  0.00    +0.000 C 
BRANCH  21  22
ATOM     22  C   UNL     1      10.505  13.290  20.900  0.00  0.00    +0.000 C 
BRANCH  22  24
ATOM     23  C   UNL     1      10.805  15.333  19.467  0.00  0.00    +0.000 C 
ATOM     24  C   UNL     1      11.006  13.830  19.563  0.00  0.00    +0.000 C 
ENDBRANCH  22  24
ENDBRANCH  21  22
ENDBRANCH  20  21
ENDBRANCH  19  20
ENDBRANCH  18  19
ENDBRANCH  17  18
ENDBRANCH  16  17
ENDBRANCH  15  16
ENDBRANCH  13  15
ENDBRANCH   1  13
BRANCH   6  25
ATOM     25  O   UNL     1       1.578   2.422  19.814  0.00  0.00    +0.000 OA
ATOM     26  C   UNL     1       0.665   1.759  18.967  0.00  0.00    +0.000 C 
ENDBRANCH   6  25
BRANCH   9  27
ATOM     27  O   UNL     1       2.281   7.874  20.087  0.00  0.00    +0.000 OA
ATOM     28  C   UNL     1       1.515   8.826  19.380  0.00  0.00    +0.000 C 
ENDBRANCH   9  27
TORSDOF 12
ENDMDL
MODEL 5
REMARK VINA RESULT:      -6.8      1.919      2.232
REMARK  Name = 
REMARK  15 active torsions:
REMARK  status: ('A' for Active; 'I' for Inactive)
REMARK    1  A    between atoms: C_1  and  C_2
REMARK    2  A    between atoms: C_2  and  C_3
REMARK    3  A    between atoms: C_3  and  C_4
REMARK    4  A    between atoms: C_4  and  C_5
REMARK    5  A    between atoms: C_5  and  C_6
REMARK    6  A    between atoms: C_6  and  C_7
REMARK    7  A    between atoms: C_7  and  C_8
REMARK    8  A    between atoms: C_8  and  C_9
REMARK    9  A    between atoms: C_9  and  C_10
REMARK   10  A    between atoms: C_10  and  S_11
REMARK   11  A    between atoms: S_11  and  C_13
REMARK   12  A    between atoms: C_18  and  O_19
REMARK   13  A    between atoms: O_19  and  C_20
REMARK   14  A    between atoms: C_23  and  O_24
REMARK   15  A    between atoms: O_24  and  C_25
REMARK                            x       y       z     vdW  Elec       q    Type
REMARK                         _______ _______ _______ _____ _____    ______ ____
ROOT
ATOM      1  C   UNL     1       4.648   5.918  17.197  0.00  0.00    +0.000 C 
ATOM      2  C   UNL     1       4.536   4.596  17.298  0.00  0.00    +0.000 C 
ATOM      3  C   UNL     1       3.323   4.030  17.901  0.00  0.00    +0.000 C 
ATOM      4  O   UNL     1       2.916   2.991  17.422  0.00  0.00    +0.000 OA
ATOM      5  C   UNL     1       2.644   4.811  18.971  0.00  0.00    +0.000 A 
ATOM      6  C   UNL     1       1.864   4.228  19.987  0.00  0.00    +0.000 A 
ATOM      7  C   UNL     1       1.209   5.077  20.887  0.00  0.00    +0.000 A 
ATOM      8  C   UNL     1       1.340   6.452  20.811  0.00  0.00    +0.000 A 
ATOM      9  C   UNL     1       2.129   7.066  19.831  0.00  0.00    +0.000 A 
ATOM     10  C   UNL     1       2.779   6.235  18.890  0.00  0.00    +0.000 A 
ATOM     11  C   UNL     1       3.554   6.750  17.731  0.00  0.00    +0.000 C 
ATOM     12  O   UNL     1       3.265   7.793  17.152  0.00  0.00    +0.000 OA
ENDROOT
BRANCH   1  13
ATOM     13  S   UNL     1       5.962   6.561  16.191  0.00  0.00    +0.000 S 
ATOM     14  O   UNL     1       5.919   5.735  14.852  0.00  0.00    +0.000 OA
BRANCH  13  15
ATOM     15  C   UNL     1       7.400   6.017  17.157  0.00  0.00    +0.000 C 
BRANCH  15  16
ATOM     16  C   UNL     1       7.689   7.037  18.247  0.00  0.00    +0.000 C 
BRANCH  16  17
ATOM     17  C   UNL     1       7.893   8.439  17.683  0.00  0.00    +0.000 C 
BRANCH  17  18
ATOM     18  C   UNL     1       8.766   9.250  18.639  0.00  0.00    +0.000 C 
BRANCH  18  19
ATOM     19  C   UNL     1       8.864  10.711  18.222  0.00  0.00    +0.000 C 
BRANCH  19  20
ATOM     20  C   UNL     1      10.297  11.052  17.817  0.00  0.00    +0.000 C 
BRANCH  20  21
ATOM     21  C   UNL     1      10.490  12.561  17.709  0.00  0.00    +0.000 C 
BRANCH  21  22
ATOM     22  C   UNL     1      11.896  12.965  18.144  0.00  0.00    +0.000 C 
BRANCH  22  24
ATOM     23  C   UNL     1      10.948  13.538  20.400  0.00  0.00    +0.000 C 
ATOM     24  C   UNL     1      12.062  12.823  19.655  0.00  0.00    +0.000 C 
ENDBRANCH  22  24
ENDBRANCH  21  22
ENDBRANCH  20  21
ENDBRANCH  19  20
ENDBRANCH  18  19
ENDBRANCH  17  18
ENDBRANCH  16  17
ENDBRANCH  15  16
ENDBRANCH  13  15
ENDBRANCH   1  13
BRANCH   6  25
ATOM     25  O   UNL     1       1.597   2.937  20.340  0.00  0.00    +0.000 OA
ATOM     26  C   UNL     1       2.227   2.287  21.421  0.00  0.00    +0.000 C 
ENDBRANCH   6  25
BRANCH   9  27
ATOM     27  O   UNL     1       2.098   8.410  20.036  0.00  0.00    +0.000 OA
ATOM     28  C   UNL     1       1.078   9.260  19.555  0.00  0.00    +0.000 C 
ENDBRANCH   9  27
TORSDOF 12
ENDMDL
MODEL 6
REMARK VINA RESULT:      -6.7      1.786      2.147
REMARK  Name = 
REMARK  15 active torsions:
REMARK  status: ('A' for Active; 'I' for Inactive)
REMARK    1  A    between atoms: C_1  and  C_2
REMARK    2  A    between atoms: C_2  and  C_3
REMARK    3  A    between atoms: C_3  and  C_4
REMARK    4  A    between atoms: C_4  and  C_5
REMARK    5  A    between atoms: C_5  and  C_6
REMARK    6  A    between atoms: C_6  and  C_7
REMARK    7  A    between atoms: C_7  and  C_8
REMARK    8  A    between atoms: C_8  and  C_9
REMARK    9  A    between atoms: C_9  and  C_10
REMARK   10  A    between atoms: C_10  and  S_11
REMARK   11  A    between atoms: S_11  and  C_13
REMARK   12  A    between atoms: C_18  and  O_19
REMARK   13  A    between atoms: O_19  and  C_20
REMARK   14  A    between atoms: C_23  and  O_24
REMARK   15  A    between atoms: O_24  and  C_25
REMARK                            x       y       z     vdW  Elec       q    Type
REMARK                         _______ _______ _______ _____ _____    ______ ____
ROOT
ATOM      1  C   UNL     1       5.550   5.917  17.827  0.00  0.00    +0.000 C 
ATOM      2  C   UNL     1       5.657   4.622  18.109  0.00  0.00    +0.000 C 
ATOM      3  C   UNL     1       4.460   3.885  18.531  0.00  0.00    +0.000 C 
ATOM      4  O   UNL     1       4.368   2.736  18.148  0.00  0.00    +0.000 OA
ATOM      5  C   UNL     1       3.422   4.622  19.304  0.00  0.00    +0.000 A 
ATOM      6  C   UNL     1       2.546   4.006  20.217  0.00  0.00    +0.000 A 
ATOM      7  C   UNL     1       1.558   4.794  20.820  0.00  0.00    +0.000 A 
ATOM      8  C   UNL     1       1.454   6.149  20.558  0.00  0.00    +0.000 A 
ATOM      9  C   UNL     1       2.325   6.800  19.677  0.00  0.00    +0.000 A 
ATOM     10  C   UNL     1       3.314   6.024  19.030  0.00  0.00    +0.000 A 
ATOM     11  C   UNL     1       4.231   6.556  17.989  0.00  0.00    +0.000 C 
ATOM     12  O   UNL     1       3.901   7.442  17.206  0.00  0.00    +0.000 OA
ENDROOT
BRANCH   1  13
ATOM     13  S   UNL     1       6.923   6.705  17.023  0.00  0.00    +0.000 S 
ATOM     14  O   UNL     1       7.386   5.710  15.895  0.00  0.00    +0.000 OA
BRANCH  13  15
ATOM     15  C   UNL     1       8.146   6.662  18.365  0.00  0.00    +0.000 C 
BRANCH  15  16
ATOM     16  C   UNL     1       8.370   8.072  18.887  0.00  0.00    +0.000 C 
BRANCH  16  17
ATOM     17  C   UNL     1       8.378   9.106  17.766  0.00  0.00    +0.000 C 
BRANCH  17  18
ATOM     18  C   UNL     1       8.507  10.505  18.366  0.00  0.00    +0.000 C 
BRANCH  18  19
ATOM     19  C   UNL     1       9.827  10.690  19.102  0.00  0.00    +0.000 C 
BRANCH  19  20
ATOM     20  C   UNL     1      10.775  11.562  18.280  0.00  0.00    +0.000 C 
BRANCH  20  21
ATOM     21  C   UNL     1      10.005  12.630  17.510  0.00  0.00    +0.000 C 
BRANCH  21  22
ATOM     22  C   UNL     1      10.676  13.993  17.649  0.00  0.00    +0.000 C 
BRANCH  22  24
ATOM     23  C   UNL     1       9.099  14.660  19.489  0.00  0.00    +0.000 C 
ATOM     24  C   UNL     1      10.555  14.520  19.077  0.00  0.00    +0.000 C 
ENDBRANCH  22  24
ENDBRANCH  21  22
ENDBRANCH  20  21
ENDBRANCH  19  20
ENDBRANCH  18  19
ENDBRANCH  17  18
ENDBRANCH  16  17
ENDBRANCH  15  16
ENDBRANCH  13  15
ENDBRANCH   1  13
BRANCH   6  25
ATOM     25  O   UNL     1       2.441   2.736  20.705  0.00  0.00    +0.000 OA
ATOM     26  C   UNL     1       1.680   2.409  21.846  0.00  0.00    +0.000 C 
ENDBRANCH   6  25
BRANCH   9  27
ATOM     27  O   UNL     1       2.006   8.122  19.658  0.00  0.00    +0.000 OA
ATOM     28  C   UNL     1       1.175   8.749  20.611  0.00  0.00    +0.000 C 
ENDBRANCH   9  27
TORSDOF 12
ENDMDL
MODEL 7
REMARK VINA RESULT:      -6.7      1.867      2.252
REMARK  Name = 
REMARK  15 active torsions:
REMARK  status: ('A' for Active; 'I' for Inactive)
REMARK    1  A    between atoms: C_1  and  C_2
REMARK    2  A    between atoms: C_2  and  C_3
REMARK    3  A    between atoms: C_3  and  C_4
REMARK    4  A    between atoms: C_4  and  C_5
REMARK    5  A    between atoms: C_5  and  C_6
REMARK    6  A    between atoms: C_6  and  C_7
REMARK    7  A    between atoms: C_7  and  C_8
REMARK    8  A    between atoms: C_8  and  C_9
REMARK    9  A    between atoms: C_9  and  C_10
REMARK   10  A    between atoms: C_10  and  S_11
REMARK   11  A    between atoms: S_11  and  C_13
REMARK   12  A    between atoms: C_18  and  O_19
REMARK   13  A    between atoms: O_19  and  C_20
REMARK   14  A    between atoms: C_23  and  O_24
REMARK   15  A    between atoms: O_24  and  C_25
REMARK                            x       y       z     vdW  Elec       q    Type
REMARK                         _______ _______ _______ _____ _____    ______ ____
ROOT
ATOM      1  C   UNL     1       5.458   5.304  17.578  0.00  0.00    +0.000 C 
ATOM      2  C   UNL     1       5.356   4.008  17.856  0.00  0.00    +0.000 C 
ATOM      3  C   UNL     1       4.061   3.474  18.295  0.00  0.00    +0.000 C 
ATOM      4  O   UNL     1       3.778   2.358  17.911  0.00  0.00    +0.000 OA
ATOM      5  C   UNL     1       3.169   4.367  19.085  0.00  0.00    +0.000 A 
ATOM      6  C   UNL     1       2.217   3.899  20.010  0.00  0.00    +0.000 A 
ATOM      7  C   UNL     1       1.381   4.835  20.629  0.00  0.00    +0.000 A 
ATOM      8  C   UNL     1       1.495   6.190  20.372  0.00  0.00    +0.000 A 
ATOM      9  C   UNL     1       2.448   6.694  19.479  0.00  0.00    +0.000 A 
ATOM     10  C   UNL     1       3.288   5.769  18.815  0.00  0.00    +0.000 A 
ATOM     11  C   UNL     1       4.263   6.149  17.761  0.00  0.00    +0.000 C 
ATOM     12  O   UNL     1       4.071   7.081  16.986  0.00  0.00    +0.000 OA
ENDROOT
BRANCH   1  13
ATOM     13  S   UNL     1       6.929   5.861  16.755  0.00  0.00    +0.000 S 
ATOM     14  O   UNL     1       7.860   4.597  16.643  0.00  0.00    +0.000 OA
BRANCH  13  15
ATOM     15  C   UNL     1       7.609   6.964  18.028  0.00  0.00    +0.000 C 
BRANCH  15  16
ATOM     16  C   UNL     1       8.283   8.151  17.357  0.00  0.00    +0.000 C 
BRANCH  16  17
ATOM     17  C   UNL     1       7.999   9.461  18.086  0.00  0.00    +0.000 C 
BRANCH  17  18
ATOM     18  C   UNL     1       9.201   9.830  18.953  0.00  0.00    +0.000 C 
BRANCH  18  19
ATOM     19  C   UNL     1       9.713  11.233  18.651  0.00  0.00    +0.000 C 
BRANCH  19  20
ATOM     20  C   UNL     1       8.643  12.042  17.920  0.00  0.00    +0.000 C 
BRANCH  20  21
ATOM     21  C   UNL     1       8.931  13.536  18.014  0.00  0.00    +0.000 C 
BRANCH  21  22
ATOM     22  C   UNL     1       7.767  14.353  17.459  0.00  0.00    +0.000 C 
BRANCH  22  24
ATOM     23  C   UNL     1       5.343  14.893  17.844  0.00  0.00    +0.000 C 
ATOM     24  C   UNL     1       6.656  14.496  18.496  0.00  0.00    +0.000 C 
ENDBRANCH  22  24
ENDBRANCH  21  22
ENDBRANCH  20  21
ENDBRANCH  19  20
ENDBRANCH  18  19
ENDBRANCH  17  18
ENDBRANCH  16  17
ENDBRANCH  15  16
ENDBRANCH  13  15
ENDBRANCH   1  13
BRANCH   6  25
ATOM     25  O   UNL     1       1.914   2.661  20.498  0.00  0.00    +0.000 OA
ATOM     26  C   UNL     1       1.431   2.444  21.804  0.00  0.00    +0.000 C 
ENDBRANCH   6  25
BRANCH   9  27
ATOM     27  O   UNL     1       2.349   8.050  19.467  0.00  0.00    +0.000 OA
ATOM     28  C   UNL     1       1.603   8.780  18.516  0.00  0.00    +0.000 C 
ENDBRANCH   9  27
TORSDOF 12
ENDMDL
MODEL 8
REMARK VINA RESULT:      -6.6      1.698      2.046
REMARK  Name = 
REMARK  15 active torsions:
REMARK  status: ('A' for Active; 'I' for Inactive)
REMARK    1  A    between atoms: C_1  and  C_2
REMARK    2  A    between atoms: C_2  and  C_3
REMARK    3  A    between atoms: C_3  and  C_4
REMARK    4  A    between atoms: C_4  and  C_5
REMARK    5  A    between atoms: C_5  and  C_6
REMARK    6  A    between atoms: C_6  and  C_7
REMARK    7  A    between atoms: C_7  and  C_8
REMARK    8  A    between atoms: C_8  and  C_9
REMARK    9  A    between atoms: C_9  and  C_10
REMARK   10  A    between atoms: C_10  and  S_11
REMARK   11  A    between atoms: S_11  and  C_13
REMARK   12  A    between atoms: C_18  and  O_19
REMARK   13  A    between atoms: O_19  and  C_20
REMARK   14  A    between atoms: C_23  and  O_24
REMARK   15  A    between atoms: O_24  and  C_25
REMARK                            x       y       z     vdW  Elec       q    Type
REMARK                         _______ _______ _______ _____ _____    ______ ____
ROOT
ATOM      1  C   UNL     1       5.337   5.928  17.472  0.00  0.00    +0.000 C 
ATOM      2  C   UNL     1       5.428   4.614  17.659  0.00  0.00    +0.000 C 
ATOM      3  C   UNL     1       4.253   3.883  18.149  0.00  0.00    +0.000 C 
ATOM      4  O   UNL     1       4.087   2.766  17.704  0.00  0.00    +0.000 OA
ATOM      5  C   UNL     1       3.319   4.595  19.065  0.00  0.00    +0.000 A 
ATOM      6  C   UNL     1       2.515   3.943  20.018  0.00  0.00    +0.000 A 
ATOM      7  C   UNL     1       1.616   4.715  20.764  0.00  0.00    +0.000 A 
ATOM      8  C   UNL     1       1.533   6.087  20.601  0.00  0.00    +0.000 A 
ATOM      9  C   UNL     1       2.336   6.772  19.682  0.00  0.00    +0.000 A 
ATOM     10  C   UNL     1       3.232   6.014  18.893  0.00  0.00    +0.000 A 
ATOM     11  C   UNL     1       4.062   6.590  17.803  0.00  0.00    +0.000 C 
ATOM     12  O   UNL     1       3.688   7.535  17.115  0.00  0.00    +0.000 OA
ENDROOT
BRANCH   1  13
ATOM     13  S   UNL     1       6.652   6.730  16.589  0.00  0.00    +0.000 S 
ATOM     14  O   UNL     1       7.509   5.573  15.953  0.00  0.00    +0.000 OA
BRANCH  13  15
ATOM     15  C   UNL     1       7.584   7.438  17.979  0.00  0.00    +0.000 C 
BRANCH  15  16
ATOM     16  C   UNL     1       8.058   8.835  17.608  0.00  0.00    +0.000 C 
BRANCH  16  17
ATOM     17  C   UNL     1       8.762   9.530  18.769  0.00  0.00    +0.000 C 
BRANCH  17  18
ATOM     18  C   UNL     1       9.573  10.710  18.237  0.00  0.00    +0.000 C 
BRANCH  18  19
ATOM     19  C   UNL     1       8.701  11.931  17.975  0.00  0.00    +0.000 C 
BRANCH  19  20
ATOM     20  C   UNL     1       9.558  13.194  17.928  0.00  0.00    +0.000 C 
BRANCH  20  21
ATOM     21  C   UNL     1      10.296  13.402  19.246  0.00  0.00    +0.000 C 
BRANCH  21  22
ATOM     22  C   UNL     1       9.459  14.232  20.216  0.00  0.00    +0.000 C 
BRANCH  22  24
ATOM     23  C   UNL     1      10.903  15.845  21.493  0.00  0.00    +0.000 C 
ATOM     24  C   UNL     1      10.220  14.488  21.514  0.00  0.00    +0.000 C 
ENDBRANCH  22  24
ENDBRANCH  21  22
ENDBRANCH  20  21
ENDBRANCH  19  20
ENDBRANCH  18  19
ENDBRANCH  17  18
ENDBRANCH  16  17
ENDBRANCH  15  16
ENDBRANCH  13  15
ENDBRANCH   1  13
BRANCH   6  25
ATOM     25  O   UNL     1       2.415   2.646  20.433  0.00  0.00    +0.000 OA
ATOM     26  C   UNL     1       2.089   2.282  21.755  0.00  0.00    +0.000 C 
ENDBRANCH   6  25
BRANCH   9  27
ATOM     27  O   UNL     1       2.061   8.100  19.778  0.00  0.00    +0.000 OA
ATOM     28  C   UNL     1       1.254   8.669  20.787  0.00  0.00    +0.000 C 
ENDBRANCH   9  27
TORSDOF 12
ENDMDL
MODEL 9
REMARK VINA RESULT:      -6.6      1.993      2.637
REMARK  Name = 
REMARK  15 active torsions:
REMARK  status: ('A' for Active; 'I' for Inactive)
REMARK    1  A    between atoms: C_1  and  C_2
REMARK    2  A    between atoms: C_2  and  C_3
REMARK    3  A    between atoms: C_3  and  C_4
REMARK    4  A    between atoms: C_4  and  C_5
REMARK    5  A    between atoms: C_5  and  C_6
REMARK    6  A    between atoms: C_6  and  C_7
REMARK    7  A    between atoms: C_7  and  C_8
REMARK    8  A    between atoms: C_8  and  C_9
REMARK    9  A    between atoms: C_9  and  C_10
REMARK   10  A    between atoms: C_10  and  S_11
REMARK   11  A    between atoms: S_11  and  C_13
REMARK   12  A    between atoms: C_18  and  O_19
REMARK   13  A    between atoms: O_19  and  C_20
REMARK   14  A    between atoms: C_23  and  O_24
REMARK   15  A    between atoms: O_24  and  C_25
REMARK                            x       y       z     vdW  Elec       q    Type
REMARK                         _______ _______ _______ _____ _____    ______ ____
ROOT
ATOM      1  C   UNL     1       4.679   5.451  17.023  0.00  0.00    +0.000 C 
ATOM      2  C   UNL     1       4.418   4.148  16.963  0.00  0.00    +0.000 C 
ATOM      3  C   UNL     1       3.143   3.654  17.495  0.00  0.00    +0.000 C 
ATOM      4  O   UNL     1       2.626   2.733  16.894  0.00  0.00    +0.000 OA
ATOM      5  C   UNL     1       2.543   4.372  18.654  0.00  0.00    +0.000 A 
ATOM      6  C   UNL     1       1.690   3.762  19.592  0.00  0.00    +0.000 A 
ATOM      7  C   UNL     1       1.124   4.564  20.591  0.00  0.00    +0.000 A 
ATOM      8  C   UNL     1       1.411   5.915  20.682  0.00  0.00    +0.000 A 
ATOM      9  C   UNL     1       2.275   6.549  19.782  0.00  0.00    +0.000 A 
ATOM     10  C   UNL     1       2.839   5.771  18.745  0.00  0.00    +0.000 A 
ATOM     11  C   UNL     1       3.680   6.331  17.656  0.00  0.00    +0.000 C 
ATOM     12  O   UNL     1       3.517   7.462  17.208  0.00  0.00    +0.000 OA
ENDROOT
BRANCH   1  13
ATOM     13  S   UNL     1       6.069   6.059  16.099  0.00  0.00    +0.000 S 
ATOM     14  O   UNL     1       6.159   5.153  14.816  0.00  0.00    +0.000 OA
BRANCH  13  15
ATOM     15  C   UNL     1       7.422   5.602  17.221  0.00  0.00    +0.000 C 
BRANCH  15  16
ATOM     16  C   UNL     1       7.661   6.733  18.209  0.00  0.00    +0.000 C 
BRANCH  16  17
ATOM     17  C   UNL     1       7.136   8.069  17.691  0.00  0.00    +0.000 C 
BRANCH  17  18
ATOM     18  C   UNL     1       8.293   9.059  17.578  0.00  0.00    +0.000 C 
BRANCH  18  19
ATOM     19  C   UNL     1       8.903   9.383  18.935  0.00  0.00    +0.000 C 
BRANCH  19  20
ATOM     20  C   UNL     1       9.114  10.889  19.077  0.00  0.00    +0.000 C 
BRANCH  20  21
ATOM     21  C   UNL     1      10.560  11.268  18.776  0.00  0.00    +0.000 C 
BRANCH  21  22
ATOM     22  C   UNL     1      10.635  12.268  17.626  0.00  0.00    +0.000 C 
BRANCH  22  24
ATOM     23  C   UNL     1      12.265  14.057  18.306  0.00  0.00    +0.000 C 
ATOM     24  C   UNL     1      12.053  12.810  17.464  0.00  0.00    +0.000 C 
ENDBRANCH  22  24
ENDBRANCH  21  22
ENDBRANCH  20  21
ENDBRANCH  19  20
ENDBRANCH  18  19
ENDBRANCH  17  18
ENDBRANCH  16  17
ENDBRANCH  15  16
ENDBRANCH  13  15
ENDBRANCH   1  13
BRANCH   6  25
ATOM     25  O   UNL     1       1.276   2.476  19.786  0.00  0.00    +0.000 OA
ATOM     26  C   UNL     1       0.347   1.830  18.945  0.00  0.00    +0.000 C 
ENDBRANCH   6  25
BRANCH   9  27
ATOM     27  O   UNL     1       2.393   7.853  20.148  0.00  0.00    +0.000 OA
ATOM     28  C   UNL     1       1.320   8.770  20.166  0.00  0.00    +0.000 C 
ENDBRANCH   9  27
TORSDOF 12
ENDMDL
