MODEL 1
REMARK VINA RESULT:      -7.6      0.000      0.000
REMARK  Name = 
REMARK  6 active torsions:
REMARK  status: ('A' for Active; 'I' for Inactive)
REMARK    1  A    between atoms: C_3  and  S_4
REMARK    2  A    between atoms: S_4  and  C_7
REMARK    3  A    between atoms: C_13  and  N_14
REMARK    4  A    between atoms: N_14  and  C_15
REMARK    5  A    between atoms: C_15  and  C_16
REMARK    6  A    between atoms: C_16  and  O_17
REMARK                            x       y       z     vdW  Elec       q    Type
REMARK                         _______ _______ _______ _____ _____    ______ ____
ROOT
ATOM      1  N   UNL     1       5.646   3.327  19.072  0.00  0.00    +0.000 NA
ATOM      2  C   UNL     1       4.711   4.232  19.118  0.00  0.00    +0.000 A 
ATOM      3  C   UNL     1       4.835   5.609  18.513  0.00  0.00    +0.000 A 
ATOM      4  C   UNL     1       3.699   6.359  18.521  0.00  0.00    +0.000 A 
ATOM      5  N   UNL     1       2.553   6.045  19.233  0.00  0.00    +0.000 NA
ATOM      6  C   UNL     1       2.455   4.860  19.761  0.00  0.00    +0.000 A 
ATOM      7  C   UNL     1       1.136   4.532  20.412  0.00  0.00    +0.000 A 
ATOM      8  C   UNL     1       0.954   3.281  20.860  0.00  0.00    +0.000 A 
ATOM      9  C   UNL     1       2.002   2.292  20.758  0.00  0.00    +0.000 A 
ATOM     10  C   UNL     1       3.188   2.635  20.229  0.00  0.00    +0.000 A 
ATOM     11  N   UNL     1       3.481   3.912  19.727  0.00  0.00    +0.000 N 
ATOM     12  H   UNL     1       6.486   3.593  18.561  0.00  0.00    +0.000 HD
ENDROOT
BRANCH   3  13
ATOM     13  S   UNL     1       6.197   6.117  17.554  0.00  0.00    +0.000 S 
ATOM     14  O   UNL     1       6.006   7.530  17.264  0.00  0.00    +0.000 OA
ATOM     15  O   UNL     1       7.473   5.667  18.087  0.00  0.00    +0.000 OA
BRANCH  13  16
ATOM     16  C   UNL     1       6.146   5.296  15.949  0.00  0.00    +0.000 A 
ATOM     17  C   UNL     1       7.266   5.379  15.103  0.00  0.00    +0.000 A 
ATOM     18  C   UNL     1       7.258   4.738  13.862  0.00  0.00    +0.000 A 
ATOM     19  C   UNL     1       6.150   3.988  13.473  0.00  0.00    +0.000 A 
ATOM     20  C   UNL     1       5.065   3.845  14.345  0.00  0.00    +0.000 A 
ATOM     21  C   UNL     1       5.063   4.487  15.590  0.00  0.00    +0.000 A 
ENDBRANCH  13  16
ENDBRANCH   3  13
BRANCH   4  22
ATOM     22  N   UNL     1       3.542   7.518  17.775  0.00  0.00    +0.000 N 
ATOM     23  H   UNL     1       4.144   8.231  18.188  0.00  0.00    +0.000 HD
BRANCH  22  24
ATOM     24  C   UNL     1       2.210   8.127  17.536  0.00  0.00    +0.000 C 
BRANCH  24  25
ATOM     25  C   UNL     1       1.967   9.470  18.247  0.00  0.00    +0.000 C 
BRANCH  25  26
ATOM     26  O   UNL     1       2.094  10.566  17.341  0.00  0.00    +0.000 OA
ATOM     27  H   UNL     1       1.299  11.116  17.490  0.00  0.00    +0.000 HD
ENDBRANCH  25  26
ENDBRANCH  24  25
ENDBRANCH  22  24
ENDBRANCH   4  22
TORSDOF 6
ENDMDL
MODEL 2
REMARK VINA RESULT:      -7.5      2.585      6.277
REMARK  Name = 
REMARK  6 active torsions:
REMARK  status: ('A' for Active; 'I' for Inactive)
REMARK    1  A    between atoms: C_3  and  S_4
REMARK    2  A    between atoms: S_4  and  C_7
REMARK    3  A    between atoms: C_13  and  N_14
REMARK    4  A    between atoms: N_14  and  C_15
REMARK    5  A    between atoms: C_15  and  C_16
REMARK    6  A    between atoms: C_16  and  O_17
REMARK                            x       y       z     vdW  Elec       q    Type
REMARK                         _______ _______ _______ _____ _____    ______ ____
ROOT
ATOM      1  N   UNL     1       7.685   6.336  16.456  0.00  0.00    +0.000 NA
ATOM      2  C   UNL     1       6.990   5.291  16.108  0.00  0.00    +0.000 A 
ATOM      3  C   UNL     1       6.116   4.504  17.054  0.00  0.00    +0.000 A 
ATOM      4  C   UNL     1       5.342   3.544  16.476  0.00  0.00    +0.000 A 
ATOM      5  N   UNL     1       5.480   3.101  15.171  0.00  0.00    +0.000 NA
ATOM      6  C   UNL     1       6.243   3.778  14.363  0.00  0.00    +0.000 A 
ATOM      7  C   UNL     1       6.252   3.326  12.926  0.00  0.00    +0.000 A 
ATOM      8  C   UNL     1       6.930   4.070  12.039  0.00  0.00    +0.000 A 
ATOM      9  C   UNL     1       7.660   5.245  12.456  0.00  0.00    +0.000 A 
ATOM     10  C   UNL     1       7.682   5.586  13.755  0.00  0.00    +0.000 A 
ATOM     11  N   UNL     1       7.004   4.880  14.761  0.00  0.00    +0.000 N 
ATOM     12  H   UNL     1       7.582   6.626  17.427  0.00  0.00    +0.000 HD
ENDROOT
BRANCH   3  13
ATOM     13  S   UNL     1       5.817   4.976  18.703  0.00  0.00    +0.000 S 
ATOM     14  O   UNL     1       5.432   3.771  19.424  0.00  0.00    +0.000 OA
ATOM     15  O   UNL     1       6.857   5.830  19.252  0.00  0.00    +0.000 OA
BRANCH  13  16
ATOM     16  C   UNL     1       4.369   6.049  18.773  0.00  0.00    +0.000 A 
ATOM     17  C   UNL     1       4.144   6.962  17.730  0.00  0.00    +0.000 A 
ATOM     18  C   UNL     1       3.021   7.793  17.753  0.00  0.00    +0.000 A 
ATOM     19  C   UNL     1       2.103   7.694  18.796  0.00  0.00    +0.000 A 
ATOM     20  C   UNL     1       2.288   6.734  19.797  0.00  0.00    +0.000 A 
ATOM     21  C   UNL     1       3.414   5.900  19.784  0.00  0.00    +0.000 A 
ENDBRANCH  13  16
ENDBRANCH   3  13
BRANCH   4  22
ATOM     22  N   UNL     1       4.288   2.918  17.125  0.00  0.00    +0.000 N 
ATOM     23  H   UNL     1       4.318   1.930  16.875  0.00  0.00    +0.000 HD
BRANCH  22  24
ATOM     24  C   UNL     1       2.886   3.384  16.981  0.00  0.00    +0.000 C 
BRANCH  24  25
ATOM     25  C   UNL     1       1.897   2.812  18.011  0.00  0.00    +0.000 C 
BRANCH  25  26
ATOM     26  O   UNL     1       2.363   1.573  18.544  0.00  0.00    +0.000 OA
ATOM     27  H   UNL     1       2.542   1.009  17.765  0.00  0.00    +0.000 HD
ENDBRANCH  25  26
ENDBRANCH  24  25
ENDBRANCH  22  24
ENDBRANCH   4  22
TORSDOF 6
ENDMDL
MODEL 3
REMARK VINA RESULT:      -7.5      1.732      3.453
REMARK  Name = 
REMARK  6 active torsions:
REMARK  status: ('A' for Active; 'I' for Inactive)
REMARK    1  A    between atoms: C_3  and  S_4
REMARK    2  A    between atoms: S_4  and  C_7
REMARK    3  A    between atoms: C_13  and  N_14
REMARK    4  A    between atoms: N_14  and  C_15
REMARK    5  A    between atoms: C_15  and  C_16
REMARK    6  A    between atoms: C_16  and  O_17
REMARK                            x       y       z     vdW  Elec       q    Type
REMARK                         _______ _______ _______ _____ _____    ______ ____
ROOT
ATOM      1  N   UNL     1       2.660   6.416  17.741  0.00  0.00    +0.000 NA
ATOM      2  C   UNL     1       3.465   5.456  18.098  0.00  0.00    +0.000 A 
ATOM      3  C   UNL     1       4.814   5.205  17.470  0.00  0.00    +0.000 A 
ATOM      4  C   UNL     1       5.579   4.259  18.081  0.00  0.00    +0.000 A 
ATOM      5  N   UNL     1       5.123   3.382  19.051  0.00  0.00    +0.000 NA
ATOM      6  C   UNL     1       3.955   3.598  19.582  0.00  0.00    +0.000 A 
ATOM      7  C   UNL     1       3.567   2.690  20.721  0.00  0.00    +0.000 A 
ATOM      8  C   UNL     1       2.425   2.956  21.373  0.00  0.00    +0.000 A 
ATOM      9  C   UNL     1       1.576   4.053  20.971  0.00  0.00    +0.000 A 
ATOM     10  C   UNL     1       1.920   4.805  19.913  0.00  0.00    +0.000 A 
ATOM     11  N   UNL     1       3.092   4.616  19.166  0.00  0.00    +0.000 N 
ATOM     12  H   UNL     1       3.013   7.032  17.010  0.00  0.00    +0.000 HD
ENDROOT
BRANCH   3  13
ATOM     13  S   UNL     1       5.528   6.254  16.278  0.00  0.00    +0.000 S 
ATOM     14  O   UNL     1       4.482   7.165  15.836  0.00  0.00    +0.000 OA
ATOM     15  O   UNL     1       6.814   6.795  16.687  0.00  0.00    +0.000 OA
BRANCH  13  16
ATOM     16  C   UNL     1       5.968   5.297  14.814  0.00  0.00    +0.000 A 
ATOM     17  C   UNL     1       7.235   5.478  14.234  0.00  0.00    +0.000 A 
ATOM     18  C   UNL     1       7.606   4.736  13.110  0.00  0.00    +0.000 A 
ATOM     19  C   UNL     1       6.730   3.791  12.580  0.00  0.00    +0.000 A 
ATOM     20  C   UNL     1       5.498   3.558  13.201  0.00  0.00    +0.000 A 
ATOM     21  C   UNL     1       5.117   4.300  14.326  0.00  0.00    +0.000 A 
ENDBRANCH  13  16
ENDBRANCH   3  13
BRANCH   4  22
ATOM     22  N   UNL     1       6.932   4.089  17.827  0.00  0.00    +0.000 N 
ATOM     23  H   UNL     1       7.139   3.095  17.928  0.00  0.00    +0.000 HD
BRANCH  22  24
ATOM     24  C   UNL     1       7.974   4.850  18.560  0.00  0.00    +0.000 C 
BRANCH  24  25
ATOM     25  C   UNL     1       7.477   5.611  19.801  0.00  0.00    +0.000 C 
BRANCH  25  26
ATOM     26  O   UNL     1       8.245   5.275  20.957  0.00  0.00    +0.000 OA
ATOM     27  H   UNL     1       8.999   5.898  20.955  0.00  0.00    +0.000 HD
ENDBRANCH  25  26
ENDBRANCH  24  25
ENDBRANCH  22  24
ENDBRANCH   4  22
TORSDOF 6
ENDMDL
MODEL 4
REMARK VINA RESULT:      -7.4      0.554      1.127
REMARK  Name = 
REMARK  6 active torsions:
REMARK  status: ('A' for Active; 'I' for Inactive)
REMARK    1  A    between atoms: C_3  and  S_4
REMARK    2  A    between atoms: S_4  and  C_7
REMARK    3  A    between atoms: C_13  and  N_14
REMARK    4  A    between atoms: N_14  and  C_15
REMARK    5  A    between atoms: C_15  and  C_16
REMARK    6  A    between atoms: C_16  and  O_17
REMARK                            x       y       z     vdW  Elec       q    Type
REMARK                         _______ _______ _______ _____ _____    ______ ____
ROOT
ATOM      1  N   UNL     1       5.537   2.882  19.519  0.00  0.00    +0.000 NA
ATOM      2  C   UNL     1       4.713   3.883  19.399  0.00  0.00    +0.000 A 
ATOM      3  C   UNL     1       5.062   5.192  18.733  0.00  0.00    +0.000 A 
ATOM      4  C   UNL     1       4.026   6.057  18.560  0.00  0.00    +0.000 A 
ATOM      5  N   UNL     1       2.779   5.921  19.148  0.00  0.00    +0.000 NA
ATOM      6  C   UNL     1       2.487   4.795  19.731  0.00  0.00    +0.000 A 
ATOM      7  C   UNL     1       1.075   4.657  20.237  0.00  0.00    +0.000 A 
ATOM      8  C   UNL     1       0.701   3.469  20.734  0.00  0.00    +0.000 A 
ATOM      9  C   UNL     1       1.633   2.369  20.817  0.00  0.00    +0.000 A 
ATOM     10  C   UNL     1       2.902   2.543  20.413  0.00  0.00    +0.000 A 
ATOM     11  N   UNL     1       3.394   3.742  19.875  0.00  0.00    +0.000 N 
ATOM     12  H   UNL     1       6.454   3.018  19.096  0.00  0.00    +0.000 HD
ENDROOT
BRANCH   3  13
ATOM     13  S   UNL     1       6.572   5.479  17.914  0.00  0.00    +0.000 S 
ATOM     14  O   UNL     1       6.724   6.923  17.803  0.00  0.00    +0.000 OA
ATOM     15  O   UNL     1       7.671   4.689  18.444  0.00  0.00    +0.000 OA
BRANCH  13  16
ATOM     16  C   UNL     1       6.462   4.885  16.215  0.00  0.00    +0.000 A 
ATOM     17  C   UNL     1       5.372   4.081  15.841  0.00  0.00    +0.000 A 
ATOM     18  C   UNL     1       5.256   3.622  14.527  0.00  0.00    +0.000 A 
ATOM     19  C   UNL     1       6.206   3.987  13.575  0.00  0.00    +0.000 A 
ATOM     20  C   UNL     1       7.251   4.847  13.930  0.00  0.00    +0.000 A 
ATOM     21  C   UNL     1       7.377   5.309  15.246  0.00  0.00    +0.000 A 
ENDBRANCH  13  16
ENDBRANCH   3  13
BRANCH   4  22
ATOM     22  N   UNL     1       4.088   7.170  17.734  0.00  0.00    +0.000 N 
ATOM     23  H   UNL     1       4.697   7.852  18.185  0.00  0.00    +0.000 HD
BRANCH  22  24
ATOM     24  C   UNL     1       2.867   7.879  17.275  0.00  0.00    +0.000 C 
BRANCH  24  25
ATOM     25  C   UNL     1       2.465   9.102  18.117  0.00  0.00    +0.000 C 
BRANCH  25  26
ATOM     26  O   UNL     1       1.653  10.003  17.367  0.00  0.00    +0.000 OA
ATOM     27  H   UNL     1       2.265  10.692  17.040  0.00  0.00    +0.000 HD
ENDBRANCH  25  26
ENDBRANCH  24  25
ENDBRANCH  22  24
ENDBRANCH   4  22
TORSDOF 6
ENDMDL
MODEL 5
REMARK VINA RESULT:      -7.3      2.558      6.304
REMARK  Name = 
REMARK  6 active torsions:
REMARK  status: ('A' for Active; 'I' for Inactive)
REMARK    1  A    between atoms: C_3  and  S_4
REMARK    2  A    between atoms: S_4  and  C_7
REMARK    3  A    between atoms: C_13  and  N_14
REMARK    4  A    between atoms: N_14  and  C_15
REMARK    5  A    between atoms: C_15  and  C_16
REMARK    6  A    between atoms: C_16  and  O_17
REMARK                            x       y       z     vdW  Elec       q    Type
REMARK                         _______ _______ _______ _____ _____    ______ ____
ROOT
ATOM      1  N   UNL     1       7.635   6.384  16.390  0.00  0.00    +0.000 NA
ATOM      2  C   UNL     1       6.963   5.322  16.050  0.00  0.00    +0.000 A 
ATOM      3  C   UNL     1       6.100   4.527  16.999  0.00  0.00    +0.000 A 
ATOM      4  C   UNL     1       5.350   3.545  16.428  0.00  0.00    +0.000 A 
ATOM      5  N   UNL     1       5.505   3.090  15.128  0.00  0.00    +0.000 NA
ATOM      6  C   UNL     1       6.259   3.774  14.318  0.00  0.00    +0.000 A 
ATOM      7  C   UNL     1       6.286   3.306  12.885  0.00  0.00    +0.000 A 
ATOM      8  C   UNL     1       6.954   4.054  11.995  0.00  0.00    +0.000 A 
ATOM      9  C   UNL     1       7.657   5.248  12.403  0.00  0.00    +0.000 A 
ATOM     10  C   UNL     1       7.663   5.604  13.698  0.00  0.00    +0.000 A 
ATOM     11  N   UNL     1       6.995   4.896  14.708  0.00  0.00    +0.000 N 
ATOM     12  H   UNL     1       7.519   6.683  17.357  0.00  0.00    +0.000 HD
ENDROOT
BRANCH   3  13
ATOM     13  S   UNL     1       5.781   5.011  18.641  0.00  0.00    +0.000 S 
ATOM     14  O   UNL     1       5.424   3.805  19.375  0.00  0.00    +0.000 OA
ATOM     15  O   UNL     1       6.797   5.897  19.185  0.00  0.00    +0.000 OA
BRANCH  13  16
ATOM     16  C   UNL     1       4.306   6.048  18.692  0.00  0.00    +0.000 A 
ATOM     17  C   UNL     1       3.413   5.913  19.768  0.00  0.00    +0.000 A 
ATOM     18  C   UNL     1       2.273   6.716  19.839  0.00  0.00    +0.000 A 
ATOM     19  C   UNL     1       2.035   7.676  18.857  0.00  0.00    +0.000 A 
ATOM     20  C   UNL     1       2.962   7.860  17.825  0.00  0.00    +0.000 A 
ATOM     21  C   UNL     1       4.106   7.056  17.744  0.00  0.00    +0.000 A 
ENDBRANCH  13  16
ENDBRANCH   3  13
BRANCH   4  22
ATOM     22  N   UNL     1       4.305   2.904  17.078  0.00  0.00    +0.000 N 
ATOM     23  H   UNL     1       4.336   1.920  16.810  0.00  0.00    +0.000 HD
BRANCH  22  24
ATOM     24  C   UNL     1       2.900   3.367  16.957  0.00  0.00    +0.000 C 
BRANCH  24  25
ATOM     25  C   UNL     1       1.965   2.923  18.095  0.00  0.00    +0.000 C 
BRANCH  25  26
ATOM     26  O   UNL     1       2.705   2.519  19.246  0.00  0.00    +0.000 OA
ATOM     27  H   UNL     1       3.381   3.214  19.375  0.00  0.00    +0.000 HD
ENDBRANCH  25  26
ENDBRANCH  24  25
ENDBRANCH  22  24
ENDBRANCH   4  22
TORSDOF 6
ENDMDL
MODEL 6
REMARK VINA RESULT:      -7.3      2.201      2.969
REMARK  Name = 
REMARK  6 active torsions:
REMARK  status: ('A' for Active; 'I' for Inactive)
REMARK    1  A    between atoms: C_3  and  S_4
REMARK    2  A    between atoms: S_4  and  C_7
REMARK    3  A    between atoms: C_13  and  N_14
REMARK    4  A    between atoms: N_14  and  C_15
REMARK    5  A    between atoms: C_15  and  C_16
REMARK    6  A    between atoms: C_16  and  O_17
REMARK                            x       y       z     vdW  Elec       q    Type
REMARK                         _______ _______ _______ _____ _____    ______ ____
ROOT
ATOM      1  N   UNL     1       4.769   2.814  17.014  0.00  0.00    +0.000 NA
ATOM      2  C   UNL     1       4.089   3.758  17.599  0.00  0.00    +0.000 A 
ATOM      3  C   UNL     1       4.383   5.230  17.447  0.00  0.00    +0.000 A 
ATOM      4  C   UNL     1       3.468   6.072  18.003  0.00  0.00    +0.000 A 
ATOM      5  N   UNL     1       2.460   5.679  18.868  0.00  0.00    +0.000 NA
ATOM      6  C   UNL     1       2.218   4.408  19.003  0.00  0.00    +0.000 A 
ATOM      7  C   UNL     1       1.029   4.047  19.855  0.00  0.00    +0.000 A 
ATOM      8  C   UNL     1       0.674   2.755  19.919  0.00  0.00    +0.000 A 
ATOM      9  C   UNL     1       1.432   1.739  19.227  0.00  0.00    +0.000 A 
ATOM     10  C   UNL     1       2.523   2.087  18.526  0.00  0.00    +0.000 A 
ATOM     11  N   UNL     1       2.977   3.408  18.390  0.00  0.00    +0.000 N 
ATOM     12  H   UNL     1       5.519   3.131  16.401  0.00  0.00    +0.000 HD
ENDROOT
BRANCH   3  13
ATOM     13  S   UNL     1       5.587   5.862  16.359  0.00  0.00    +0.000 S 
ATOM     14  O   UNL     1       6.305   4.719  15.815  0.00  0.00    +0.000 OA
ATOM     15  O   UNL     1       5.065   6.870  15.450  0.00  0.00    +0.000 OA
BRANCH  13  16
ATOM     16  C   UNL     1       6.818   6.793  17.292  0.00  0.00    +0.000 A 
ATOM     17  C   UNL     1       6.994   8.159  17.017  0.00  0.00    +0.000 A 
ATOM     18  C   UNL     1       7.929   8.906  17.737  0.00  0.00    +0.000 A 
ATOM     19  C   UNL     1       8.668   8.303  18.753  0.00  0.00    +0.000 A 
ATOM     20  C   UNL     1       8.441   6.961  19.076  0.00  0.00    +0.000 A 
ATOM     21  C   UNL     1       7.507   6.204  18.356  0.00  0.00    +0.000 A 
ENDBRANCH  13  16
ENDBRANCH   3  13
BRANCH   4  22
ATOM     22  N   UNL     1       3.417   7.431  17.733  0.00  0.00    +0.000 N 
ATOM     23  H   UNL     1       4.370   7.791  17.792  0.00  0.00    +0.000 HD
BRANCH  22  24
ATOM     24  C   UNL     1       2.533   8.352  18.491  0.00  0.00    +0.000 C 
BRANCH  24  25
ATOM     25  C   UNL     1       1.515   9.131  17.640  0.00  0.00    +0.000 C 
BRANCH  25  26
ATOM     26  O   UNL     1       1.930  10.483  17.445  0.00  0.00    +0.000 OA
ATOM     27  H   UNL     1       2.073  10.572  16.482  0.00  0.00    +0.000 HD
ENDBRANCH  25  26
ENDBRANCH  24  25
ENDBRANCH  22  24
ENDBRANCH   4  22
TORSDOF 6
ENDMDL
MODEL 7
REMARK VINA RESULT:      -7.3      2.187      3.010
REMARK  Name = 
REMARK  6 active torsions:
REMARK  status: ('A' for Active; 'I' for Inactive)
REMARK    1  A    between atoms: C_3  and  S_4
REMARK    2  A    between atoms: S_4  and  C_7
REMARK    3  A    between atoms: C_13  and  N_14
REMARK    4  A    between atoms: N_14  and  C_15
REMARK    5  A    between atoms: C_15  and  C_16
REMARK    6  A    between atoms: C_16  and  O_17
REMARK                            x       y       z     vdW  Elec       q    Type
REMARK                         _______ _______ _______ _____ _____    ______ ____
ROOT
ATOM      1  N   UNL     1       4.834   2.903  17.084  0.00  0.00    +0.000 NA
ATOM      2  C   UNL     1       4.129   3.835  17.659  0.00  0.00    +0.000 A 
ATOM      3  C   UNL     1       4.393   5.313  17.505  0.00  0.00    +0.000 A 
ATOM      4  C   UNL     1       3.457   6.137  18.050  0.00  0.00    +0.000 A 
ATOM      5  N   UNL     1       2.450   5.726  18.908  0.00  0.00    +0.000 NA
ATOM      6  C   UNL     1       2.233   4.451  19.045  0.00  0.00    +0.000 A 
ATOM      7  C   UNL     1       1.044   4.068  19.888  0.00  0.00    +0.000 A 
ATOM      8  C   UNL     1       0.715   2.769  19.954  0.00  0.00    +0.000 A 
ATOM      9  C   UNL     1       1.500   1.766  19.272  0.00  0.00    +0.000 A 
ATOM     10  C   UNL     1       2.590   2.135  18.579  0.00  0.00    +0.000 A 
ATOM     11  N   UNL     1       3.018   3.464  18.443  0.00  0.00    +0.000 N 
ATOM     12  H   UNL     1       5.582   3.233  16.476  0.00  0.00    +0.000 HD
ENDROOT
BRANCH   3  13
ATOM     13  S   UNL     1       5.593   5.966  16.425  0.00  0.00    +0.000 S 
ATOM     14  O   UNL     1       6.350   4.837  15.902  0.00  0.00    +0.000 OA
ATOM     15  O   UNL     1       5.056   6.950  15.499  0.00  0.00    +0.000 OA
BRANCH  13  16
ATOM     16  C   UNL     1       6.787   6.939  17.363  0.00  0.00    +0.000 A 
ATOM     17  C   UNL     1       7.521   6.318  18.388  0.00  0.00    +0.000 A 
ATOM     18  C   UNL     1       8.463   7.046  19.118  0.00  0.00    +0.000 A 
ATOM     19  C   UNL     1       8.700   8.384  18.809  0.00  0.00    +0.000 A 
ATOM     20  C   UNL     1       8.023   8.982  17.741  0.00  0.00    +0.000 A 
ATOM     21  C   UNL     1       7.073   8.261  17.006  0.00  0.00    +0.000 A 
ENDBRANCH  13  16
ENDBRANCH   3  13
BRANCH   4  22
ATOM     22  N   UNL     1       3.379   7.494  17.775  0.00  0.00    +0.000 N 
ATOM     23  H   UNL     1       3.892   7.984  18.508  0.00  0.00    +0.000 HD
BRANCH  22  24
ATOM     24  C   UNL     1       2.080   8.186  17.584  0.00  0.00    +0.000 C 
BRANCH  24  25
ATOM     25  C   UNL     1       1.935   9.524  18.329  0.00  0.00    +0.000 C 
BRANCH  25  26
ATOM     26  O   UNL     1       1.999  10.629  17.429  0.00  0.00    +0.000 OA
ATOM     27  H   UNL     1       2.358  10.262  16.596  0.00  0.00    +0.000 HD
ENDBRANCH  25  26
ENDBRANCH  24  25
ENDBRANCH  22  24
ENDBRANCH   4  22
TORSDOF 6
ENDMDL
MODEL 8
REMARK VINA RESULT:      -7.3      2.750      5.092
REMARK  Name = 
REMARK  6 active torsions:
REMARK  status: ('A' for Active; 'I' for Inactive)
REMARK    1  A    between atoms: C_3  and  S_4
REMARK    2  A    between atoms: S_4  and  C_7
REMARK    3  A    between atoms: C_13  and  N_14
REMARK    4  A    between atoms: N_14  and  C_15
REMARK    5  A    between atoms: C_15  and  C_16
REMARK    6  A    between atoms: C_16  and  O_17
REMARK                            x       y       z     vdW  Elec       q    Type
REMARK                         _______ _______ _______ _____ _____    ______ ____
ROOT
ATOM      1  N   UNL     1       2.869   8.093  17.222  0.00  0.00    +0.000 NA
ATOM      2  C   UNL     1       2.481   7.561  18.346  0.00  0.00    +0.000 A 
ATOM      3  C   UNL     1       2.869   6.177  18.804  0.00  0.00    +0.000 A 
ATOM      4  C   UNL     1       2.501   5.855  20.075  0.00  0.00    +0.000 A 
ATOM      5  N   UNL     1       1.623   6.593  20.852  0.00  0.00    +0.000 NA
ATOM      6  C   UNL     1       1.284   7.782  20.446  0.00  0.00    +0.000 A 
ATOM      7  C   UNL     1       0.432   8.587  21.393  0.00  0.00    +0.000 A 
ATOM      8  C   UNL     1       0.162   9.859  21.065  0.00  0.00    +0.000 A 
ATOM      9  C   UNL     1       0.641  10.427  19.826  0.00  0.00    +0.000 A 
ATOM     10  C   UNL     1       1.347   9.663  18.975  0.00  0.00    +0.000 A 
ATOM     11  N   UNL     1       1.687   8.325  19.223  0.00  0.00    +0.000 N 
ATOM     12  H   UNL     1       3.496   7.519  16.660  0.00  0.00    +0.000 HD
ENDROOT
BRANCH   3  13
ATOM     13  S   UNL     1       3.999   5.164  17.951  0.00  0.00    +0.000 S 
ATOM     14  O   UNL     1       3.977   3.863  18.603  0.00  0.00    +0.000 OA
ATOM     15  O   UNL     1       3.856   5.236  16.506  0.00  0.00    +0.000 OA
BRANCH  13  16
ATOM     16  C   UNL     1       5.675   5.785  18.197  0.00  0.00    +0.000 A 
ATOM     17  C   UNL     1       6.150   6.815  17.368  0.00  0.00    +0.000 A 
ATOM     18  C   UNL     1       7.438   7.325  17.548  0.00  0.00    +0.000 A 
ATOM     19  C   UNL     1       8.243   6.834  18.575  0.00  0.00    +0.000 A 
ATOM     20  C   UNL     1       7.743   5.861  19.446  0.00  0.00    +0.000 A 
ATOM     21  C   UNL     1       6.454   5.341  19.269  0.00  0.00    +0.000 A 
ENDBRANCH  13  16
ENDBRANCH   3  13
BRANCH   4  22
ATOM     22  N   UNL     1       3.000   4.758  20.761  0.00  0.00    +0.000 N 
ATOM     23  H   UNL     1       3.562   4.216  20.104  0.00  0.00    +0.000 HD
BRANCH  22  24
ATOM     24  C   UNL     1       2.115   3.816  21.491  0.00  0.00    +0.000 C 
BRANCH  24  25
ATOM     25  C   UNL     1       1.145   3.012  20.608  0.00  0.00    +0.000 C 
BRANCH  25  26
ATOM     26  O   UNL     1       1.849   2.231  19.644  0.00  0.00    +0.000 OA
ATOM     27  H   UNL     1       1.558   1.309  19.796  0.00  0.00    +0.000 HD
ENDBRANCH  25  26
ENDBRANCH  24  25
ENDBRANCH  22  24
ENDBRANCH   4  22
TORSDOF 6
ENDMDL
MODEL 9
REMARK VINA RESULT:      -7.0      2.240      4.386
REMARK  Name = 
REMARK  6 active torsions:
REMARK  status: ('A' for Active; 'I' for Inactive)
REMARK    1  A    between atoms: C_3  and  S_4
REMARK    2  A    between atoms: S_4  and  C_7
REMARK    3  A    between atoms: C_13  and  N_14
REMARK    4  A    between atoms: N_14  and  C_15
REMARK    5  A    between atoms: C_15  and  C_16
REMARK    6  A    between atoms: C_16  and  O_17
REMARK                            x       y       z     vdW  Elec       q    Type
REMARK                         _______ _______ _______ _____ _____    ______ ____
ROOT
ATOM      1  N   UNL     1       4.337   7.057  17.084  0.00  0.00    +0.000 NA
ATOM      2  C   UNL     1       3.568   6.824  18.109  0.00  0.00    +0.000 A 
ATOM      3  C   UNL     1       3.645   5.580  18.959  0.00  0.00    +0.000 A 
ATOM      4  C   UNL     1       2.872   5.586  20.080  0.00  0.00    +0.000 A 
ATOM      5  N   UNL     1       1.882   6.517  20.349  0.00  0.00    +0.000 NA
ATOM      6  C   UNL     1       1.814   7.583  19.606  0.00  0.00    +0.000 A 
ATOM      7  C   UNL     1       0.804   8.619  20.026  0.00  0.00    +0.000 A 
ATOM      8  C   UNL     1       0.787   9.783  19.358  0.00  0.00    +0.000 A 
ATOM      9  C   UNL     1       1.681  10.019  18.249  0.00  0.00    +0.000 A 
ATOM     10  C   UNL     1       2.527   9.051  17.862  0.00  0.00    +0.000 A 
ATOM     11  N   UNL     1       2.629   7.802  18.492  0.00  0.00    +0.000 N 
ATOM     12  H   UNL     1       5.041   6.345  16.896  0.00  0.00    +0.000 HD
ENDROOT
BRANCH   3  13
ATOM     13  S   UNL     1       4.868   4.356  18.762  0.00  0.00    +0.000 S 
ATOM     14  O   UNL     1       5.962   4.704  19.656  0.00  0.00    +0.000 OA
ATOM     15  O   UNL     1       4.334   3.004  18.786  0.00  0.00    +0.000 OA
BRANCH  13  16
ATOM     16  C   UNL     1       5.565   4.459  17.102  0.00  0.00    +0.000 A 
ATOM     17  C   UNL     1       6.905   4.851  16.947  0.00  0.00    +0.000 A 
ATOM     18  C   UNL     1       7.474   4.922  15.672  0.00  0.00    +0.000 A 
ATOM     19  C   UNL     1       6.720   4.573  14.554  0.00  0.00    +0.000 A 
ATOM     20  C   UNL     1       5.409   4.113  14.714  0.00  0.00    +0.000 A 
ATOM     21  C   UNL     1       4.830   4.042  15.988  0.00  0.00    +0.000 A 
ENDBRANCH  13  16
ENDBRANCH   3  13
BRANCH   4  22
ATOM     22  N   UNL     1       3.015   4.672  21.113  0.00  0.00    +0.000 N 
ATOM     23  H   UNL     1       3.868   4.141  20.936  0.00  0.00    +0.000 HD
BRANCH  22  24
ATOM     24  C   UNL     1       1.942   3.709  21.467  0.00  0.00    +0.000 C 
BRANCH  24  25
ATOM     25  C   UNL     1       1.122   3.177  20.279  0.00  0.00    +0.000 C 
BRANCH  25  26
ATOM     26  O   UNL     1       1.791   2.096  19.631  0.00  0.00    +0.000 OA
ATOM     27  H   UNL     1       2.186   2.484  18.825  0.00  0.00    +0.000 HD
ENDBRANCH  25  26
ENDBRANCH  24  25
ENDBRANCH  22  24
ENDBRANCH   4  22
TORSDOF 6
ENDMDL
