MODEL 1
REMARK VINA RESULT:      -7.3      0.000      0.000
REMARK  Name = 
REMARK  9 active torsions:
REMARK  status: ('A' for Active; 'I' for Inactive)
REMARK    1  A    between atoms: C_1  and  C_2
REMARK    2  A    between atoms: C_2  and  O_3
REMARK    3  A    between atoms: O_3  and  C_4
REMARK    4  A    between atoms: C_9  and  C_10
REMARK    5  A    between atoms: C_10  and  N_11
REMARK    6  A    between atoms: N_11  and  C_12
REMARK    7  A    between atoms: C_12  and  C_13
REMARK    8  A    between atoms: C_13  and  N_14
REMARK    9  A    between atoms: C_15  and  C_17
REMARK                            x       y       z     vdW  Elec       q    Type
REMARK                         _______ _______ _______ _____ _____    ______ ____
ROOT
ATOM      1  C   UNL     1       6.155   4.586  18.683  0.00  0.00    +0.000 C 
ENDROOT
BRANCH   1   2
ATOM      2  N   UNL     1       5.007   5.495  18.480  0.00  0.00    +0.000 NA
ATOM      3  H   UNL     1       4.636   5.771  19.419  0.00  0.00    +0.000 HD
BRANCH   2   4
ATOM      4  C   UNL     1       3.911   4.881  17.707  0.00  0.00    +0.000 C 
BRANCH   4  10
ATOM      5  C   UNL     1       2.267   5.239  19.634  0.00  0.00    +0.000 A 
ATOM      6  C   UNL     1       1.259   4.719  20.478  0.00  0.00    +0.000 A 
ATOM      7  C   UNL     1       0.782   3.421  20.301  0.00  0.00    +0.000 A 
ATOM      8  C   UNL     1       1.301   2.615  19.291  0.00  0.00    +0.000 A 
ATOM      9  C   UNL     1       2.302   3.106  18.452  0.00  0.00    +0.000 A 
ATOM     10  C   UNL     1       2.790   4.417  18.609  0.00  0.00    +0.000 A 
BRANCH   5  11
ATOM     11  O   UNL     1       2.754   6.500  19.800  0.00  0.00    +0.000 OA
BRANCH  11  13
ATOM     12  C   UNL     1       2.250   8.170  18.176  0.00  0.00    +0.000 C 
ATOM     13  C   UNL     1       2.042   7.670  19.595  0.00  0.00    +0.000 C 
ENDBRANCH  11  13
ENDBRANCH   5  11
ENDBRANCH   4  10
ENDBRANCH   2   4
ENDBRANCH   1   2
BRANCH   1  14
ATOM     14  C   UNL     1       7.392   5.041  17.887  0.00  0.00    +0.000 C 
BRANCH  14  15
ATOM     15  N   UNL     1       7.427   4.512  16.535  0.00  0.00    +0.000 N 
ATOM     16  C   UNL     1       6.876   5.224  15.510  0.00  0.00    +0.000 C 
ATOM     17  O   UNL     1       6.367   6.313  15.735  0.00  0.00    +0.000 OA
ATOM     18  H   UNL     1       7.852   3.590  16.354  0.00  0.00    +0.000 HD
BRANCH  16  19
ATOM     19  C   UNL     1       6.869   4.701  14.124  0.00  0.00    +0.000 A 
ATOM     20  N   UNL     1       6.017   3.769  13.661  0.00  0.00    +0.000 NA
ATOM     21  O   UNL     1       6.321   3.583  12.407  0.00  0.00    +0.000 OA
ATOM     22  N   UNL     1       7.314   4.321  12.000  0.00  0.00    +0.000 NA
ATOM     23  C   UNL     1       7.689   5.045  13.064  0.00  0.00    +0.000 A 
ATOM     24  N   UNL     1       8.749   5.984  13.043  0.00  0.00    +0.000 N 
ATOM     25  H   UNL     1       9.277   6.138  12.173  0.00  0.00    +0.000 HD
ATOM     26  H   UNL     1       9.015   6.522  13.877  0.00  0.00    +0.000 HD
ENDBRANCH  16  19
ENDBRANCH  14  15
ENDBRANCH   1  14
TORSDOF 8
ENDMDL
MODEL 2
REMARK VINA RESULT:      -6.9      1.400      1.791
REMARK  Name = 
REMARK  9 active torsions:
REMARK  status: ('A' for Active; 'I' for Inactive)
REMARK    1  A    between atoms: C_1  and  C_2
REMARK    2  A    between atoms: C_2  and  O_3
REMARK    3  A    between atoms: O_3  and  C_4
REMARK    4  A    between atoms: C_9  and  C_10
REMARK    5  A    between atoms: C_10  and  N_11
REMARK    6  A    between atoms: N_11  and  C_12
REMARK    7  A    between atoms: C_12  and  C_13
REMARK    8  A    between atoms: C_13  and  N_14
REMARK    9  A    between atoms: C_15  and  C_17
REMARK                            x       y       z     vdW  Elec       q    Type
REMARK                         _______ _______ _______ _____ _____    ______ ____
ROOT
ATOM      1  C   UNL     1       6.950   5.668  18.703  0.00  0.00    +0.000 C 
ENDROOT
BRANCH   1   2
ATOM      2  N   UNL     1       5.482   5.727  18.541  0.00  0.00    +0.000 NA
ATOM      3  H   UNL     1       5.193   6.734  18.533  0.00  0.00    +0.000 HD
BRANCH   2   4
ATOM      4  C   UNL     1       4.752   5.040  19.622  0.00  0.00    +0.000 C 
BRANCH   4  10
ATOM      5  C   UNL     1       2.566   4.984  18.294  0.00  0.00    +0.000 A 
ATOM      6  C   UNL     1       1.414   4.274  17.887  0.00  0.00    +0.000 A 
ATOM      7  C   UNL     1       1.228   2.944  18.264  0.00  0.00    +0.000 A 
ATOM      8  C   UNL     1       2.176   2.301  19.056  0.00  0.00    +0.000 A 
ATOM      9  C   UNL     1       3.316   2.987  19.475  0.00  0.00    +0.000 A 
ATOM     10  C   UNL     1       3.526   4.327  19.098  0.00  0.00    +0.000 A 
BRANCH   5  11
ATOM     11  O   UNL     1       2.758   6.287  17.946  0.00  0.00    +0.000 OA
BRANCH  11  13
ATOM     12  C   UNL     1       2.325   8.623  17.750  0.00  0.00    +0.000 C 
ATOM     13  C   UNL     1       2.252   7.383  18.625  0.00  0.00    +0.000 C 
ENDBRANCH  11  13
ENDBRANCH   5  11
ENDBRANCH   4  10
ENDBRANCH   2   4
ENDBRANCH   1   2
BRANCH   1  14
ATOM     14  C   UNL     1       7.562   4.482  17.936  0.00  0.00    +0.000 C 
BRANCH  14  15
ATOM     15  N   UNL     1       7.851   4.789  16.546  0.00  0.00    +0.000 N 
ATOM     16  C   UNL     1       6.968   4.427  15.571  0.00  0.00    +0.000 C 
ATOM     17  O   UNL     1       5.930   3.857  15.874  0.00  0.00    +0.000 OA
ATOM     18  H   UNL     1       8.731   5.264  16.296  0.00  0.00    +0.000 HD
BRANCH  16  19
ATOM     19  C   UNL     1       7.244   4.701  14.141  0.00  0.00    +0.000 A 
ATOM     20  N   UNL     1       8.048   5.681  13.690  0.00  0.00    +0.000 NA
ATOM     21  O   UNL     1       8.040   5.594  12.390  0.00  0.00    +0.000 OA
ATOM     22  N   UNL     1       7.291   4.628  11.940  0.00  0.00    +0.000 NA
ATOM     23  C   UNL     1       6.768   4.038  13.024  0.00  0.00    +0.000 A 
ATOM     24  N   UNL     1       5.887   2.931  12.969  0.00  0.00    +0.000 N 
ATOM     25  H   UNL     1       5.618   2.538  12.057  0.00  0.00    +0.000 HD
ATOM     26  H   UNL     1       5.500   2.502  13.820  0.00  0.00    +0.000 HD
ENDBRANCH  16  19
ENDBRANCH  14  15
ENDBRANCH   1  14
TORSDOF 8
ENDMDL
MODEL 3
REMARK VINA RESULT:      -6.8      2.225      4.319
REMARK  Name = 
REMARK  9 active torsions:
REMARK  status: ('A' for Active; 'I' for Inactive)
REMARK    1  A    between atoms: C_1  and  C_2
REMARK    2  A    between atoms: C_2  and  O_3
REMARK    3  A    between atoms: O_3  and  C_4
REMARK    4  A    between atoms: C_9  and  C_10
REMARK    5  A    between atoms: C_10  and  N_11
REMARK    6  A    between atoms: N_11  and  C_12
REMARK    7  A    between atoms: C_12  and  C_13
REMARK    8  A    between atoms: C_13  and  N_14
REMARK    9  A    between atoms: C_15  and  C_17
REMARK                            x       y       z     vdW  Elec       q    Type
REMARK                         _______ _______ _______ _____ _____    ______ ____
ROOT
ATOM      1  C   UNL     1       1.390   4.110  19.347  0.00  0.00    +0.000 C 
ENDROOT
BRANCH   1   2
ATOM      2  N   UNL     1       1.376   5.054  20.484  0.00  0.00    +0.000 NA
ATOM      3  H   UNL     1       0.493   5.616  20.434  0.00  0.00    +0.000 HD
BRANCH   2   4
ATOM      4  C   UNL     1       2.521   5.983  20.480  0.00  0.00    +0.000 C 
BRANCH   4  10
ATOM      5  C   UNL     1       1.455   8.298  20.256  0.00  0.00    +0.000 A 
ATOM      6  C   UNL     1       1.152   9.419  19.451  0.00  0.00    +0.000 A 
ATOM      7  C   UNL     1       1.599   9.489  18.132  0.00  0.00    +0.000 A 
ATOM      8  C   UNL     1       2.344   8.445  17.588  0.00  0.00    +0.000 A 
ATOM      9  C   UNL     1       2.646   7.326  18.364  0.00  0.00    +0.000 A 
ATOM     10  C   UNL     1       2.212   7.241  19.700  0.00  0.00    +0.000 A 
BRANCH   5  11
ATOM     11  O   UNL     1       1.016   8.207  21.543  0.00  0.00    +0.000 OA
BRANCH  11  13
ATOM     12  C   UNL     1      -0.297   9.532  23.026  0.00  0.00    +0.000 C 
ATOM     13  C   UNL     1       1.089   9.215  22.490  0.00  0.00    +0.000 C 
ENDBRANCH  11  13
ENDBRANCH   5  11
ENDBRANCH   4  10
ENDBRANCH   2   4
ENDBRANCH   1   2
BRANCH   1  14
ATOM     14  C   UNL     1       2.717   3.334  19.265  0.00  0.00    +0.000 C 
BRANCH  14  15
ATOM     15  N   UNL     1       3.523   3.703  18.114  0.00  0.00    +0.000 N 
ATOM     16  C   UNL     1       4.867   3.893  18.255  0.00  0.00    +0.000 C 
ATOM     17  O   UNL     1       5.388   3.737  19.350  0.00  0.00    +0.000 OA
ATOM     18  H   UNL     1       3.076   3.840  17.194  0.00  0.00    +0.000 HD
BRANCH  16  19
ATOM     19  C   UNL     1       5.713   4.296  17.108  0.00  0.00    +0.000 A 
ATOM     20  N   UNL     1       5.265   4.477  15.852  0.00  0.00    +0.000 NA
ATOM     21  O   UNL     1       6.299   4.832  15.141  0.00  0.00    +0.000 OA
ATOM     22  N   UNL     1       7.402   4.901  15.830  0.00  0.00    +0.000 NA
ATOM     23  C   UNL     1       7.069   4.567  17.085  0.00  0.00    +0.000 A 
ATOM     24  N   UNL     1       7.993   4.518  18.157  0.00  0.00    +0.000 N 
ATOM     25  H   UNL     1       8.982   4.749  17.990  0.00  0.00    +0.000 HD
ATOM     26  H   UNL     1       7.707   4.255  19.109  0.00  0.00    +0.000 HD
ENDBRANCH  16  19
ENDBRANCH  14  15
ENDBRANCH   1  14
TORSDOF 8
ENDMDL
MODEL 4
REMARK VINA RESULT:      -6.7      2.064      3.857
REMARK  Name = 
REMARK  9 active torsions:
REMARK  status: ('A' for Active; 'I' for Inactive)
REMARK    1  A    between atoms: C_1  and  C_2
REMARK    2  A    between atoms: C_2  and  O_3
REMARK    3  A    between atoms: O_3  and  C_4
REMARK    4  A    between atoms: C_9  and  C_10
REMARK    5  A    between atoms: C_10  and  N_11
REMARK    6  A    between atoms: N_11  and  C_12
REMARK    7  A    between atoms: C_12  and  C_13
REMARK    8  A    between atoms: C_13  and  N_14
REMARK    9  A    between atoms: C_15  and  C_17
REMARK                            x       y       z     vdW  Elec       q    Type
REMARK                         _______ _______ _______ _____ _____    ______ ____
ROOT
ATOM      1  C   UNL     1       3.950   4.208  20.161  0.00  0.00    +0.000 C 
ENDROOT
BRANCH   1   2
ATOM      2  N   UNL     1       3.683   5.587  19.701  0.00  0.00    +0.000 NA
ATOM      3  H   UNL     1       4.437   6.210  20.075  0.00  0.00    +0.000 HD
BRANCH   2   4
ATOM      4  C   UNL     1       2.380   6.107  20.155  0.00  0.00    +0.000 C 
BRANCH   4  10
ATOM      5  C   UNL     1       1.333   8.440  20.229  0.00  0.00    +0.000 A 
ATOM      6  C   UNL     1       1.034   9.655  19.571  0.00  0.00    +0.000 A 
ATOM      7  C   UNL     1       1.469   9.883  18.266  0.00  0.00    +0.000 A 
ATOM      8  C   UNL     1       2.199   8.908  17.591  0.00  0.00    +0.000 A 
ATOM      9  C   UNL     1       2.498   7.699  18.219  0.00  0.00    +0.000 A 
ATOM     10  C   UNL     1       2.076   7.454  19.540  0.00  0.00    +0.000 A 
BRANCH   5  11
ATOM     11  O   UNL     1       0.905   8.195  21.499  0.00  0.00    +0.000 OA
BRANCH  11  13
ATOM     12  C   UNL     1      -0.061   9.591  23.172  0.00  0.00    +0.000 C 
ATOM     13  C   UNL     1      -0.301   8.612  22.035  0.00  0.00    +0.000 C 
ENDBRANCH  11  13
ENDBRANCH   5  11
ENDBRANCH   4  10
ENDBRANCH   2   4
ENDBRANCH   1   2
BRANCH   1  14
ATOM     14  C   UNL     1       4.532   3.332  19.036  0.00  0.00    +0.000 C 
BRANCH  14  15
ATOM     15  N   UNL     1       5.518   4.026  18.225  0.00  0.00    +0.000 N 
ATOM     16  C   UNL     1       5.329   4.149  16.880  0.00  0.00    +0.000 C 
ATOM     17  O   UNL     1       4.322   3.686  16.365  0.00  0.00    +0.000 OA
ATOM     18  H   UNL     1       6.369   4.408  18.665  0.00  0.00    +0.000 HD
BRANCH  16  19
ATOM     19  C   UNL     1       6.328   4.826  16.021  0.00  0.00    +0.000 A 
ATOM     20  N   UNL     1       7.078   5.876  16.399  0.00  0.00    +0.000 NA
ATOM     21  O   UNL     1       7.832   6.177  15.379  0.00  0.00    +0.000 OA
ATOM     22  N   UNL     1       7.640   5.405  14.348  0.00  0.00    +0.000 NA
ATOM     23  C   UNL     1       6.691   4.533  14.718  0.00  0.00    +0.000 A 
ATOM     24  N   UNL     1       6.188   3.513  13.875  0.00  0.00    +0.000 N 
ATOM     25  H   UNL     1       6.556   3.413  12.919  0.00  0.00    +0.000 HD
ATOM     26  H   UNL     1       5.457   2.861  14.187  0.00  0.00    +0.000 HD
ENDBRANCH  16  19
ENDBRANCH  14  15
ENDBRANCH   1  14
TORSDOF 8
ENDMDL
MODEL 5
REMARK VINA RESULT:      -6.6      2.242      4.243
REMARK  Name = 
REMARK  9 active torsions:
REMARK  status: ('A' for Active; 'I' for Inactive)
REMARK    1  A    between atoms: C_1  and  C_2
REMARK    2  A    between atoms: C_2  and  O_3
REMARK    3  A    between atoms: O_3  and  C_4
REMARK    4  A    between atoms: C_9  and  C_10
REMARK    5  A    between atoms: C_10  and  N_11
REMARK    6  A    between atoms: N_11  and  C_12
REMARK    7  A    between atoms: C_12  and  C_13
REMARK    8  A    between atoms: C_13  and  N_14
REMARK    9  A    between atoms: C_15  and  C_17
REMARK                            x       y       z     vdW  Elec       q    Type
REMARK                         _______ _______ _______ _____ _____    ______ ____
ROOT
ATOM      1  C   UNL     1       2.376   3.335  20.427  0.00  0.00    +0.000 C 
ENDROOT
BRANCH   1   2
ATOM      2  N   UNL     1       1.818   4.655  20.064  0.00  0.00    +0.000 NA
ATOM      3  H   UNL     1       1.664   4.673  19.028  0.00  0.00    +0.000 HD
BRANCH   2   4
ATOM      4  C   UNL     1       2.704   5.777  20.424  0.00  0.00    +0.000 C 
BRANCH   4  10
ATOM      5  C   UNL     1       1.615   8.075  20.146  0.00  0.00    +0.000 A 
ATOM      6  C   UNL     1       1.306   9.177  19.315  0.00  0.00    +0.000 A 
ATOM      7  C   UNL     1       1.760   9.224  17.998  0.00  0.00    +0.000 A 
ATOM      8  C   UNL     1       2.518   8.177  17.480  0.00  0.00    +0.000 A 
ATOM      9  C   UNL     1       2.827   7.077  18.280  0.00  0.00    +0.000 A 
ATOM     10  C   UNL     1       2.387   7.015  19.616  0.00  0.00    +0.000 A 
BRANCH   5  11
ATOM     11  O   UNL     1       1.169   8.007  21.431  0.00  0.00    +0.000 OA
BRANCH  11  13
ATOM     12  C   UNL     1      -0.218   9.380  22.799  0.00  0.00    +0.000 C 
ATOM     13  C   UNL     1       1.194   9.045  22.347  0.00  0.00    +0.000 C 
ENDBRANCH  11  13
ENDBRANCH   5  11
ENDBRANCH   4  10
ENDBRANCH   2   4
ENDBRANCH   1   2
BRANCH   1  14
ATOM     14  C   UNL     1       2.976   2.613  19.206  0.00  0.00    +0.000 C 
BRANCH  14  15
ATOM     15  N   UNL     1       4.316   3.068  18.877  0.00  0.00    +0.000 N 
ATOM     16  C   UNL     1       4.559   3.656  17.670  0.00  0.00    +0.000 C 
ATOM     17  O   UNL     1       3.642   3.810  16.876  0.00  0.00    +0.000 OA
ATOM     18  H   UNL     1       5.086   2.929  19.549  0.00  0.00    +0.000 HD
BRANCH  16  19
ATOM     19  C   UNL     1       5.919   4.106  17.292  0.00  0.00    +0.000 A 
ATOM     20  N   UNL     1       6.880   4.456  18.165  0.00  0.00    +0.000 NA
ATOM     21  O   UNL     1       7.923   4.781  17.454  0.00  0.00    +0.000 OA
ATOM     22  N   UNL     1       7.728   4.673  16.170  0.00  0.00    +0.000 NA
ATOM     23  C   UNL     1       6.465   4.246  16.029  0.00  0.00    +0.000 A 
ATOM     24  N   UNL     1       5.853   4.001  14.776  0.00  0.00    +0.000 N 
ATOM     25  H   UNL     1       6.388   4.150  13.909  0.00  0.00    +0.000 HD
ATOM     26  H   UNL     1       4.881   3.677  14.700  0.00  0.00    +0.000 HD
ENDBRANCH  16  19
ENDBRANCH  14  15
ENDBRANCH   1  14
TORSDOF 8
ENDMDL
MODEL 6
REMARK VINA RESULT:      -6.6      1.352      2.904
REMARK  Name = 
REMARK  9 active torsions:
REMARK  status: ('A' for Active; 'I' for Inactive)
REMARK    1  A    between atoms: C_1  and  C_2
REMARK    2  A    between atoms: C_2  and  O_3
REMARK    3  A    between atoms: O_3  and  C_4
REMARK    4  A    between atoms: C_9  and  C_10
REMARK    5  A    between atoms: C_10  and  N_11
REMARK    6  A    between atoms: N_11  and  C_12
REMARK    7  A    between atoms: C_12  and  C_13
REMARK    8  A    between atoms: C_13  and  N_14
REMARK    9  A    between atoms: C_15  and  C_17
REMARK                            x       y       z     vdW  Elec       q    Type
REMARK                         _______ _______ _______ _____ _____    ______ ____
ROOT
ATOM      1  C   UNL     1       6.140   4.964  18.408  0.00  0.00    +0.000 C 
ENDROOT
BRANCH   1   2
ATOM      2  N   UNL     1       5.267   3.860  18.861  0.00  0.00    +0.000 NA
ATOM      3  H   UNL     1       5.664   2.960  18.503  0.00  0.00    +0.000 HD
BRANCH   2   4
ATOM      4  C   UNL     1       3.879   3.985  18.378  0.00  0.00    +0.000 C 
BRANCH   4  10
ATOM      5  C   UNL     1       2.604   5.709  19.773  0.00  0.00    +0.000 A 
ATOM      6  C   UNL     1       2.073   7.013  19.896  0.00  0.00    +0.000 A 
ATOM      7  C   UNL     1       2.271   7.960  18.891  0.00  0.00    +0.000 A 
ATOM      8  C   UNL     1       2.990   7.627  17.746  0.00  0.00    +0.000 A 
ATOM      9  C   UNL     1       3.516   6.343  17.601  0.00  0.00    +0.000 A 
ATOM     10  C   UNL     1       3.335   5.376  18.608  0.00  0.00    +0.000 A 
BRANCH   5  11
ATOM     11  O   UNL     1       2.410   4.768  20.738  0.00  0.00    +0.000 OA
BRANCH  11  13
ATOM     12  C   UNL     1       1.650   2.702  21.651  0.00  0.00    +0.000 C 
ATOM     13  C   UNL     1       1.304   3.941  20.842  0.00  0.00    +0.000 C 
ENDBRANCH  11  13
ENDBRANCH   5  11
ENDBRANCH   4  10
ENDBRANCH   2   4
ENDBRANCH   1   2
BRANCH   1  14
ATOM     14  C   UNL     1       7.500   4.447  17.903  0.00  0.00    +0.000 C 
BRANCH  14  15
ATOM     15  N   UNL     1       7.781   4.828  16.529  0.00  0.00    +0.000 N 
ATOM     16  C   UNL     1       7.001   4.349  15.516  0.00  0.00    +0.000 C 
ATOM     17  O   UNL     1       6.060   3.613  15.773  0.00  0.00    +0.000 OA
ATOM     18  H   UNL     1       8.580   5.444  16.319  0.00  0.00    +0.000 HD
BRANCH  16  19
ATOM     19  C   UNL     1       7.277   4.696  14.103  0.00  0.00    +0.000 A 
ATOM     20  N   UNL     1       8.065   5.710  13.702  0.00  0.00    +0.000 NA
ATOM     21  O   UNL     1       8.063   5.685  12.399  0.00  0.00    +0.000 OA
ATOM     22  N   UNL     1       7.331   4.730  11.900  0.00  0.00    +0.000 NA
ATOM     23  C   UNL     1       6.816   4.080  12.954  0.00  0.00    +0.000 A 
ATOM     24  N   UNL     1       5.953   2.962  12.843  0.00  0.00    +0.000 N 
ATOM     25  H   UNL     1       5.693   2.608  11.912  0.00  0.00    +0.000 HD
ATOM     26  H   UNL     1       5.572   2.486  13.670  0.00  0.00    +0.000 HD
ENDBRANCH  16  19
ENDBRANCH  14  15
ENDBRANCH   1  14
TORSDOF 8
ENDMDL
MODEL 7
REMARK VINA RESULT:      -6.6      1.100      1.174
REMARK  Name = 
REMARK  9 active torsions:
REMARK  status: ('A' for Active; 'I' for Inactive)
REMARK    1  A    between atoms: C_1  and  C_2
REMARK    2  A    between atoms: C_2  and  O_3
REMARK    3  A    between atoms: O_3  and  C_4
REMARK    4  A    between atoms: C_9  and  C_10
REMARK    5  A    between atoms: C_10  and  N_11
REMARK    6  A    between atoms: N_11  and  C_12
REMARK    7  A    between atoms: C_12  and  C_13
REMARK    8  A    between atoms: C_13  and  N_14
REMARK    9  A    between atoms: C_15  and  C_17
REMARK                            x       y       z     vdW  Elec       q    Type
REMARK                         _______ _______ _______ _____ _____    ______ ____
ROOT
ATOM      1  C   UNL     1       7.299   5.356  18.565  0.00  0.00    +0.000 C 
ENDROOT
BRANCH   1   2
ATOM      2  N   UNL     1       6.153   4.958  19.409  0.00  0.00    +0.000 NA
ATOM      3  H   UNL     1       6.520   4.411  20.223  0.00  0.00    +0.000 HD
BRANCH   2   4
ATOM      4  C   UNL     1       5.169   4.125  18.693  0.00  0.00    +0.000 C 
BRANCH   4  10
ATOM      5  C   UNL     1       2.918   5.081  19.444  0.00  0.00    +0.000 A 
ATOM      6  C   UNL     1       1.747   4.952  20.226  0.00  0.00    +0.000 A 
ATOM      7  C   UNL     1       1.523   3.805  20.987  0.00  0.00    +0.000 A 
ATOM      8  C   UNL     1       2.460   2.775  20.995  0.00  0.00    +0.000 A 
ATOM      9  C   UNL     1       3.626   2.887  20.237  0.00  0.00    +0.000 A 
ATOM     10  C   UNL     1       3.865   4.031  19.454  0.00  0.00    +0.000 A 
BRANCH   5  11
ATOM     11  O   UNL     1       3.159   6.199  18.704  0.00  0.00    +0.000 OA
BRANCH  11  13
ATOM     12  C   UNL     1       2.042   8.128  17.860  0.00  0.00    +0.000 C 
ATOM     13  C   UNL     1       2.759   7.483  19.034  0.00  0.00    +0.000 C 
ENDBRANCH  11  13
ENDBRANCH   5  11
ENDBRANCH   4  10
ENDBRANCH   2   4
ENDBRANCH   1   2
BRANCH   1  14
ATOM     14  C   UNL     1       6.857   6.233  17.379  0.00  0.00    +0.000 C 
BRANCH  14  15
ATOM     15  N   UNL     1       7.202   5.663  16.088  0.00  0.00    +0.000 N 
ATOM     16  C   UNL     1       6.216   5.311  15.213  0.00  0.00    +0.000 C 
ATOM     17  O   UNL     1       5.045   5.491  15.516  0.00  0.00    +0.000 OA
ATOM     18  H   UNL     1       8.191   5.507  15.842  0.00  0.00    +0.000 HD
BRANCH  16  19
ATOM     19  C   UNL     1       6.532   4.701  13.900  0.00  0.00    +0.000 A 
ATOM     20  N   UNL     1       5.801   3.741  13.305  0.00  0.00    +0.000 NA
ATOM     21  O   UNL     1       6.392   3.476  12.175  0.00  0.00    +0.000 OA
ATOM     22  N   UNL     1       7.464   4.187  11.971  0.00  0.00    +0.000 NA
ATOM     23  C   UNL     1       7.586   4.977  13.048  0.00  0.00    +0.000 A 
ATOM     24  N   UNL     1       8.634   5.913  13.223  0.00  0.00    +0.000 N 
ATOM     25  H   UNL     1       9.356   6.012  12.496  0.00  0.00    +0.000 HD
ATOM     26  H   UNL     1       8.701   6.504  14.061  0.00  0.00    +0.000 HD
ENDBRANCH  16  19
ENDBRANCH  14  15
ENDBRANCH   1  14
TORSDOF 8
ENDMDL
MODEL 8
REMARK VINA RESULT:      -6.5      2.110      4.251
REMARK  Name = 
REMARK  9 active torsions:
REMARK  status: ('A' for Active; 'I' for Inactive)
REMARK    1  A    between atoms: C_1  and  C_2
REMARK    2  A    between atoms: C_2  and  O_3
REMARK    3  A    between atoms: O_3  and  C_4
REMARK    4  A    between atoms: C_9  and  C_10
REMARK    5  A    between atoms: C_10  and  N_11
REMARK    6  A    between atoms: N_11  and  C_12
REMARK    7  A    between atoms: C_12  and  C_13
REMARK    8  A    between atoms: C_13  and  N_14
REMARK    9  A    between atoms: C_15  and  C_17
REMARK                            x       y       z     vdW  Elec       q    Type
REMARK                         _______ _______ _______ _____ _____    ______ ____
ROOT
ATOM      1  C   UNL     1       1.762   4.406  18.854  0.00  0.00    +0.000 C 
ENDROOT
BRANCH   1   2
ATOM      2  N   UNL     1       1.786   5.072  20.174  0.00  0.00    +0.000 NA
ATOM      3  H   UNL     1       0.838   5.478  20.354  0.00  0.00    +0.000 HD
BRANCH   2   4
ATOM      4  C   UNL     1       2.782   6.157  20.256  0.00  0.00    +0.000 C 
BRANCH   4  10
ATOM      5  C   UNL     1       1.453   8.340  20.142  0.00  0.00    +0.000 A 
ATOM      6  C   UNL     1       1.005   9.447  19.386  0.00  0.00    +0.000 A 
ATOM      7  C   UNL     1       1.407   9.614  18.061  0.00  0.00    +0.000 A 
ATOM      8  C   UNL     1       2.252   8.682  17.463  0.00  0.00    +0.000 A 
ATOM      9  C   UNL     1       2.700   7.578  18.190  0.00  0.00    +0.000 A 
ATOM     10  C   UNL     1       2.312   7.397  19.531  0.00  0.00    +0.000 A 
BRANCH   5  11
ATOM     11  O   UNL     1       1.060   8.154  21.433  0.00  0.00    +0.000 OA
BRANCH  11  13
ATOM     12  C   UNL     1      -0.114   9.386  23.102  0.00  0.00    +0.000 C 
ATOM     13  C   UNL     1       1.226   9.065  22.463  0.00  0.00    +0.000 C 
ENDBRANCH  11  13
ENDBRANCH   5  11
ENDBRANCH   4  10
ENDBRANCH   2   4
ENDBRANCH   1   2
BRANCH   1  14
ATOM     14  C   UNL     1       3.018   3.545  18.626  0.00  0.00    +0.000 C 
BRANCH  14  15
ATOM     15  N   UNL     1       3.944   4.129  17.672  0.00  0.00    +0.000 N 
ATOM     16  C   UNL     1       5.236   4.374  18.038  0.00  0.00    +0.000 C 
ATOM     17  O   UNL     1       5.610   4.086  19.165  0.00  0.00    +0.000 OA
ATOM     18  H   UNL     1       3.620   4.376  16.724  0.00  0.00    +0.000 HD
BRANCH  16  19
ATOM     19  C   UNL     1       6.198   4.994  17.098  0.00  0.00    +0.000 A 
ATOM     20  N   UNL     1       6.797   6.184  17.289  0.00  0.00    +0.000 NA
ATOM     21  O   UNL     1       7.569   6.377  16.258  0.00  0.00    +0.000 OA
ATOM     22  N   UNL     1       7.531   5.404  15.392  0.00  0.00    +0.000 NA
ATOM     23  C   UNL     1       6.669   4.507  15.893  0.00  0.00    +0.000 A 
ATOM     24  N   UNL     1       6.341   3.289  15.249  0.00  0.00    +0.000 N 
ATOM     25  H   UNL     1       6.775   3.055  14.346  0.00  0.00    +0.000 HD
ATOM     26  H   UNL     1       5.674   2.622  15.658  0.00  0.00    +0.000 HD
ENDBRANCH  16  19
ENDBRANCH  14  15
ENDBRANCH   1  14
TORSDOF 8
ENDMDL
MODEL 9
REMARK VINA RESULT:      -6.5      1.289      2.835
REMARK  Name = 
REMARK  9 active torsions:
REMARK  status: ('A' for Active; 'I' for Inactive)
REMARK    1  A    between atoms: C_1  and  C_2
REMARK    2  A    between atoms: C_2  and  O_3
REMARK    3  A    between atoms: O_3  and  C_4
REMARK    4  A    between atoms: C_9  and  C_10
REMARK    5  A    between atoms: C_10  and  N_11
REMARK    6  A    between atoms: N_11  and  C_12
REMARK    7  A    between atoms: C_12  and  C_13
REMARK    8  A    between atoms: C_13  and  N_14
REMARK    9  A    between atoms: C_15  and  C_17
REMARK                            x       y       z     vdW  Elec       q    Type
REMARK                         _______ _______ _______ _____ _____    ______ ____
ROOT
ATOM      1  C   UNL     1       6.369   5.193  19.169  0.00  0.00    +0.000 C 
ENDROOT
BRANCH   1   2
ATOM      2  N   UNL     1       5.637   3.957  18.823  0.00  0.00    +0.000 NA
ATOM      3  H   UNL     1       6.279   3.336  18.277  0.00  0.00    +0.000 HD
BRANCH   2   4
ATOM      4  C   UNL     1       4.430   4.207  18.013  0.00  0.00    +0.000 C 
BRANCH   4  10
ATOM      5  C   UNL     1       2.969   5.287  19.814  0.00  0.00    +0.000 A 
ATOM      6  C   UNL     1       2.183   6.382  20.240  0.00  0.00    +0.000 A 
ATOM      7  C   UNL     1       2.057   7.520  19.444  0.00  0.00    +0.000 A 
ATOM      8  C   UNL     1       2.701   7.587  18.211  0.00  0.00    +0.000 A 
ATOM      9  C   UNL     1       3.476   6.515  17.769  0.00  0.00    +0.000 A 
ATOM     10  C   UNL     1       3.623   5.361  18.562  0.00  0.00    +0.000 A 
BRANCH   5  11
ATOM     11  O   UNL     1       3.093   4.163  20.573  0.00  0.00    +0.000 OA
BRANCH  11  13
ATOM     12  C   UNL     1       1.156   2.912  21.175  0.00  0.00    +0.000 C 
ATOM     13  C   UNL     1       2.431   2.967  20.351  0.00  0.00    +0.000 C 
ENDBRANCH  11  13
ENDBRANCH   5  11
ENDBRANCH   4  10
ENDBRANCH   2   4
ENDBRANCH   1   2
BRANCH   1  14
ATOM     14  C   UNL     1       7.720   5.282  18.435  0.00  0.00    +0.000 C 
BRANCH  14  15
ATOM     15  N   UNL     1       7.670   4.753  17.083  0.00  0.00    +0.000 N 
ATOM     16  C   UNL     1       7.266   5.552  16.053  0.00  0.00    +0.000 C 
ATOM     17  O   UNL     1       6.960   6.715  16.273  0.00  0.00    +0.000 OA
ATOM     18  H   UNL     1       7.923   3.769  16.905  0.00  0.00    +0.000 HD
BRANCH  16  19
ATOM     19  C   UNL     1       7.177   5.037  14.667  0.00  0.00    +0.000 A 
ATOM     20  N   UNL     1       7.833   5.555  13.614  0.00  0.00    +0.000 NA
ATOM     21  O   UNL     1       7.505   4.829  12.582  0.00  0.00    +0.000 OA
ATOM     22  N   UNL     1       6.678   3.865  12.869  0.00  0.00    +0.000 NA
ATOM     23  C   UNL     1       6.447   3.965  14.186  0.00  0.00    +0.000 A 
ATOM     24  N   UNL     1       5.591   3.094  14.903  0.00  0.00    +0.000 N 
ATOM     25  H   UNL     1       5.108   2.331  14.408  0.00  0.00    +0.000 HD
ATOM     26  H   UNL     1       5.431   3.198  15.913  0.00  0.00    +0.000 HD
ENDBRANCH  16  19
ENDBRANCH  14  15
ENDBRANCH   1  14
TORSDOF 8
ENDMDL
