MODEL 1
REMARK VINA RESULT:      -7.5      0.000      0.000
REMARK  Name = 
REMARK  4 active torsions:
REMARK  status: ('A' for Active; 'I' for Inactive)
REMARK    1  A    between atoms: C_2  and  C_3
REMARK    2  A    between atoms: C_8  and  N_9
REMARK    3  A    between atoms: C_13  and  C_15
REMARK    4  A    between atoms: C_18  and  N_19
REMARK                            x       y       z     vdW  Elec       q    Type
REMARK                         _______ _______ _______ _____ _____    ______ ____
ROOT
ATOM      1  C   UNL     1       0.711  12.675  18.843  0.00  0.00    +0.000 A 
ATOM      2  C   UNL     1       2.009  12.311  18.490  0.00  0.00    +0.000 A 
ATOM      3  C   UNL     1       2.337  10.986  18.183  0.00  0.00    +0.000 A 
ATOM      4  C   UNL     1       1.400   9.951  18.293  0.00  0.00    +0.000 A 
ATOM      5  C   UNL     1       0.083  10.327  18.615  0.00  0.00    +0.000 A 
ATOM      6  C   UNL     1      -0.258  11.674  18.891  0.00  0.00    +0.000 A 
ENDROOT
BRANCH   4   7
ATOM      7  N   UNL     1       1.780   8.570  18.085  0.00  0.00    +0.000 N 
ATOM      8  C   UNL     1       1.983   7.695  19.126  0.00  0.00    +0.000 C 
ATOM      9  O   UNL     1       1.861   8.035  20.309  0.00  0.00    +0.000 OA
ATOM     10  N   UNL     1       2.306   6.384  18.900  0.00  0.00    +0.000 N 
ATOM     11  C   UNL     1       2.412   5.620  20.132  0.00  0.00    +0.000 C 
ATOM     12  C   UNL     1       2.465   4.228  19.648  0.00  0.00    +0.000 A 
ATOM     13  C   UNL     1       1.634   3.168  19.923  0.00  0.00    +0.000 A 
ATOM     14  C   UNL     1       1.875   1.963  19.275  0.00  0.00    +0.000 A 
ATOM     15  C   UNL     1       2.990   1.848  18.436  0.00  0.00    +0.000 A 
ATOM     16  C   UNL     1       3.645   3.003  17.992  0.00  0.00    +0.000 A 
ATOM     17  C   UNL     1       3.192   4.220  18.469  0.00  0.00    +0.000 A 
ATOM     18  C   UNL     1       2.679   5.497  17.757  0.00  0.00    +0.000 C 
ATOM     19  H   UNL     1       1.726   8.193  17.150  0.00  0.00    +0.000 HD
ENDBRANCH   4   7
BRANCH   1  24
ATOM     20  N   UNL     1      -2.935  14.996  21.667  0.00  0.00    +0.000 N 
ATOM     21  C   UNL     1      -2.480  15.927  20.618  0.00  0.00    +0.000 C 
ATOM     22  C   UNL     1      -0.955  15.772  20.422  0.00  0.00    +0.000 C 
ATOM     23  N   UNL     1      -0.584  14.374  20.158  0.00  0.00    +0.000 N 
ATOM     24  C   UNL     1       0.346  14.093  19.154  0.00  0.00    +0.000 C 
ATOM     25  O   UNL     1       0.882  14.976  18.484  0.00  0.00    +0.000 OA
ATOM     26  C   UNL     1      -1.070  13.449  21.203  0.00  0.00    +0.000 C 
ATOM     27  C   UNL     1      -2.597  13.581  21.402  0.00  0.00    +0.000 C 
BRANCH  20  33
ATOM     28  C   UNL     1      -3.681  15.919  23.817  0.00  0.00    +0.000 A 
ATOM     29  C   UNL     1      -4.713  16.408  24.637  0.00  0.00    +0.000 A 
ATOM     30  C   UNL     1      -6.039  16.343  24.215  0.00  0.00    +0.000 A 
ATOM     31  C   UNL     1      -6.327  15.777  22.983  0.00  0.00    +0.000 A 
ATOM     32  C   UNL     1      -5.296  15.293  22.167  0.00  0.00    +0.000 A 
ATOM     33  C   UNL     1      -3.942  15.364  22.549  0.00  0.00    +0.000 A 
BRANCH  28  35
ATOM     34  N   UNL     1      -1.269  16.209  24.711  0.00  0.00    +0.000 NA
ATOM     35  C   UNL     1      -2.323  16.082  24.300  0.00  0.00    +0.000 C 
ENDBRANCH  28  35
ENDBRANCH  20  33
ENDBRANCH   1  24
TORSDOF 4
ENDMDL
MODEL 2
REMARK VINA RESULT:      -7.4      2.627      3.865
REMARK  Name = 
REMARK  4 active torsions:
REMARK  status: ('A' for Active; 'I' for Inactive)
REMARK    1  A    between atoms: C_2  and  C_3
REMARK    2  A    between atoms: C_8  and  N_9
REMARK    3  A    between atoms: C_13  and  C_15
REMARK    4  A    between atoms: C_18  and  N_19
REMARK                            x       y       z     vdW  Elec       q    Type
REMARK                         _______ _______ _______ _____ _____    ______ ____
ROOT
ATOM      1  C   UNL     1      -0.658  11.749  22.447  0.00  0.00    +0.000 A 
ATOM      2  C   UNL     1      -0.856  10.476  22.981  0.00  0.00    +0.000 A 
ATOM      3  C   UNL     1      -0.190   9.359  22.467  0.00  0.00    +0.000 A 
ATOM      4  C   UNL     1       0.645   9.450  21.347  0.00  0.00    +0.000 A 
ATOM      5  C   UNL     1       0.871  10.741  20.834  0.00  0.00    +0.000 A 
ATOM      6  C   UNL     1       0.223  11.878  21.377  0.00  0.00    +0.000 A 
ENDROOT
BRANCH   4   7
ATOM      7  N   UNL     1       1.239   8.270  20.755  0.00  0.00    +0.000 N 
ATOM      8  C   UNL     1       1.755   8.263  19.480  0.00  0.00    +0.000 C 
ATOM      9  O   UNL     1       1.740   9.265  18.755  0.00  0.00    +0.000 OA
ATOM     10  N   UNL     1       2.344   7.143  18.957  0.00  0.00    +0.000 N 
ATOM     11  C   UNL     1       2.881   7.370  17.626  0.00  0.00    +0.000 C 
ATOM     12  C   UNL     1       3.700   6.166  17.396  0.00  0.00    +0.000 A 
ATOM     13  C   UNL     1       5.043   6.054  17.121  0.00  0.00    +0.000 A 
ATOM     14  C   UNL     1       5.583   4.779  17.011  0.00  0.00    +0.000 A 
ATOM     15  C   UNL     1       4.738   3.666  17.103  0.00  0.00    +0.000 A 
ATOM     16  C   UNL     1       3.449   3.817  17.630  0.00  0.00    +0.000 A 
ATOM     17  C   UNL     1       3.045   5.094  17.978  0.00  0.00    +0.000 A 
ATOM     18  C   UNL     1       2.531   5.702  19.307  0.00  0.00    +0.000 C 
ATOM     19  H   UNL     1       1.435   7.480  21.352  0.00  0.00    +0.000 HD
ENDBRANCH   4   7
BRANCH   1  24
ATOM     20  N   UNL     1      -4.436  14.879  20.839  0.00  0.00    +0.000 N 
ATOM     21  C   UNL     1      -3.593  15.606  21.806  0.00  0.00    +0.000 C 
ATOM     22  C   UNL     1      -3.159  14.643  22.933  0.00  0.00    +0.000 C 
ATOM     23  N   UNL     1      -2.513  13.437  22.393  0.00  0.00    +0.000 N 
ATOM     24  C   UNL     1      -1.353  12.953  23.003  0.00  0.00    +0.000 C 
ATOM     25  O   UNL     1      -0.852  13.492  23.990  0.00  0.00    +0.000 OA
ATOM     26  C   UNL     1      -3.357  12.733  21.405  0.00  0.00    +0.000 C 
ATOM     27  C   UNL     1      -3.789  13.680  20.262  0.00  0.00    +0.000 C 
BRANCH  20  33
ATOM     28  C   UNL     1      -6.825  15.006  20.285  0.00  0.00    +0.000 A 
ATOM     29  C   UNL     1      -7.917  15.729  19.772  0.00  0.00    +0.000 A 
ATOM     30  C   UNL     1      -7.721  16.970  19.172  0.00  0.00    +0.000 A 
ATOM     31  C   UNL     1      -6.433  17.477  19.075  0.00  0.00    +0.000 A 
ATOM     32  C   UNL     1      -5.348  16.755  19.590  0.00  0.00    +0.000 A 
ATOM     33  C   UNL     1      -5.510  15.508  20.226  0.00  0.00    +0.000 A 
BRANCH  28  35
ATOM     34  N   UNL     1      -7.381  12.766  21.457  0.00  0.00    +0.000 NA
ATOM     35  C   UNL     1      -7.120  13.751  20.951  0.00  0.00    +0.000 C 
ENDBRANCH  28  35
ENDBRANCH  20  33
ENDBRANCH   1  24
TORSDOF 4
ENDMDL
MODEL 3
REMARK VINA RESULT:      -7.4      0.658      1.128
REMARK  Name = 
REMARK  4 active torsions:
REMARK  status: ('A' for Active; 'I' for Inactive)
REMARK    1  A    between atoms: C_2  and  C_3
REMARK    2  A    between atoms: C_8  and  N_9
REMARK    3  A    between atoms: C_13  and  C_15
REMARK    4  A    between atoms: C_18  and  N_19
REMARK                            x       y       z     vdW  Elec       q    Type
REMARK                         _______ _______ _______ _____ _____    ______ ____
ROOT
ATOM      1  C   UNL     1       0.443  12.895  18.788  0.00  0.00    +0.000 A 
ATOM      2  C   UNL     1      -0.452  11.830  18.875  0.00  0.00    +0.000 A 
ATOM      3  C   UNL     1      -0.022  10.504  18.762  0.00  0.00    +0.000 A 
ATOM      4  C   UNL     1       1.312  10.184  18.479  0.00  0.00    +0.000 A 
ATOM      5  C   UNL     1       2.219  11.259  18.428  0.00  0.00    +0.000 A 
ATOM      6  C   UNL     1       1.788  12.601  18.578  0.00  0.00    +0.000 A 
ENDROOT
BRANCH   4   7
ATOM      7  N   UNL     1       1.723   8.816  18.251  0.00  0.00    +0.000 N 
ATOM      8  C   UNL     1       1.851   7.903  19.272  0.00  0.00    +0.000 C 
ATOM      9  O   UNL     1       1.628   8.196  20.453  0.00  0.00    +0.000 OA
ATOM     10  N   UNL     1       2.207   6.604  19.025  0.00  0.00    +0.000 N 
ATOM     11  C   UNL     1       2.221   5.795  20.232  0.00  0.00    +0.000 C 
ATOM     12  C   UNL     1       2.330   4.423  19.701  0.00  0.00    +0.000 A 
ATOM     13  C   UNL     1       1.491   3.345  19.867  0.00  0.00    +0.000 A 
ATOM     14  C   UNL     1       1.799   2.169  19.195  0.00  0.00    +0.000 A 
ATOM     15  C   UNL     1       2.981   2.096  18.448  0.00  0.00    +0.000 A 
ATOM     16  C   UNL     1       3.657   3.273  18.103  0.00  0.00    +0.000 A 
ATOM     17  C   UNL     1       3.151   4.467  18.587  0.00  0.00    +0.000 A 
ATOM     18  C   UNL     1       2.683   5.765  17.883  0.00  0.00    +0.000 C 
ATOM     19  H   UNL     1       1.751   8.474  17.302  0.00  0.00    +0.000 HD
ENDBRANCH   4   7
BRANCH   1  24
ATOM     20  N   UNL     1      -2.557  15.492  22.090  0.00  0.00    +0.000 N 
ATOM     21  C   UNL     1      -2.536  16.208  20.801  0.00  0.00    +0.000 C 
ATOM     22  C   UNL     1      -1.118  16.128  20.194  0.00  0.00    +0.000 C 
ATOM     23  N   UNL     1      -0.652  14.736  20.092  0.00  0.00    +0.000 N 
ATOM     24  C   UNL     1      -0.006  14.316  18.927  0.00  0.00    +0.000 C 
ATOM     25  O   UNL     1       0.203  15.072  17.978  0.00  0.00    +0.000 OA
ATOM     26  C   UNL     1      -0.704  14.023  21.386  0.00  0.00    +0.000 C 
ATOM     27  C   UNL     1      -2.121  14.081  22.001  0.00  0.00    +0.000 C 
BRANCH  20  33
ATOM     28  C   UNL     1      -2.777  16.718  24.207  0.00  0.00    +0.000 A 
ATOM     29  C   UNL     1      -3.590  17.300  25.195  0.00  0.00    +0.000 A 
ATOM     30  C   UNL     1      -4.973  17.135  25.158  0.00  0.00    +0.000 A 
ATOM     31  C   UNL     1      -5.534  16.376  24.141  0.00  0.00    +0.000 A 
ATOM     32  C   UNL     1      -4.720  15.800  23.157  0.00  0.00    +0.000 A 
ATOM     33  C   UNL     1      -3.321  15.966  23.148  0.00  0.00    +0.000 A 
BRANCH  28  35
ATOM     34  N   UNL     1      -0.238  17.210  24.303  0.00  0.00    +0.000 NA
ATOM     35  C   UNL     1      -1.354  16.990  24.280  0.00  0.00    +0.000 C 
ENDBRANCH  28  35
ENDBRANCH  20  33
ENDBRANCH   1  24
TORSDOF 4
ENDMDL
MODEL 4
REMARK VINA RESULT:      -7.3      1.675      2.437
REMARK  Name = 
REMARK  4 active torsions:
REMARK  status: ('A' for Active; 'I' for Inactive)
REMARK    1  A    between atoms: C_2  and  C_3
REMARK    2  A    between atoms: C_8  and  N_9
REMARK    3  A    between atoms: C_13  and  C_15
REMARK    4  A    between atoms: C_18  and  N_19
REMARK                            x       y       z     vdW  Elec       q    Type
REMARK                         _______ _______ _______ _____ _____    ______ ____
ROOT
ATOM      1  C   UNL     1       0.614  12.732  18.663  0.00  0.00    +0.000 A 
ATOM      2  C   UNL     1       1.932  12.387  18.371  0.00  0.00    +0.000 A 
ATOM      3  C   UNL     1       2.301  11.060  18.121  0.00  0.00    +0.000 A 
ATOM      4  C   UNL     1       1.382  10.008  18.230  0.00  0.00    +0.000 A 
ATOM      5  C   UNL     1       0.045  10.365  18.489  0.00  0.00    +0.000 A 
ATOM      6  C   UNL     1      -0.334  11.712  18.707  0.00  0.00    +0.000 A 
ENDROOT
BRANCH   4   7
ATOM      7  N   UNL     1       1.799   8.630  18.082  0.00  0.00    +0.000 N 
ATOM      8  C   UNL     1       1.923   7.777  19.154  0.00  0.00    +0.000 C 
ATOM      9  O   UNL     1       1.692   8.136  20.315  0.00  0.00    +0.000 OA
ATOM     10  N   UNL     1       2.283   6.468  18.982  0.00  0.00    +0.000 N 
ATOM     11  C   UNL     1       2.292   5.728  20.233  0.00  0.00    +0.000 C 
ATOM     12  C   UNL     1       2.408   4.329  19.782  0.00  0.00    +0.000 A 
ATOM     13  C   UNL     1       1.571   3.260  20.004  0.00  0.00    +0.000 A 
ATOM     14  C   UNL     1       1.886   2.048  19.402  0.00  0.00    +0.000 A 
ATOM     15  C   UNL     1       3.072   1.936  18.666  0.00  0.00    +0.000 A 
ATOM     16  C   UNL     1       3.747   3.093  18.259  0.00  0.00    +0.000 A 
ATOM     17  C   UNL     1       3.235   4.311  18.672  0.00  0.00    +0.000 A 
ATOM     18  C   UNL     1       2.768   5.567  17.893  0.00  0.00    +0.000 C 
ATOM     19  H   UNL     1       1.832   8.235  17.154  0.00  0.00    +0.000 HD
ENDBRANCH   4   7
BRANCH   1  24
ATOM     20  N   UNL     1      -0.457  15.565  22.844  0.00  0.00    +0.000 N 
ATOM     21  C   UNL     1      -1.138  16.159  21.678  0.00  0.00    +0.000 C 
ATOM     22  C   UNL     1      -0.221  16.050  20.439  0.00  0.00    +0.000 C 
ATOM     23  N   UNL     1       0.217  14.664  20.212  0.00  0.00    +0.000 N 
ATOM     24  C   UNL     1       0.208  14.151  18.912  0.00  0.00    +0.000 C 
ATOM     25  O   UNL     1      -0.142  14.820  17.940  0.00  0.00    +0.000 OA
ATOM     26  C   UNL     1       0.873  14.073  21.397  0.00  0.00    +0.000 C 
ATOM     27  C   UNL     1      -0.038  14.161  22.643  0.00  0.00    +0.000 C 
BRANCH  20  33
ATOM     28  C   UNL     1      -1.612  15.709  25.006  0.00  0.00    +0.000 A 
ATOM     29  C   UNL     1      -1.663  16.189  26.327  0.00  0.00    +0.000 A 
ATOM     30  C   UNL     1      -0.717  17.104  26.782  0.00  0.00    +0.000 A 
ATOM     31  C   UNL     1       0.267  17.546  25.910  0.00  0.00    +0.000 A 
ATOM     32  C   UNL     1       0.316  17.064  24.595  0.00  0.00    +0.000 A 
ATOM     33  C   UNL     1      -0.608  16.120  24.107  0.00  0.00    +0.000 A 
BRANCH  28  35
ATOM     34  N   UNL     1      -3.369  13.920  24.367  0.00  0.00    +0.000 NA
ATOM     35  C   UNL     1      -2.594  14.710  24.629  0.00  0.00    +0.000 C 
ENDBRANCH  28  35
ENDBRANCH  20  33
ENDBRANCH   1  24
TORSDOF 4
ENDMDL
MODEL 5
REMARK VINA RESULT:      -7.2      3.020     12.275
REMARK  Name = 
REMARK  4 active torsions:
REMARK  status: ('A' for Active; 'I' for Inactive)
REMARK    1  A    between atoms: C_2  and  C_3
REMARK    2  A    between atoms: C_8  and  N_9
REMARK    3  A    between atoms: C_13  and  C_15
REMARK    4  A    between atoms: C_18  and  N_19
REMARK                            x       y       z     vdW  Elec       q    Type
REMARK                         _______ _______ _______ _____ _____    ______ ____
ROOT
ATOM      1  C   UNL     1       1.428   7.668  20.612  0.00  0.00    +0.000 A 
ATOM      2  C   UNL     1       1.292   8.085  21.935  0.00  0.00    +0.000 A 
ATOM      3  C   UNL     1       0.877   9.383  22.252  0.00  0.00    +0.000 A 
ATOM      4  C   UNL     1       0.655  10.348  21.261  0.00  0.00    +0.000 A 
ATOM      5  C   UNL     1       0.760   9.913  19.926  0.00  0.00    +0.000 A 
ATOM      6  C   UNL     1       1.145   8.588  19.605  0.00  0.00    +0.000 A 
ENDROOT
BRANCH   4   7
ATOM      7  N   UNL     1       0.338  11.718  21.604  0.00  0.00    +0.000 N 
ATOM      8  C   UNL     1      -0.716  12.049  22.422  0.00  0.00    +0.000 C 
ATOM      9  O   UNL     1      -1.465  11.196  22.913  0.00  0.00    +0.000 OA
ATOM     10  N   UNL     1      -0.972  13.350  22.761  0.00  0.00    +0.000 N 
ATOM     11  C   UNL     1      -2.088  13.473  23.684  0.00  0.00    +0.000 C 
ATOM     12  C   UNL     1      -1.990  14.876  24.127  0.00  0.00    +0.000 A 
ATOM     13  C   UNL     1      -1.837  15.392  25.393  0.00  0.00    +0.000 A 
ATOM     14  C   UNL     1      -1.706  16.769  25.526  0.00  0.00    +0.000 A 
ATOM     15  C   UNL     1      -1.815  17.580  24.391  0.00  0.00    +0.000 A 
ATOM     16  C   UNL     1      -1.714  17.007  23.117  0.00  0.00    +0.000 A 
ATOM     17  C   UNL     1      -1.577  15.632  23.042  0.00  0.00    +0.000 A 
ATOM     18  C   UNL     1      -0.504  14.722  22.395  0.00  0.00    +0.000 C 
ATOM     19  H   UNL     1       1.009  12.437  21.378  0.00  0.00    +0.000 HD
ENDBRANCH   4   7
BRANCH   1  24
ATOM     20  N   UNL     1       4.382   5.534  16.955  0.00  0.00    +0.000 N 
ATOM     21  C   UNL     1       3.423   4.525  17.443  0.00  0.00    +0.000 C 
ATOM     22  C   UNL     1       3.239   4.688  18.968  0.00  0.00    +0.000 C 
ATOM     23  N   UNL     1       2.862   6.066  19.322  0.00  0.00    +0.000 N 
ATOM     24  C   UNL     1       1.853   6.276  20.265  0.00  0.00    +0.000 C 
ATOM     25  O   UNL     1       1.269   5.348  20.825  0.00  0.00    +0.000 OA
ATOM     26  C   UNL     1       3.817   7.068  18.804  0.00  0.00    +0.000 C 
ATOM     27  C   UNL     1       4.002   6.928  17.275  0.00  0.00    +0.000 C 
BRANCH  20  33
ATOM     28  C   UNL     1       6.654   5.500  16.025  0.00  0.00    +0.000 A 
ATOM     29  C   UNL     1       7.559   5.058  15.044  0.00  0.00    +0.000 A 
ATOM     30  C   UNL     1       7.107   4.339  13.940  0.00  0.00    +0.000 A 
ATOM     31  C   UNL     1       5.751   4.077  13.816  0.00  0.00    +0.000 A 
ATOM     32  C   UNL     1       4.852   4.517  14.797  0.00  0.00    +0.000 A 
ATOM     33  C   UNL     1       5.276   5.225  15.939  0.00  0.00    +0.000 A 
BRANCH  28  35
ATOM     34  N   UNL     1       7.634   6.703  18.097  0.00  0.00    +0.000 NA
ATOM     35  C   UNL     1       7.212   6.187  17.175  0.00  0.00    +0.000 C 
ENDBRANCH  28  35
ENDBRANCH  20  33
ENDBRANCH   1  24
TORSDOF 4
ENDMDL
MODEL 6
REMARK VINA RESULT:      -7.2      0.772      1.678
REMARK  Name = 
REMARK  4 active torsions:
REMARK  status: ('A' for Active; 'I' for Inactive)
REMARK    1  A    between atoms: C_2  and  C_3
REMARK    2  A    between atoms: C_8  and  N_9
REMARK    3  A    between atoms: C_13  and  C_15
REMARK    4  A    between atoms: C_18  and  N_19
REMARK                            x       y       z     vdW  Elec       q    Type
REMARK                         _______ _______ _______ _____ _____    ______ ____
ROOT
ATOM      1  C   UNL     1       0.827  13.017  18.765  0.00  0.00    +0.000 A 
ATOM      2  C   UNL     1       2.124  12.603  18.465  0.00  0.00    +0.000 A 
ATOM      3  C   UNL     1       2.419  11.261  18.202  0.00  0.00    +0.000 A 
ATOM      4  C   UNL     1       1.446  10.259  18.305  0.00  0.00    +0.000 A 
ATOM      5  C   UNL     1       0.131  10.685  18.573  0.00  0.00    +0.000 A 
ATOM      6  C   UNL     1      -0.174  12.049  18.804  0.00  0.00    +0.000 A 
ENDROOT
BRANCH   4   7
ATOM      7  N   UNL     1       1.787   8.862  18.143  0.00  0.00    +0.000 N 
ATOM      8  C   UNL     1       1.875   7.996  19.208  0.00  0.00    +0.000 C 
ATOM      9  O   UNL     1       1.675   8.358  20.373  0.00  0.00    +0.000 OA
ATOM     10  N   UNL     1       2.164   6.670  19.023  0.00  0.00    +0.000 N 
ATOM     11  C   UNL     1       2.145   5.921  20.269  0.00  0.00    +0.000 C 
ATOM     12  C   UNL     1       2.182   4.522  19.807  0.00  0.00    +0.000 A 
ATOM     13  C   UNL     1       1.291   3.497  20.029  0.00  0.00    +0.000 A 
ATOM     14  C   UNL     1       1.535   2.274  19.415  0.00  0.00    +0.000 A 
ATOM     15  C   UNL     1       2.706   2.105  18.667  0.00  0.00    +0.000 A 
ATOM     16  C   UNL     1       3.438   3.229  18.262  0.00  0.00    +0.000 A 
ATOM     17  C   UNL     1       2.996   4.469  18.688  0.00  0.00    +0.000 A 
ATOM     18  C   UNL     1       2.589   5.753  17.923  0.00  0.00    +0.000 C 
ATOM     19  H   UNL     1       1.790   8.473  17.212  0.00  0.00    +0.000 HD
ENDBRANCH   4   7
BRANCH   1  24
ATOM     20  N   UNL     1      -2.643  15.521  21.653  0.00  0.00    +0.000 N 
ATOM     21  C   UNL     1      -2.225  16.397  20.542  0.00  0.00    +0.000 C 
ATOM     22  C   UNL     1      -0.715  16.209  20.281  0.00  0.00    +0.000 C 
ATOM     23  N   UNL     1      -0.377  14.794  20.063  0.00  0.00    +0.000 N 
ATOM     24  C   UNL     1       0.499  14.453  19.029  0.00  0.00    +0.000 C 
ATOM     25  O   UNL     1       1.014  15.297  18.295  0.00  0.00    +0.000 OA
ATOM     26  C   UNL     1      -0.825  13.924  21.171  0.00  0.00    +0.000 C 
ATOM     27  C   UNL     1      -2.339  14.090  21.436  0.00  0.00    +0.000 C 
BRANCH  20  33
ATOM     28  C   UNL     1      -4.983  15.810  22.338  0.00  0.00    +0.000 A 
ATOM     29  C   UNL     1      -5.930  16.122  23.330  0.00  0.00    +0.000 A 
ATOM     30  C   UNL     1      -5.517  16.593  24.575  0.00  0.00    +0.000 A 
ATOM     31  C   UNL     1      -4.162  16.761  24.816  0.00  0.00    +0.000 A 
ATOM     32  C   UNL     1      -3.222  16.446  23.826  0.00  0.00    +0.000 A 
ATOM     33  C   UNL     1      -3.600  15.945  22.565  0.00  0.00    +0.000 A 
BRANCH  28  35
ATOM     34  N   UNL     1      -5.919  14.843  20.127  0.00  0.00    +0.000 NA
ATOM     35  C   UNL     1      -5.490  15.265  21.092  0.00  0.00    +0.000 C 
ENDBRANCH  28  35
ENDBRANCH  20  33
ENDBRANCH   1  24
TORSDOF 4
ENDMDL
MODEL 7
REMARK VINA RESULT:      -7.1      1.710      2.444
REMARK  Name = 
REMARK  4 active torsions:
REMARK  status: ('A' for Active; 'I' for Inactive)
REMARK    1  A    between atoms: C_2  and  C_3
REMARK    2  A    between atoms: C_8  and  N_9
REMARK    3  A    between atoms: C_13  and  C_15
REMARK    4  A    between atoms: C_18  and  N_19
REMARK                            x       y       z     vdW  Elec       q    Type
REMARK                         _______ _______ _______ _____ _____    ______ ____
ROOT
ATOM      1  C   UNL     1       0.609  12.607  18.722  0.00  0.00    +0.000 A 
ATOM      2  C   UNL     1      -0.273  11.547  18.925  0.00  0.00    +0.000 A 
ATOM      3  C   UNL     1       0.147  10.218  18.816  0.00  0.00    +0.000 A 
ATOM      4  C   UNL     1       1.450   9.887  18.421  0.00  0.00    +0.000 A 
ATOM      5  C   UNL     1       2.346  10.959  18.252  0.00  0.00    +0.000 A 
ATOM      6  C   UNL     1       1.929  12.305  18.398  0.00  0.00    +0.000 A 
ENDROOT
BRANCH   4   7
ATOM      7  N   UNL     1       1.841   8.512  18.200  0.00  0.00    +0.000 N 
ATOM      8  C   UNL     1       2.027   7.622  19.232  0.00  0.00    +0.000 C 
ATOM      9  O   UNL     1       1.877   7.943  20.417  0.00  0.00    +0.000 OA
ATOM     10  N   UNL     1       2.361   6.316  18.993  0.00  0.00    +0.000 N 
ATOM     11  C   UNL     1       2.445   5.534  20.215  0.00  0.00    +0.000 C 
ATOM     12  C   UNL     1       2.516   4.150  19.711  0.00  0.00    +0.000 A 
ATOM     13  C   UNL     1       1.685   3.081  19.952  0.00  0.00    +0.000 A 
ATOM     14  C   UNL     1       1.946   1.887  19.290  0.00  0.00    +0.000 A 
ATOM     15  C   UNL     1       3.079   1.791  18.474  0.00  0.00    +0.000 A 
ATOM     16  C   UNL     1       3.738   2.956  18.062  0.00  0.00    +0.000 A 
ATOM     17  C   UNL     1       3.268   4.164  18.548  0.00  0.00    +0.000 A 
ATOM     18  C   UNL     1       2.763   5.448  17.845  0.00  0.00    +0.000 C 
ATOM     19  H   UNL     1       1.809   8.148  17.259  0.00  0.00    +0.000 HD
ENDBRANCH   4   7
BRANCH   1  24
ATOM     20  N   UNL     1      -0.632  15.714  22.655  0.00  0.00    +0.000 N 
ATOM     21  C   UNL     1      -1.288  16.209  21.430  0.00  0.00    +0.000 C 
ATOM     22  C   UNL     1      -0.333  16.029  20.229  0.00  0.00    +0.000 C 
ATOM     23  N   UNL     1       0.134  14.638  20.115  0.00  0.00    +0.000 N 
ATOM     24  C   UNL     1       0.172  14.033  18.856  0.00  0.00    +0.000 C 
ATOM     25  O   UNL     1      -0.160  14.624  17.828  0.00  0.00    +0.000 OA
ATOM     26  C   UNL     1       0.764  14.146  21.358  0.00  0.00    +0.000 C 
ATOM     27  C   UNL     1      -0.184  14.307  22.568  0.00  0.00    +0.000 C 
BRANCH  20  33
ATOM     28  C   UNL     1       0.169  17.124  24.499  0.00  0.00    +0.000 A 
ATOM     29  C   UNL     1      -0.096  17.872  25.659  0.00  0.00    +0.000 A 
ATOM     30  C   UNL     1      -1.366  17.861  26.231  0.00  0.00    +0.000 A 
ATOM     31  C   UNL     1      -2.361  17.091  25.648  0.00  0.00    +0.000 A 
ATOM     32  C   UNL     1      -2.094  16.348  24.490  0.00  0.00    +0.000 A 
ATOM     33  C   UNL     1      -0.829  16.355  23.870  0.00  0.00    +0.000 A 
BRANCH  28  35
ATOM     34  N   UNL     1       2.529  17.357  23.463  0.00  0.00    +0.000 NA
ATOM     35  C   UNL     1       1.498  17.239  23.929  0.00  0.00    +0.000 C 
ENDBRANCH  28  35
ENDBRANCH  20  33
ENDBRANCH   1  24
TORSDOF 4
ENDMDL
MODEL 8
REMARK VINA RESULT:      -7.1      2.398      3.315
REMARK  Name = 
REMARK  4 active torsions:
REMARK  status: ('A' for Active; 'I' for Inactive)
REMARK    1  A    between atoms: C_2  and  C_3
REMARK    2  A    between atoms: C_8  and  N_9
REMARK    3  A    between atoms: C_13  and  C_15
REMARK    4  A    between atoms: C_18  and  N_19
REMARK                            x       y       z     vdW  Elec       q    Type
REMARK                         _______ _______ _______ _____ _____    ______ ____
ROOT
ATOM      1  C   UNL     1      -0.751  11.868  22.370  0.00  0.00    +0.000 A 
ATOM      2  C   UNL     1      -0.367  11.547  21.069  0.00  0.00    +0.000 A 
ATOM      3  C   UNL     1      -0.042  10.236  20.706  0.00  0.00    +0.000 A 
ATOM      4  C   UNL     1      -0.012   9.198  21.647  0.00  0.00    +0.000 A 
ATOM      5  C   UNL     1      -0.436   9.518  22.950  0.00  0.00    +0.000 A 
ATOM      6  C   UNL     1      -0.799  10.840  23.309  0.00  0.00    +0.000 A 
ENDROOT
BRANCH   4   7
ATOM      7  N   UNL     1       0.435   7.870  21.285  0.00  0.00    +0.000 N 
ATOM      8  C   UNL     1       1.376   7.649  20.307  0.00  0.00    +0.000 C 
ATOM      9  O   UNL     1       1.896   8.572  19.669  0.00  0.00    +0.000 OA
ATOM     10  N   UNL     1       1.808   6.384  20.009  0.00  0.00    +0.000 N 
ATOM     11  C   UNL     1       2.849   6.379  18.994  0.00  0.00    +0.000 C 
ATOM     12  C   UNL     1       3.353   4.995  19.053  0.00  0.00    +0.000 A 
ATOM     13  C   UNL     1       4.621   4.530  19.310  0.00  0.00    +0.000 A 
ATOM     14  C   UNL     1       4.814   3.155  19.369  0.00  0.00    +0.000 A 
ATOM     15  C   UNL     1       3.741   2.301  19.088  0.00  0.00    +0.000 A 
ATOM     16  C   UNL     1       2.435   2.806  19.086  0.00  0.00    +0.000 A 
ATOM     17  C   UNL     1       2.273   4.164  19.298  0.00  0.00    +0.000 A 
ATOM     18  C   UNL     1       1.470   4.969  20.350  0.00  0.00    +0.000 C 
ATOM     19  H   UNL     1       0.179   7.098  21.882  0.00  0.00    +0.000 HD
ENDBRANCH   4   7
BRANCH   1  24
ATOM     20  N   UNL     1      -4.534  15.156  21.130  0.00  0.00    +0.000 N 
ATOM     21  C   UNL     1      -3.364  15.927  21.593  0.00  0.00    +0.000 C 
ATOM     22  C   UNL     1      -2.688  15.178  22.763  0.00  0.00    +0.000 C 
ATOM     23  N   UNL     1      -2.361  13.790  22.400  0.00  0.00    +0.000 N 
ATOM     24  C   UNL     1      -1.119  13.265  22.761  0.00  0.00    +0.000 C 
ATOM     25  O   UNL     1      -0.283  13.917  23.388  0.00  0.00    +0.000 OA
ATOM     26  C   UNL     1      -3.537  13.038  21.912  0.00  0.00    +0.000 C 
ATOM     27  C   UNL     1      -4.218  13.767  20.731  0.00  0.00    +0.000 C 
BRANCH  20  33
ATOM     28  C   UNL     1      -6.793  16.027  21.543  0.00  0.00    +0.000 A 
ATOM     29  C   UNL     1      -7.889  16.804  21.130  0.00  0.00    +0.000 A 
ATOM     30  C   UNL     1      -7.913  17.371  19.858  0.00  0.00    +0.000 A 
ATOM     31  C   UNL     1      -6.846  17.147  19.000  0.00  0.00    +0.000 A 
ATOM     32  C   UNL     1      -5.753  16.374  19.416  0.00  0.00    +0.000 A 
ATOM     33  C   UNL     1      -5.683  15.806  20.703  0.00  0.00    +0.000 A 
BRANCH  28  35
ATOM     34  N   UNL     1      -6.813  15.159  23.981  0.00  0.00    +0.000 NA
ATOM     35  C   UNL     1      -6.815  15.526  22.904  0.00  0.00    +0.000 C 
ENDBRANCH  28  35
ENDBRANCH  20  33
ENDBRANCH   1  24
TORSDOF 4
ENDMDL
MODEL 9
REMARK VINA RESULT:      -7.1      2.872     12.259
REMARK  Name = 
REMARK  4 active torsions:
REMARK  status: ('A' for Active; 'I' for Inactive)
REMARK    1  A    between atoms: C_2  and  C_3
REMARK    2  A    between atoms: C_8  and  N_9
REMARK    3  A    between atoms: C_13  and  C_15
REMARK    4  A    between atoms: C_18  and  N_19
REMARK                            x       y       z     vdW  Elec       q    Type
REMARK                         _______ _______ _______ _____ _____    ______ ____
ROOT
ATOM      1  C   UNL     1       1.448   8.049  20.357  0.00  0.00    +0.000 A 
ATOM      2  C   UNL     1       1.272   8.679  21.588  0.00  0.00    +0.000 A 
ATOM      3  C   UNL     1       0.689   9.947  21.681  0.00  0.00    +0.000 A 
ATOM      4  C   UNL     1       0.325  10.677  20.542  0.00  0.00    +0.000 A 
ATOM      5  C   UNL     1       0.471  10.022  19.304  0.00  0.00    +0.000 A 
ATOM      6  C   UNL     1       1.030   8.724  19.212  0.00  0.00    +0.000 A 
ENDROOT
BRANCH   4   7
ATOM      7  N   UNL     1      -0.171  12.032  20.645  0.00  0.00    +0.000 N 
ATOM      8  C   UNL     1       0.435  13.090  20.010  0.00  0.00    +0.000 C 
ATOM      9  O   UNL     1       1.447  12.952  19.314  0.00  0.00    +0.000 OA
ATOM     10  N   UNL     1      -0.077  14.358  20.095  0.00  0.00    +0.000 N 
ATOM     11  C   UNL     1       0.676  15.313  19.299  0.00  0.00    +0.000 C 
ATOM     12  C   UNL     1      -0.200  16.499  19.301  0.00  0.00    +0.000 A 
ATOM     13  C   UNL     1      -0.766  17.178  18.247  0.00  0.00    +0.000 A 
ATOM     14  C   UNL     1      -1.615  18.239  18.534  0.00  0.00    +0.000 A 
ATOM     15  C   UNL     1      -1.800  18.628  19.866  0.00  0.00    +0.000 A 
ATOM     16  C   UNL     1      -1.417  17.764  20.900  0.00  0.00    +0.000 A 
ATOM     17  C   UNL     1      -0.801  16.576  20.546  0.00  0.00    +0.000 A 
ATOM     18  C   UNL     1      -1.142  15.094  20.841  0.00  0.00    +0.000 C 
ATOM     19  H   UNL     1      -1.083  12.180  21.052  0.00  0.00    +0.000 HD
ENDBRANCH   4   7
BRANCH   1  24
ATOM     20  N   UNL     1       4.439   5.620  16.921  0.00  0.00    +0.000 N 
ATOM     21  C   UNL     1       3.678   4.614  17.687  0.00  0.00    +0.000 C 
ATOM     22  C   UNL     1       3.575   5.064  19.161  0.00  0.00    +0.000 C 
ATOM     23  N   UNL     1       3.018   6.421  19.273  0.00  0.00    +0.000 N 
ATOM     24  C   UNL     1       2.054   6.685  20.249  0.00  0.00    +0.000 C 
ATOM     25  O   UNL     1       1.657   5.824  21.034  0.00  0.00    +0.000 OA
ATOM     26  C   UNL     1       3.774   7.413  18.479  0.00  0.00    +0.000 C 
ATOM     27  C   UNL     1       3.875   6.985  16.997  0.00  0.00    +0.000 C 
BRANCH  20  33
ATOM     28  C   UNL     1       6.695   5.405  15.975  0.00  0.00    +0.000 A 
ATOM     29  C   UNL     1       7.557   4.882  14.995  0.00  0.00    +0.000 A 
ATOM     30  C   UNL     1       7.044   4.179  13.907  0.00  0.00    +0.000 A 
ATOM     31  C   UNL     1       5.672   4.014  13.798  0.00  0.00    +0.000 A 
ATOM     32  C   UNL     1       4.815   4.534  14.778  0.00  0.00    +0.000 A 
ATOM     33  C   UNL     1       5.299   5.229  15.904  0.00  0.00    +0.000 A 
BRANCH  28  35
ATOM     34  N   UNL     1       7.768   6.612  17.998  0.00  0.00    +0.000 NA
ATOM     35  C   UNL     1       7.311   6.069  17.108  0.00  0.00    +0.000 C 
ENDBRANCH  28  35
ENDBRANCH  20  33
ENDBRANCH   1  24
TORSDOF 4
ENDMDL
