MODEL 1
REMARK VINA RESULT:      -7.2      0.000      0.000
REMARK  Name = 
REMARK  10 active torsions:
REMARK  status: ('A' for Active; 'I' for Inactive)
REMARK    1  A    between atoms: C_1  and  C_2
REMARK    2  A    between atoms: C_2  and  C_3
REMARK    3  A    between atoms: C_2  and  C_4
REMARK    4  A    between atoms: C_6  and  C_7
REMARK    5  A    between atoms: N_11  and  C_12
REMARK    6  A    between atoms: C_16  and  N_17
REMARK    7  A    between atoms: N_19  and  C_20
REMARK    8  A    between atoms: N_27  and  C_28
REMARK    9  A    between atoms: C_30  and  O_31
REMARK   10  A    between atoms: C_33  and  O_34
REMARK                            x       y       z     vdW  Elec       q    Type
REMARK                         _______ _______ _______ _____ _____    ______ ____
ROOT
ATOM      1  C   UNL     1      -3.055  11.046  18.290  0.00  0.00    +0.000 A 
ATOM      2  N   UNL     1      -2.811  10.056  17.453  0.00  0.00    +0.000 NA
ATOM      3  N   UNL     1      -1.547   9.612  17.670  0.00  0.00    +0.000 NA
ATOM      4  C   UNL     1      -0.980  10.378  18.580  0.00  0.00    +0.000 A 
ATOM      5  N   UNL     1       0.325  10.412  18.951  0.00  0.00    +0.000 N 
ATOM      6  N   UNL     1      -1.918  11.293  19.055  0.00  0.00    +0.000 N 
ATOM      7  H   UNL     1       0.789  11.306  19.023  0.00  0.00    +0.000 HD
ENDROOT
BRANCH   6   8
ATOM      8  C   UNL     1      -1.705  12.281  20.057  0.00  0.00    +0.000 A 
ATOM      9  C   UNL     1      -1.392  13.593  19.675  0.00  0.00    +0.000 A 
ATOM     10  C   UNL     1      -1.232  14.604  20.623  0.00  0.00    +0.000 A 
ATOM     11  C   UNL     1      -1.683  14.321  21.913  0.00  0.00    +0.000 A 
ATOM     12  C   UNL     1      -2.042  13.033  22.314  0.00  0.00    +0.000 A 
ATOM     13  C   UNL     1      -2.607  13.141  23.613  0.00  0.00    +0.000 A 
ATOM     14  C   UNL     1      -2.628  14.477  23.946  0.00  0.00    +0.000 A 
ATOM     15  N   UNL     1      -1.946  15.161  22.975  0.00  0.00    +0.000 N 
ATOM     16  C   UNL     1      -1.712  16.588  22.976  0.00  0.00    +0.000 C 
ATOM     17  C   UNL     1      -1.905  11.962  21.409  0.00  0.00    +0.000 A 
ENDBRANCH   6   8
BRANCH   1  20
ATOM     18  C   UNL     1      -5.973  13.115  19.514  0.00  0.00    +0.000 A 
ATOM     19  C   UNL     1      -4.816  12.318  19.511  0.00  0.00    +0.000 A 
ATOM     20  C   UNL     1      -4.328  11.753  18.325  0.00  0.00    +0.000 A 
ATOM     21  C   UNL     1      -5.082  11.880  17.152  0.00  0.00    +0.000 A 
ATOM     22  C   UNL     1      -6.227  12.663  17.126  0.00  0.00    +0.000 A 
ATOM     23  C   UNL     1      -6.648  13.293  18.295  0.00  0.00    +0.000 A 
BRANCH  18  25
ATOM     24  C   UNL     1      -7.112  12.652  21.687  0.00  0.00    +0.000 C 
ATOM     25  C   UNL     1      -6.507  13.738  20.796  0.00  0.00    +0.000 C 
ATOM     26  C   UNL     1      -5.475  14.553  21.585  0.00  0.00    +0.000 C 
ENDBRANCH  18  25
BRANCH  21  27
ATOM     27  O   UNL     1      -4.731  11.256  15.983  0.00  0.00    +0.000 OA
ATOM     28  H   UNL     1      -4.186  10.471  16.207  0.00  0.00    +0.000 HD
ENDBRANCH  21  27
BRANCH  23  29
ATOM     29  O   UNL     1      -7.752  14.099  18.261  0.00  0.00    +0.000 OA
ATOM     30  H   UNL     1      -7.675  14.758  18.972  0.00  0.00    +0.000 HD
ENDBRANCH  23  29
ENDBRANCH   1  20
BRANCH   5  31
ATOM     31  C   UNL     1       1.208   9.304  18.866  0.00  0.00    +0.000 A 
ATOM     32  C   UNL     1       2.024   9.158  17.744  0.00  0.00    +0.000 A 
ATOM     33  C   UNL     1       2.892   8.064  17.650  0.00  0.00    +0.000 A 
ATOM     34  C   UNL     1       2.968   7.118  18.677  0.00  0.00    +0.000 A 
ATOM     35  C   UNL     1       2.219   7.295  19.838  0.00  0.00    +0.000 A 
ATOM     36  C   UNL     1       1.303   8.353  19.891  0.00  0.00    +0.000 A 
BRANCH  35  37
ATOM     37  N   UNL     1       2.213   6.311  20.831  0.00  0.00    +0.000 N 
ATOM     38  H   UNL     1       2.536   5.402  20.521  0.00  0.00    +0.000 HD
ATOM     39  H   UNL     1       2.641   6.612  21.702  0.00  0.00    +0.000 HD
ENDBRANCH  35  37
ENDBRANCH   5  31
TORSDOF 7
ENDMDL
MODEL 2
REMARK VINA RESULT:      -6.9      2.448      6.810
REMARK  Name = 
REMARK  10 active torsions:
REMARK  status: ('A' for Active; 'I' for Inactive)
REMARK    1  A    between atoms: C_1  and  C_2
REMARK    2  A    between atoms: C_2  and  C_3
REMARK    3  A    between atoms: C_2  and  C_4
REMARK    4  A    between atoms: C_6  and  C_7
REMARK    5  A    between atoms: N_11  and  C_12
REMARK    6  A    between atoms: C_16  and  N_17
REMARK    7  A    between atoms: N_19  and  C_20
REMARK    8  A    between atoms: N_27  and  C_28
REMARK    9  A    between atoms: C_30  and  O_31
REMARK   10  A    between atoms: C_33  and  O_34
REMARK                            x       y       z     vdW  Elec       q    Type
REMARK                         _______ _______ _______ _____ _____    ______ ____
ROOT
ATOM      1  C   UNL     1      -4.395  13.603  22.169  0.00  0.00    +0.000 A 
ATOM      2  N   UNL     1      -4.778  14.692  22.808  0.00  0.00    +0.000 NA
ATOM      3  N   UNL     1      -3.724  15.166  23.519  0.00  0.00    +0.000 NA
ATOM      4  C   UNL     1      -2.715  14.328  23.388  0.00  0.00    +0.000 A 
ATOM      5  N   UNL     1      -1.545  14.312  24.077  0.00  0.00    +0.000 N 
ATOM      6  N   UNL     1      -3.070  13.323  22.491  0.00  0.00    +0.000 N 
ATOM      7  H   UNL     1      -1.217  13.438  24.462  0.00  0.00    +0.000 HD
ENDROOT
BRANCH   6   8
ATOM      8  C   UNL     1      -2.251  12.238  22.068  0.00  0.00    +0.000 A 
ATOM      9  C   UNL     1      -1.759  12.218  20.755  0.00  0.00    +0.000 A 
ATOM     10  C   UNL     1      -0.906  11.205  20.318  0.00  0.00    +0.000 A 
ATOM     11  C   UNL     1      -0.341  10.399  21.308  0.00  0.00    +0.000 A 
ATOM     12  C   UNL     1      -0.780  10.425  22.633  0.00  0.00    +0.000 A 
ATOM     13  C   UNL     1       0.117   9.620  23.386  0.00  0.00    +0.000 A 
ATOM     14  C   UNL     1       1.095   9.173  22.527  0.00  0.00    +0.000 A 
ATOM     15  N   UNL     1       0.733   9.536  21.256  0.00  0.00    +0.000 N 
ATOM     16  C   UNL     1       1.482   9.221  20.060  0.00  0.00    +0.000 C 
ATOM     17  C   UNL     1      -1.862  11.253  22.989  0.00  0.00    +0.000 A 
ENDBRANCH   6   8
BRANCH   1  20
ATOM     18  C   UNL     1      -5.853  11.910  19.120  0.00  0.00    +0.000 A 
ATOM     19  C   UNL     1      -5.074  12.756  19.926  0.00  0.00    +0.000 A 
ATOM     20  C   UNL     1      -5.288  12.839  21.309  0.00  0.00    +0.000 A 
ATOM     21  C   UNL     1      -6.381  12.166  21.868  0.00  0.00    +0.000 A 
ATOM     22  C   UNL     1      -7.165  11.321  21.096  0.00  0.00    +0.000 A 
ATOM     23  C   UNL     1      -6.882  11.180  19.738  0.00  0.00    +0.000 A 
BRANCH  18  25
ATOM     24  C   UNL     1      -6.200  13.044  16.922  0.00  0.00    +0.000 C 
ATOM     25  C   UNL     1      -5.624  11.809  17.618  0.00  0.00    +0.000 C 
ATOM     26  C   UNL     1      -4.160  11.608  17.211  0.00  0.00    +0.000 C 
ENDBRANCH  18  25
BRANCH  21  27
ATOM     27  O   UNL     1      -6.724  12.293  23.189  0.00  0.00    +0.000 OA
ATOM     28  H   UNL     1      -6.232  13.058  23.560  0.00  0.00    +0.000 HD
ENDBRANCH  21  27
BRANCH  23  29
ATOM     29  O   UNL     1      -7.628  10.317  18.985  0.00  0.00    +0.000 OA
ATOM     30  H   UNL     1      -7.075   9.989  18.255  0.00  0.00    +0.000 HD
ENDBRANCH  23  29
ENDBRANCH   1  20
BRANCH   5  31
ATOM     31  C   UNL     1      -0.939  15.463  24.647  0.00  0.00    +0.000 A 
ATOM     32  C   UNL     1      -0.302  16.388  23.819  0.00  0.00    +0.000 A 
ATOM     33  C   UNL     1       0.302  17.521  24.374  0.00  0.00    +0.000 A 
ATOM     34  C   UNL     1       0.264  17.751  25.753  0.00  0.00    +0.000 A 
ATOM     35  C   UNL     1      -0.437  16.879  26.582  0.00  0.00    +0.000 A 
ATOM     36  C   UNL     1      -0.978  15.713  26.025  0.00  0.00    +0.000 A 
BRANCH  35  37
ATOM     37  N   UNL     1      -0.406  17.044  27.970  0.00  0.00    +0.000 N 
ATOM     38  H   UNL     1      -0.858  16.301  28.490  0.00  0.00    +0.000 HD
ATOM     39  H   UNL     1       0.516  17.280  28.329  0.00  0.00    +0.000 HD
ENDBRANCH  35  37
ENDBRANCH   5  31
TORSDOF 7
ENDMDL
MODEL 3
REMARK VINA RESULT:      -6.8      1.087      1.885
REMARK  Name = 
REMARK  10 active torsions:
REMARK  status: ('A' for Active; 'I' for Inactive)
REMARK    1  A    between atoms: C_1  and  C_2
REMARK    2  A    between atoms: C_2  and  C_3
REMARK    3  A    between atoms: C_2  and  C_4
REMARK    4  A    between atoms: C_6  and  C_7
REMARK    5  A    between atoms: N_11  and  C_12
REMARK    6  A    between atoms: C_16  and  N_17
REMARK    7  A    between atoms: N_19  and  C_20
REMARK    8  A    between atoms: N_27  and  C_28
REMARK    9  A    between atoms: C_30  and  O_31
REMARK   10  A    between atoms: C_33  and  O_34
REMARK                            x       y       z     vdW  Elec       q    Type
REMARK                         _______ _______ _______ _____ _____    ______ ____
ROOT
ATOM      1  C   UNL     1      -2.959  10.969  18.208  0.00  0.00    +0.000 A 
ATOM      2  N   UNL     1      -2.843   9.789  17.629  0.00  0.00    +0.000 NA
ATOM      3  N   UNL     1      -1.563   9.363  17.775  0.00  0.00    +0.000 NA
ATOM      4  C   UNL     1      -0.866  10.312  18.367  0.00  0.00    +0.000 A 
ATOM      5  N   UNL     1       0.479  10.385  18.530  0.00  0.00    +0.000 N 
ATOM      6  N   UNL     1      -1.721  11.355  18.716  0.00  0.00    +0.000 N 
ATOM      7  H   UNL     1       0.952  11.248  18.302  0.00  0.00    +0.000 HD
ENDROOT
BRANCH   6   8
ATOM      8  C   UNL     1      -1.360  12.557  19.388  0.00  0.00    +0.000 A 
ATOM      9  C   UNL     1      -1.474  12.625  20.784  0.00  0.00    +0.000 A 
ATOM     10  C   UNL     1      -1.076  13.762  21.487  0.00  0.00    +0.000 A 
ATOM     11  C   UNL     1      -0.301  14.686  20.785  0.00  0.00    +0.000 A 
ATOM     12  C   UNL     1      -0.133  14.622  19.401  0.00  0.00    +0.000 A 
ATOM     13  C   UNL     1       0.839  15.597  19.052  0.00  0.00    +0.000 A 
ATOM     14  C   UNL     1       1.272  16.187  20.218  0.00  0.00    +0.000 A 
ATOM     15  N   UNL     1       0.482  15.727  21.238  0.00  0.00    +0.000 N 
ATOM     16  C   UNL     1       0.593  16.135  22.621  0.00  0.00    +0.000 C 
ATOM     17  C   UNL     1      -0.802  13.623  18.667  0.00  0.00    +0.000 A 
ENDBRANCH   6   8
BRANCH   1  20
ATOM     18  C   UNL     1      -5.822  13.120  19.420  0.00  0.00    +0.000 A 
ATOM     19  C   UNL     1      -4.689  12.289  19.422  0.00  0.00    +0.000 A 
ATOM     20  C   UNL     1      -4.210  11.713  18.236  0.00  0.00    +0.000 A 
ATOM     21  C   UNL     1      -4.952  11.867  17.059  0.00  0.00    +0.000 A 
ATOM     22  C   UNL     1      -6.072  12.684  17.028  0.00  0.00    +0.000 A 
ATOM     23  C   UNL     1      -6.484  13.322  18.197  0.00  0.00    +0.000 A 
BRANCH  18  25
ATOM     24  C   UNL     1      -7.237  12.756  21.445  0.00  0.00    +0.000 C 
ATOM     25  C   UNL     1      -6.346  13.753  20.701  0.00  0.00    +0.000 C 
ATOM     26  C   UNL     1      -5.257  14.289  21.637  0.00  0.00    +0.000 C 
ENDBRANCH  18  25
BRANCH  21  27
ATOM     27  O   UNL     1      -4.612  11.238  15.890  0.00  0.00    +0.000 OA
ATOM     28  H   UNL     1      -5.420  10.820  15.521  0.00  0.00    +0.000 HD
ENDBRANCH  21  27
BRANCH  23  29
ATOM     29  O   UNL     1      -7.563  14.161  18.159  0.00  0.00    +0.000 OA
ATOM     30  H   UNL     1      -8.370  13.621  18.108  0.00  0.00    +0.000 HD
ENDBRANCH  23  29
ENDBRANCH   1  20
BRANCH   5  31
ATOM     31  C   UNL     1       1.336   9.256  18.611  0.00  0.00    +0.000 A 
ATOM     32  C   UNL     1       2.231   8.993  17.574  0.00  0.00    +0.000 A 
ATOM     33  C   UNL     1       3.074   7.879  17.644  0.00  0.00    +0.000 A 
ATOM     34  C   UNL     1       3.045   7.027  18.754  0.00  0.00    +0.000 A 
ATOM     35  C   UNL     1       2.215   7.322  19.832  0.00  0.00    +0.000 A 
ATOM     36  C   UNL     1       1.326   8.399  19.721  0.00  0.00    +0.000 A 
BRANCH  35  37
ATOM     37  N   UNL     1       2.106   6.431  20.904  0.00  0.00    +0.000 N 
ATOM     38  H   UNL     1       2.258   6.851  21.814  0.00  0.00    +0.000 HD
ATOM     39  H   UNL     1       1.273   5.851  20.866  0.00  0.00    +0.000 HD
ENDBRANCH  35  37
ENDBRANCH   5  31
TORSDOF 7
ENDMDL
MODEL 4
REMARK VINA RESULT:      -6.7      2.751      5.217
REMARK  Name = 
REMARK  10 active torsions:
REMARK  status: ('A' for Active; 'I' for Inactive)
REMARK    1  A    between atoms: C_1  and  C_2
REMARK    2  A    between atoms: C_2  and  C_3
REMARK    3  A    between atoms: C_2  and  C_4
REMARK    4  A    between atoms: C_6  and  C_7
REMARK    5  A    between atoms: N_11  and  C_12
REMARK    6  A    between atoms: C_16  and  N_17
REMARK    7  A    between atoms: N_19  and  C_20
REMARK    8  A    between atoms: N_27  and  C_28
REMARK    9  A    between atoms: C_30  and  O_31
REMARK   10  A    between atoms: C_33  and  O_34
REMARK                            x       y       z     vdW  Elec       q    Type
REMARK                         _______ _______ _______ _____ _____    ______ ____
ROOT
ATOM      1  C   UNL     1      -0.069  13.456  20.960  0.00  0.00    +0.000 A 
ATOM      2  N   UNL     1       1.199  13.152  21.162  0.00  0.00    +0.000 NA
ATOM      3  N   UNL     1       1.405  11.876  20.751  0.00  0.00    +0.000 NA
ATOM      4  C   UNL     1       0.251  11.362  20.374  0.00  0.00    +0.000 A 
ATOM      5  N   UNL     1      -0.034  10.067  20.080  0.00  0.00    +0.000 N 
ATOM      6  N   UNL     1      -0.731  12.348  20.441  0.00  0.00    +0.000 N 
ATOM      7  H   UNL     1      -0.855   9.643  20.487  0.00  0.00    +0.000 HD
ENDROOT
BRANCH   6   8
ATOM      8  C   UNL     1      -2.105  12.198  20.099  0.00  0.00    +0.000 A 
ATOM      9  C   UNL     1      -3.087  12.733  20.946  0.00  0.00    +0.000 A 
ATOM     10  C   UNL     1      -4.441  12.660  20.619  0.00  0.00    +0.000 A 
ATOM     11  C   UNL     1      -4.744  12.307  19.303  0.00  0.00    +0.000 A 
ATOM     12  C   UNL     1      -3.781  11.810  18.423  0.00  0.00    +0.000 A 
ATOM     13  C   UNL     1      -4.391  11.723  17.142  0.00  0.00    +0.000 A 
ATOM     14  C   UNL     1      -5.674  12.209  17.260  0.00  0.00    +0.000 A 
ATOM     15  N   UNL     1      -5.917  12.429  18.590  0.00  0.00    +0.000 N 
ATOM     16  C   UNL     1      -7.168  12.908  19.135  0.00  0.00    +0.000 C 
ATOM     17  C   UNL     1      -2.463  11.609  18.877  0.00  0.00    +0.000 A 
ENDBRANCH   6   8
BRANCH   1  20
ATOM     18  C   UNL     1      -1.570  16.908  20.606  0.00  0.00    +0.000 A 
ATOM     19  C   UNL     1      -0.905  15.709  20.299  0.00  0.00    +0.000 A 
ATOM     20  C   UNL     1      -0.629  14.759  21.293  0.00  0.00    +0.000 A 
ATOM     21  C   UNL     1      -0.906  15.074  22.629  0.00  0.00    +0.000 A 
ATOM     22  C   UNL     1      -1.565  16.249  22.959  0.00  0.00    +0.000 A 
ATOM     23  C   UNL     1      -1.913  17.142  21.948  0.00  0.00    +0.000 A 
BRANCH  18  25
ATOM     24  C   UNL     1      -1.000  17.697  18.306  0.00  0.00    +0.000 C 
ATOM     25  C   UNL     1      -1.879  17.943  19.533  0.00  0.00    +0.000 C 
ATOM     26  C   UNL     1      -3.355  18.009  19.120  0.00  0.00    +0.000 C 
ENDBRANCH  18  25
BRANCH  21  27
ATOM     27  O   UNL     1      -0.557  14.247  23.665  0.00  0.00    +0.000 OA
ATOM     28  H   UNL     1      -0.153  14.797  24.371  0.00  0.00    +0.000 HD
ENDBRANCH  21  27
BRANCH  23  29
ATOM     29  O   UNL     1      -2.600  18.281  22.267  0.00  0.00    +0.000 OA
ATOM     30  H   UNL     1      -1.985  19.033  22.227  0.00  0.00    +0.000 HD
ENDBRANCH  23  29
ENDBRANCH   1  20
BRANCH   5  31
ATOM     31  C   UNL     1       0.915   9.136  19.581  0.00  0.00    +0.000 A 
ATOM     32  C   UNL     1       1.470   9.329  18.316  0.00  0.00    +0.000 A 
ATOM     33  C   UNL     1       2.400   8.412  17.814  0.00  0.00    +0.000 A 
ATOM     34  C   UNL     1       2.798   7.306  18.574  0.00  0.00    +0.000 A 
ATOM     35  C   UNL     1       2.313   7.145  19.869  0.00  0.00    +0.000 A 
ATOM     36  C   UNL     1       1.331   8.029  20.333  0.00  0.00    +0.000 A 
BRANCH  35  37
ATOM     37  N   UNL     1       2.628   5.997  20.604  0.00  0.00    +0.000 N 
ATOM     38  H   UNL     1       2.936   6.180  21.552  0.00  0.00    +0.000 HD
ATOM     39  H   UNL     1       1.919   5.272  20.546  0.00  0.00    +0.000 HD
ENDBRANCH  35  37
ENDBRANCH   5  31
TORSDOF 7
ENDMDL
MODEL 5
REMARK VINA RESULT:      -6.6      2.908      5.324
REMARK  Name = 
REMARK  10 active torsions:
REMARK  status: ('A' for Active; 'I' for Inactive)
REMARK    1  A    between atoms: C_1  and  C_2
REMARK    2  A    between atoms: C_2  and  C_3
REMARK    3  A    between atoms: C_2  and  C_4
REMARK    4  A    between atoms: C_6  and  C_7
REMARK    5  A    between atoms: N_11  and  C_12
REMARK    6  A    between atoms: C_16  and  N_17
REMARK    7  A    between atoms: N_19  and  C_20
REMARK    8  A    between atoms: N_27  and  C_28
REMARK    9  A    between atoms: C_30  and  O_31
REMARK   10  A    between atoms: C_33  and  O_34
REMARK                            x       y       z     vdW  Elec       q    Type
REMARK                         _______ _______ _______ _____ _____    ______ ____
ROOT
ATOM      1  C   UNL     1       0.224  13.628  20.971  0.00  0.00    +0.000 A 
ATOM      2  N   UNL     1       1.452  13.221  21.231  0.00  0.00    +0.000 NA
ATOM      3  N   UNL     1       1.584  11.945  20.788  0.00  0.00    +0.000 NA
ATOM      4  C   UNL     1       0.417  11.533  20.332  0.00  0.00    +0.000 A 
ATOM      5  N   UNL     1       0.053  10.274  19.980  0.00  0.00    +0.000 N 
ATOM      6  N   UNL     1      -0.489  12.590  20.379  0.00  0.00    +0.000 N 
ATOM      7  H   UNL     1      -0.820   9.903  20.326  0.00  0.00    +0.000 HD
ENDROOT
BRANCH   6   8
ATOM      8  C   UNL     1      -1.849  12.558  19.958  0.00  0.00    +0.000 A 
ATOM      9  C   UNL     1      -2.174  11.983  18.720  0.00  0.00    +0.000 A 
ATOM     10  C   UNL     1      -3.498  11.879  18.297  0.00  0.00    +0.000 A 
ATOM     11  C   UNL     1      -4.478  12.093  19.268  0.00  0.00    +0.000 A 
ATOM     12  C   UNL     1      -4.183  12.624  20.524  0.00  0.00    +0.000 A 
ATOM     13  C   UNL     1      -5.369  12.544  21.302  0.00  0.00    +0.000 A 
ATOM     14  C   UNL     1      -6.329  11.928  20.531  0.00  0.00    +0.000 A 
ATOM     15  N   UNL     1      -5.823  11.785  19.267  0.00  0.00    +0.000 N 
ATOM     16  C   UNL     1      -6.537  11.213  18.148  0.00  0.00    +0.000 C 
ATOM     17  C   UNL     1      -2.860  13.007  20.821  0.00  0.00    +0.000 A 
ENDBRANCH   6   8
BRANCH   1  20
ATOM     18  C   UNL     1      -0.887  17.229  20.663  0.00  0.00    +0.000 A 
ATOM     19  C   UNL     1      -0.299  15.988  20.365  0.00  0.00    +0.000 A 
ATOM     20  C   UNL     1      -0.254  14.960  21.317  0.00  0.00    +0.000 A 
ATOM     21  C   UNL     1      -0.684  15.225  22.622  0.00  0.00    +0.000 A 
ATOM     22  C   UNL     1      -1.271  16.440  22.944  0.00  0.00    +0.000 A 
ATOM     23  C   UNL     1      -1.391  17.420  21.960  0.00  0.00    +0.000 A 
BRANCH  18  25
ATOM     24  C   UNL     1       0.339  18.361  18.805  0.00  0.00    +0.000 C 
ATOM     25  C   UNL     1      -0.946  18.349  19.634  0.00  0.00    +0.000 C 
ATOM     26  C   UNL     1      -2.170  18.300  18.710  0.00  0.00    +0.000 C 
ENDBRANCH  18  25
BRANCH  21  27
ATOM     27  O   UNL     1      -0.561  14.309  23.635  0.00  0.00    +0.000 OA
ATOM     28  H   UNL     1      -1.403  13.809  23.699  0.00  0.00    +0.000 HD
ENDBRANCH  21  27
BRANCH  23  29
ATOM     29  O   UNL     1      -2.006  18.602  22.265  0.00  0.00    +0.000 OA
ATOM     30  H   UNL     1      -2.830  18.662  21.751  0.00  0.00    +0.000 HD
ENDBRANCH  23  29
ENDBRANCH   1  20
BRANCH   5  31
ATOM     31  C   UNL     1       0.955   9.287  19.501  0.00  0.00    +0.000 A 
ATOM     32  C   UNL     1       1.506   9.418  18.226  0.00  0.00    +0.000 A 
ATOM     33  C   UNL     1       2.391   8.446  17.745  0.00  0.00    +0.000 A 
ATOM     34  C   UNL     1       2.747   7.347  18.534  0.00  0.00    +0.000 A 
ATOM     35  C   UNL     1       2.268   7.247  19.838  0.00  0.00    +0.000 A 
ATOM     36  C   UNL     1       1.330   8.186  20.283  0.00  0.00    +0.000 A 
BRANCH  35  37
ATOM     37  N   UNL     1       2.540   6.109  20.605  0.00  0.00    +0.000 N 
ATOM     38  H   UNL     1       3.463   6.098  21.023  0.00  0.00    +0.000 HD
ATOM     39  H   UNL     1       1.800   5.878  21.262  0.00  0.00    +0.000 HD
ENDBRANCH  35  37
ENDBRANCH   5  31
TORSDOF 7
ENDMDL
MODEL 6
REMARK VINA RESULT:      -6.6      0.813      1.158
REMARK  Name = 
REMARK  10 active torsions:
REMARK  status: ('A' for Active; 'I' for Inactive)
REMARK    1  A    between atoms: C_1  and  C_2
REMARK    2  A    between atoms: C_2  and  C_3
REMARK    3  A    between atoms: C_2  and  C_4
REMARK    4  A    between atoms: C_6  and  C_7
REMARK    5  A    between atoms: N_11  and  C_12
REMARK    6  A    between atoms: C_16  and  N_17
REMARK    7  A    between atoms: N_19  and  C_20
REMARK    8  A    between atoms: N_27  and  C_28
REMARK    9  A    between atoms: C_30  and  O_31
REMARK   10  A    between atoms: C_33  and  O_34
REMARK                            x       y       z     vdW  Elec       q    Type
REMARK                         _______ _______ _______ _____ _____    ______ ____
ROOT
ATOM      1  C   UNL     1      -3.231  11.129  18.491  0.00  0.00    +0.000 A 
ATOM      2  N   UNL     1      -2.979  10.091  17.716  0.00  0.00    +0.000 NA
ATOM      3  N   UNL     1      -1.736   9.631  18.005  0.00  0.00    +0.000 NA
ATOM      4  C   UNL     1      -1.185  10.432  18.896  0.00  0.00    +0.000 A 
ATOM      5  N   UNL     1       0.105  10.457  19.316  0.00  0.00    +0.000 N 
ATOM      6  N   UNL     1      -2.118  11.391  19.285  0.00  0.00    +0.000 N 
ATOM      7  H   UNL     1       0.588  11.343  19.358  0.00  0.00    +0.000 HD
ENDROOT
BRANCH   6   8
ATOM      8  C   UNL     1      -1.919  12.425  20.243  0.00  0.00    +0.000 A 
ATOM      9  C   UNL     1      -1.539  13.703  19.807  0.00  0.00    +0.000 A 
ATOM     10  C   UNL     1      -1.390  14.759  20.706  0.00  0.00    +0.000 A 
ATOM     11  C   UNL     1      -1.916  14.564  21.984  0.00  0.00    +0.000 A 
ATOM     12  C   UNL     1      -2.342  13.314  22.434  0.00  0.00    +0.000 A 
ATOM     13  C   UNL     1      -2.969  13.514  23.694  0.00  0.00    +0.000 A 
ATOM     14  C   UNL     1      -2.956  14.866  23.953  0.00  0.00    +0.000 A 
ATOM     15  N   UNL     1      -2.201  15.471  22.983  0.00  0.00    +0.000 N 
ATOM     16  C   UNL     1      -1.914  16.887  22.919  0.00  0.00    +0.000 C 
ATOM     17  C   UNL     1      -2.200  12.190  21.598  0.00  0.00    +0.000 A 
ENDBRANCH   6   8
BRANCH   1  20
ATOM     18  C   UNL     1      -6.154  13.304  19.499  0.00  0.00    +0.000 A 
ATOM     19  C   UNL     1      -5.018  12.482  19.580  0.00  0.00    +0.000 A 
ATOM     20  C   UNL     1      -4.487  11.864  18.439  0.00  0.00    +0.000 A 
ATOM     21  C   UNL     1      -5.181  11.966  17.227  0.00  0.00    +0.000 A 
ATOM     22  C   UNL     1      -6.304  12.773  17.118  0.00  0.00    +0.000 A 
ATOM     23  C   UNL     1      -6.766  13.453  18.243  0.00  0.00    +0.000 A 
BRANCH  18  25
ATOM     24  C   UNL     1      -7.341  12.934  21.665  0.00  0.00    +0.000 C 
ATOM     25  C   UNL     1      -6.735  13.983  20.731  0.00  0.00    +0.000 C 
ATOM     26  C   UNL     1      -5.740  14.862  21.500  0.00  0.00    +0.000 C 
ENDBRANCH  18  25
BRANCH  21  27
ATOM     27  O   UNL     1      -4.789  11.294  16.099  0.00  0.00    +0.000 OA
ATOM     28  H   UNL     1      -4.864  11.908  15.336  0.00  0.00    +0.000 HD
ENDBRANCH  21  27
BRANCH  23  29
ATOM     29  O   UNL     1      -7.848  14.281  18.127  0.00  0.00    +0.000 OA
ATOM     30  H   UNL     1      -8.295  14.088  17.286  0.00  0.00    +0.000 HD
ENDBRANCH  23  29
ENDBRANCH   1  20
BRANCH   5  31
ATOM     31  C   UNL     1       0.964   9.326  19.322  0.00  0.00    +0.000 A 
ATOM     32  C   UNL     1       0.985   8.483  20.434  0.00  0.00    +0.000 A 
ATOM     33  C   UNL     1       1.833   7.370  20.450  0.00  0.00    +0.000 A 
ATOM     34  C   UNL     1       2.654   7.078  19.354  0.00  0.00    +0.000 A 
ATOM     35  C   UNL     1       2.584   7.864  18.207  0.00  0.00    +0.000 A 
ATOM     36  C   UNL     1       1.784   9.014  18.229  0.00  0.00    +0.000 A 
BRANCH  35  37
ATOM     37  N   UNL     1       3.463   7.641  17.143  0.00  0.00    +0.000 N 
ATOM     38  H   UNL     1       3.171   6.909  16.506  0.00  0.00    +0.000 HD
ATOM     39  H   UNL     1       3.749   8.493  16.669  0.00  0.00    +0.000 HD
ENDBRANCH  35  37
ENDBRANCH   5  31
TORSDOF 7
ENDMDL
MODEL 7
REMARK VINA RESULT:      -6.5      4.142      8.200
REMARK  Name = 
REMARK  10 active torsions:
REMARK  status: ('A' for Active; 'I' for Inactive)
REMARK    1  A    between atoms: C_1  and  C_2
REMARK    2  A    between atoms: C_2  and  C_3
REMARK    3  A    between atoms: C_2  and  C_4
REMARK    4  A    between atoms: C_6  and  C_7
REMARK    5  A    between atoms: N_11  and  C_12
REMARK    6  A    between atoms: C_16  and  N_17
REMARK    7  A    between atoms: N_19  and  C_20
REMARK    8  A    between atoms: N_27  and  C_28
REMARK    9  A    between atoms: C_30  and  O_31
REMARK   10  A    between atoms: C_33  and  O_34
REMARK                            x       y       z     vdW  Elec       q    Type
REMARK                         _______ _______ _______ _____ _____    ______ ____
ROOT
ATOM      1  C   UNL     1      -1.231  11.742  22.409  0.00  0.00    +0.000 A 
ATOM      2  N   UNL     1      -2.158  11.548  23.327  0.00  0.00    +0.000 NA
ATOM      3  N   UNL     1      -2.693  12.751  23.658  0.00  0.00    +0.000 NA
ATOM      4  C   UNL     1      -2.042  13.696  23.008  0.00  0.00    +0.000 A 
ATOM      5  N   UNL     1      -2.117  15.039  23.188  0.00  0.00    +0.000 N 
ATOM      6  N   UNL     1      -1.118  13.105  22.149  0.00  0.00    +0.000 N 
ATOM      7  H   UNL     1      -1.261  15.571  23.259  0.00  0.00    +0.000 HD
ENDROOT
BRANCH   6   8
ATOM      8  C   UNL     1      -0.234  13.782  21.262  0.00  0.00    +0.000 A 
ATOM      9  C   UNL     1      -0.693  14.168  19.994  0.00  0.00    +0.000 A 
ATOM     10  C   UNL     1       0.122  14.884  19.118  0.00  0.00    +0.000 A 
ATOM     11  C   UNL     1       1.278  15.444  19.663  0.00  0.00    +0.000 A 
ATOM     12  C   UNL     1       1.740  15.112  20.938  0.00  0.00    +0.000 A 
ATOM     13  C   UNL     1       2.823  15.984  21.231  0.00  0.00    +0.000 A 
ATOM     14  C   UNL     1       2.961  16.846  20.166  0.00  0.00    +0.000 A 
ATOM     15  N   UNL     1       2.116  16.424  19.174  0.00  0.00    +0.000 N 
ATOM     16  C   UNL     1       1.989  17.045  17.874  0.00  0.00    +0.000 C 
ATOM     17  C   UNL     1       1.051  14.145  21.695  0.00  0.00    +0.000 A 
ENDBRANCH   6   8
BRANCH   1  20
ATOM     18  C   UNL     1       0.591   9.580  19.899  0.00  0.00    +0.000 A 
ATOM     19  C   UNL     1      -0.268  10.549  20.444  0.00  0.00    +0.000 A 
ATOM     20  C   UNL     1      -0.456  10.653  21.830  0.00  0.00    +0.000 A 
ATOM     21  C   UNL     1       0.121   9.691  22.667  0.00  0.00    +0.000 A 
ATOM     22  C   UNL     1       0.975   8.725  22.157  0.00  0.00    +0.000 A 
ATOM     23  C   UNL     1       1.223   8.692  20.785  0.00  0.00    +0.000 A 
BRANCH  18  25
ATOM     24  C   UNL     1      -0.466   9.876  17.656  0.00  0.00    +0.000 C 
ATOM     25  C   UNL     1       0.807   9.463  18.397  0.00  0.00    +0.000 C 
ATOM     26  C   UNL     1       2.008  10.253  17.863  0.00  0.00    +0.000 C 
ENDBRANCH  18  25
BRANCH  21  27
ATOM     27  O   UNL     1      -0.115   9.658  24.017  0.00  0.00    +0.000 OA
ATOM     28  H   UNL     1       0.030   8.738  24.330  0.00  0.00    +0.000 HD
ENDBRANCH  21  27
BRANCH  23  29
ATOM     29  O   UNL     1       2.098   7.767  20.286  0.00  0.00    +0.000 OA
ATOM     30  H   UNL     1       2.330   8.023  19.377  0.00  0.00    +0.000 HD
ENDBRANCH  23  29
ENDBRANCH   1  20
BRANCH   5  31
ATOM     31  C   UNL     1      -3.265  15.716  23.680  0.00  0.00    +0.000 A 
ATOM     32  C   UNL     1      -3.122  16.674  24.684  0.00  0.00    +0.000 A 
ATOM     33  C   UNL     1      -4.248  17.340  25.178  0.00  0.00    +0.000 A 
ATOM     34  C   UNL     1      -5.523  17.071  24.666  0.00  0.00    +0.000 A 
ATOM     35  C   UNL     1      -5.670  16.176  23.610  0.00  0.00    +0.000 A 
ATOM     36  C   UNL     1      -4.546  15.464  23.171  0.00  0.00    +0.000 A 
BRANCH  35  37
ATOM     37  N   UNL     1      -6.944  15.826  23.152  0.00  0.00    +0.000 N 
ATOM     38  H   UNL     1      -7.572  16.612  23.023  0.00  0.00    +0.000 HD
ATOM     39  H   UNL     1      -6.929  15.192  22.358  0.00  0.00    +0.000 HD
ENDBRANCH  35  37
ENDBRANCH   5  31
TORSDOF 7
ENDMDL
MODEL 8
REMARK VINA RESULT:      -6.5      2.799      5.265
REMARK  Name = 
REMARK  10 active torsions:
REMARK  status: ('A' for Active; 'I' for Inactive)
REMARK    1  A    between atoms: C_1  and  C_2
REMARK    2  A    between atoms: C_2  and  C_3
REMARK    3  A    between atoms: C_2  and  C_4
REMARK    4  A    between atoms: C_6  and  C_7
REMARK    5  A    between atoms: N_11  and  C_12
REMARK    6  A    between atoms: C_16  and  N_17
REMARK    7  A    between atoms: N_19  and  C_20
REMARK    8  A    between atoms: N_27  and  C_28
REMARK    9  A    between atoms: C_30  and  O_31
REMARK   10  A    between atoms: C_33  and  O_34
REMARK                            x       y       z     vdW  Elec       q    Type
REMARK                         _______ _______ _______ _____ _____    ______ ____
ROOT
ATOM      1  C   UNL     1      -0.146  10.807  21.985  0.00  0.00    +0.000 A 
ATOM      2  N   UNL     1       0.561  10.098  22.845  0.00  0.00    +0.000 NA
ATOM      3  N   UNL     1       1.000   8.977  22.219  0.00  0.00    +0.000 NA
ATOM      4  C   UNL     1       0.497   8.949  21.001  0.00  0.00    +0.000 A 
ATOM      5  N   UNL     1       0.518   7.925  20.109  0.00  0.00    +0.000 N 
ATOM      6  N   UNL     1      -0.212  10.126  20.773  0.00  0.00    +0.000 N 
ATOM      7  H   UNL     1      -0.337   7.672  19.637  0.00  0.00    +0.000 HD
ENDROOT
BRANCH   6   8
ATOM      8  C   UNL     1      -0.888  10.488  19.573  0.00  0.00    +0.000 A 
ATOM      9  C   UNL     1      -0.500   9.901  18.360  0.00  0.00    +0.000 A 
ATOM     10  C   UNL     1      -1.174  10.183  17.172  0.00  0.00    +0.000 A 
ATOM     11  C   UNL     1      -2.406  10.827  17.296  0.00  0.00    +0.000 A 
ATOM     12  C   UNL     1      -2.840  11.386  18.499  0.00  0.00    +0.000 A 
ATOM     13  C   UNL     1      -4.187  11.797  18.308  0.00  0.00    +0.000 A 
ATOM     14  C   UNL     1      -4.553  11.437  17.030  0.00  0.00    +0.000 A 
ATOM     15  N   UNL     1      -3.433  10.979  16.388  0.00  0.00    +0.000 N 
ATOM     16  C   UNL     1      -3.390  10.535  15.012  0.00  0.00    +0.000 C 
ATOM     17  C   UNL     1      -1.995  11.348  19.625  0.00  0.00    +0.000 A 
ENDBRANCH   6   8
BRANCH   1  20
ATOM     18  C   UNL     1      -2.629  13.347  23.279  0.00  0.00    +0.000 A 
ATOM     19  C   UNL     1      -2.081  12.139  22.814  0.00  0.00    +0.000 A 
ATOM     20  C   UNL     1      -0.765  12.078  22.333  0.00  0.00    +0.000 A 
ATOM     21  C   UNL     1      -0.038  13.266  22.194  0.00  0.00    +0.000 A 
ATOM     22  C   UNL     1      -0.552  14.471  22.647  0.00  0.00    +0.000 A 
ATOM     23  C   UNL     1      -1.829  14.500  23.207  0.00  0.00    +0.000 A 
BRANCH  18  25
ATOM     24  C   UNL     1      -5.045  13.313  22.647  0.00  0.00    +0.000 C 
ATOM     25  C   UNL     1      -4.054  13.423  23.808  0.00  0.00    +0.000 C 
ATOM     26  C   UNL     1      -4.388  12.385  24.886  0.00  0.00    +0.000 C 
ENDBRANCH  18  25
BRANCH  21  27
ATOM     27  O   UNL     1       1.208  13.300  21.622  0.00  0.00    +0.000 OA
ATOM     28  H   UNL     1       1.361  14.207  21.279  0.00  0.00    +0.000 HD
ENDBRANCH  21  27
BRANCH  23  29
ATOM     29  O   UNL     1      -2.321  15.679  23.692  0.00  0.00    +0.000 OA
ATOM     30  H   UNL     1      -3.107  15.487  24.231  0.00  0.00    +0.000 HD
ENDBRANCH  23  29
ENDBRANCH   1  20
BRANCH   5  31
ATOM     31  C   UNL     1       1.525   6.924  20.068  0.00  0.00    +0.000 A 
ATOM     32  C   UNL     1       2.646   7.107  19.259  0.00  0.00    +0.000 A 
ATOM     33  C   UNL     1       3.639   6.123  19.209  0.00  0.00    +0.000 A 
ATOM     34  C   UNL     1       3.532   4.956  19.975  0.00  0.00    +0.000 A 
ATOM     35  C   UNL     1       2.458   4.797  20.847  0.00  0.00    +0.000 A 
ATOM     36  C   UNL     1       1.437   5.755  20.837  0.00  0.00    +0.000 A 
BRANCH  35  37
ATOM     37  N   UNL     1       2.289   3.599  21.548  0.00  0.00    +0.000 N 
ATOM     38  H   UNL     1       3.131   3.041  21.632  0.00  0.00    +0.000 HD
ATOM     39  H   UNL     1       1.794   3.711  22.428  0.00  0.00    +0.000 HD
ENDBRANCH  35  37
ENDBRANCH   5  31
TORSDOF 7
ENDMDL
MODEL 9
REMARK VINA RESULT:      -6.5      2.420      5.043
REMARK  Name = 
REMARK  10 active torsions:
REMARK  status: ('A' for Active; 'I' for Inactive)
REMARK    1  A    between atoms: C_1  and  C_2
REMARK    2  A    between atoms: C_2  and  C_3
REMARK    3  A    between atoms: C_2  and  C_4
REMARK    4  A    between atoms: C_6  and  C_7
REMARK    5  A    between atoms: N_11  and  C_12
REMARK    6  A    between atoms: C_16  and  N_17
REMARK    7  A    between atoms: N_19  and  C_20
REMARK    8  A    between atoms: N_27  and  C_28
REMARK    9  A    between atoms: C_30  and  O_31
REMARK   10  A    between atoms: C_33  and  O_34
REMARK                            x       y       z     vdW  Elec       q    Type
REMARK                         _______ _______ _______ _____ _____    ______ ____
ROOT
ATOM      1  C   UNL     1      -0.449  13.502  21.236  0.00  0.00    +0.000 A 
ATOM      2  N   UNL     1       0.825  13.225  21.443  0.00  0.00    +0.000 NA
ATOM      3  N   UNL     1       1.081  11.989  20.944  0.00  0.00    +0.000 NA
ATOM      4  C   UNL     1      -0.047  11.468  20.505  0.00  0.00    +0.000 A 
ATOM      5  N   UNL     1      -0.282  10.190  20.111  0.00  0.00    +0.000 N 
ATOM      6  N   UNL     1      -1.062  12.414  20.622  0.00  0.00    +0.000 N 
ATOM      7  H   UNL     1      -1.097   9.711  20.467  0.00  0.00    +0.000 HD
ENDROOT
BRANCH   6   8
ATOM      8  C   UNL     1      -2.424  12.247  20.240  0.00  0.00    +0.000 A 
ATOM      9  C   UNL     1      -3.439  12.716  21.085  0.00  0.00    +0.000 A 
ATOM     10  C   UNL     1      -4.782  12.625  20.722  0.00  0.00    +0.000 A 
ATOM     11  C   UNL     1      -5.044  12.326  19.384  0.00  0.00    +0.000 A 
ATOM     12  C   UNL     1      -4.049  11.896  18.506  0.00  0.00    +0.000 A 
ATOM     13  C   UNL     1      -4.626  11.852  17.208  0.00  0.00    +0.000 A 
ATOM     14  C   UNL     1      -5.923  12.300  17.316  0.00  0.00    +0.000 A 
ATOM     15  N   UNL     1      -6.204  12.452  18.648  0.00  0.00    +0.000 N 
ATOM     16  C   UNL     1      -7.479  12.874  19.184  0.00  0.00    +0.000 C 
ATOM     17  C   UNL     1      -2.737  11.706  18.983  0.00  0.00    +0.000 A 
ENDBRANCH   6   8
BRANCH   1  20
ATOM     18  C   UNL     1      -1.871  16.249  23.409  0.00  0.00    +0.000 A 
ATOM     19  C   UNL     1      -1.412  14.990  22.987  0.00  0.00    +0.000 A 
ATOM     20  C   UNL     1      -1.058  14.758  21.650  0.00  0.00    +0.000 A 
ATOM     21  C   UNL     1      -1.294  15.761  20.702  0.00  0.00    +0.000 A 
ATOM     22  C   UNL     1      -1.744  17.014  21.091  0.00  0.00    +0.000 A 
ATOM     23  C   UNL     1      -2.005  17.256  22.439  0.00  0.00    +0.000 A 
BRANCH  18  25
ATOM     24  C   UNL     1      -3.750  16.270  25.054  0.00  0.00    +0.000 C 
ATOM     25  C   UNL     1      -2.252  16.513  24.859  0.00  0.00    +0.000 C 
ATOM     26  C   UNL     1      -1.449  15.703  25.884  0.00  0.00    +0.000 C 
ENDBRANCH  18  25
BRANCH  21  27
ATOM     27  O   UNL     1      -1.085  15.567  19.361  0.00  0.00    +0.000 OA
ATOM     28  H   UNL     1      -0.585  14.729  19.248  0.00  0.00    +0.000 HD
ENDBRANCH  21  27
BRANCH  23  29
ATOM     29  O   UNL     1      -2.408  18.503  22.829  0.00  0.00    +0.000 OA
ATOM     30  H   UNL     1      -3.044  18.840  22.175  0.00  0.00    +0.000 HD
ENDBRANCH  23  29
ENDBRANCH   1  20
BRANCH   5  31
ATOM     31  C   UNL     1       0.707   9.329  19.566  0.00  0.00    +0.000 A 
ATOM     32  C   UNL     1       1.215   9.582  18.291  0.00  0.00    +0.000 A 
ATOM     33  C   UNL     1       2.185   8.735  17.745  0.00  0.00    +0.000 A 
ATOM     34  C   UNL     1       2.669   7.639  18.469  0.00  0.00    +0.000 A 
ATOM     35  C   UNL     1       2.231   7.422  19.773  0.00  0.00    +0.000 A 
ATOM     36  C   UNL     1       1.210   8.234  20.282  0.00  0.00    +0.000 A 
BRANCH  35  37
ATOM     37  N   UNL     1       2.635   6.280  20.472  0.00  0.00    +0.000 N 
ATOM     38  H   UNL     1       1.903   5.592  20.606  0.00  0.00    +0.000 HD
ATOM     39  H   UNL     1       3.503   5.880  20.127  0.00  0.00    +0.000 HD
ENDBRANCH  35  37
ENDBRANCH   5  31
TORSDOF 7
ENDMDL
