MODEL 1
REMARK VINA RESULT:      -6.9      0.000      0.000
REMARK  Name = 
REMARK  9 active torsions:
REMARK  status: ('A' for Active; 'I' for Inactive)
REMARK    1  A    between atoms: C_1  and  C_2
REMARK    2  A    between atoms: C_4  and  C_5
REMARK    3  A    between atoms: C_6  and  C_7
REMARK    4  A    between atoms: C_7  and  C_8
REMARK    5  A    between atoms: C_8  and  N_9
REMARK    6  A    between atoms: N_9  and  S_10
REMARK    7  A    between atoms: S_10  and  C_13
REMARK    8  A    between atoms: C_13  and  C_14
REMARK    9  A    between atoms: C_20  and  C_21
REMARK                            x       y       z     vdW  Elec       q    Type
REMARK                         _______ _______ _______ _____ _____    ______ ____
ROOT
ATOM      1  N   UNL     1       2.327   5.258  21.015  0.00  0.00    +0.000 NA
ATOM      2  H   UNL     1       1.941   4.598  21.699  0.00  0.00    +0.000 HD
ENDROOT
BRANCH   1   3
ATOM      3  S   UNL     1       2.970   4.363  19.728  0.00  0.00    +0.000 S 
ATOM      4  O   UNL     1       3.581   3.203  20.338  0.00  0.00    +0.000 OA
ATOM      5  O   UNL     1       1.928   4.235  18.741  0.00  0.00    +0.000 OA
BRANCH   3   6
ATOM      6  C   UNL     1       4.252   5.460  19.107  0.00  0.00    +0.000 C 
BRANCH   6   7
ATOM      7  C   UNL     1       5.331   4.716  18.319  0.00  0.00    +0.000 C 
ATOM      8  C   UNL     1       6.740   5.239  18.613  0.00  0.00    +0.000 C 
ATOM      9  C   UNL     1       7.761   4.552  17.718  0.00  0.00    +0.000 C 
ATOM     10  O   UNL     1       7.427   4.732  16.342  0.00  0.00    +0.000 OA
ATOM     11  C   UNL     1       6.164   4.155  16.014  0.00  0.00    +0.000 C 
ATOM     12  C   UNL     1       5.050   4.817  16.812  0.00  0.00    +0.000 C 
ENDBRANCH   6   7
ENDBRANCH   3   6
ENDBRANCH   1   3
BRANCH   1  13
ATOM     13  C   UNL     1       1.398   6.334  20.619  0.00  0.00    +0.000 C 
BRANCH  13  14
ATOM     14  C   UNL     1       1.955   7.712  20.963  0.00  0.00    +0.000 C 
BRANCH  14  20
ATOM     15  C   UNL     1      -1.401  11.566  18.124  0.00  0.00    +0.000 C 
ATOM     16  C   UNL     1      -0.543  10.582  18.858  0.00  0.00    +0.000 A 
ATOM     17  C   UNL     1      -0.761  10.297  20.205  0.00  0.00    +0.000 A 
ATOM     18  C   UNL     1       0.059   9.393  20.900  0.00  0.00    +0.000 A 
ATOM     19  C   UNL     1      -0.265   9.119  22.349  0.00  0.00    +0.000 C 
ATOM     20  C   UNL     1       1.135   8.755  20.226  0.00  0.00    +0.000 A 
ATOM     21  C   UNL     1       1.340   9.022  18.850  0.00  0.00    +0.000 A 
ATOM     22  C   UNL     1       2.412   8.389  17.999  0.00  0.00    +0.000 C 
ATOM     23  C   UNL     1       0.503   9.942  18.194  0.00  0.00    +0.000 A 
ENDBRANCH  14  20
ENDBRANCH  13  14
ENDBRANCH   1  13
TORSDOF 6
ENDMDL
MODEL 2
REMARK VINA RESULT:      -6.8      1.167      1.684
REMARK  Name = 
REMARK  9 active torsions:
REMARK  status: ('A' for Active; 'I' for Inactive)
REMARK    1  A    between atoms: C_1  and  C_2
REMARK    2  A    between atoms: C_4  and  C_5
REMARK    3  A    between atoms: C_6  and  C_7
REMARK    4  A    between atoms: C_7  and  C_8
REMARK    5  A    between atoms: C_8  and  N_9
REMARK    6  A    between atoms: N_9  and  S_10
REMARK    7  A    between atoms: S_10  and  C_13
REMARK    8  A    between atoms: C_13  and  C_14
REMARK    9  A    between atoms: C_20  and  C_21
REMARK                            x       y       z     vdW  Elec       q    Type
REMARK                         _______ _______ _______ _____ _____    ______ ____
ROOT
ATOM      1  N   UNL     1       2.391   5.592  21.064  0.00  0.00    +0.000 NA
ATOM      2  H   UNL     1       2.646   5.708  22.050  0.00  0.00    +0.000 HD
ENDROOT
BRANCH   1   3
ATOM      3  S   UNL     1       1.924   3.980  20.829  0.00  0.00    +0.000 S 
ATOM      4  O   UNL     1       2.210   3.315  22.080  0.00  0.00    +0.000 OA
ATOM      5  O   UNL     1       0.595   4.003  20.274  0.00  0.00    +0.000 OA
BRANCH   3   6
ATOM      6  C   UNL     1       3.088   3.427  19.575  0.00  0.00    +0.000 C 
BRANCH   6   7
ATOM      7  C   UNL     1       3.896   4.579  18.974  0.00  0.00    +0.000 C 
ATOM      8  C   UNL     1       3.602   4.790  17.486  0.00  0.00    +0.000 C 
ATOM      9  C   UNL     1       4.515   5.861  16.910  0.00  0.00    +0.000 C 
ATOM     10  O   UNL     1       5.885   5.519  17.115  0.00  0.00    +0.000 OA
ATOM     11  C   UNL     1       6.216   5.425  18.500  0.00  0.00    +0.000 C 
ATOM     12  C   UNL     1       5.398   4.329  19.171  0.00  0.00    +0.000 C 
ENDBRANCH   6   7
ENDBRANCH   3   6
ENDBRANCH   1   3
BRANCH   1  13
ATOM     13  C   UNL     1       1.431   6.595  20.563  0.00  0.00    +0.000 C 
BRANCH  13  14
ATOM     14  C   UNL     1       1.894   8.017  20.867  0.00  0.00    +0.000 C 
BRANCH  14  20
ATOM     15  C   UNL     1      -1.700  11.556  17.911  0.00  0.00    +0.000 C 
ATOM     16  C   UNL     1      -0.781  10.653  18.675  0.00  0.00    +0.000 A 
ATOM     17  C   UNL     1      -0.961  10.424  20.038  0.00  0.00    +0.000 A 
ATOM     18  C   UNL     1      -0.085   9.597  20.760  0.00  0.00    +0.000 A 
ATOM     19  C   UNL     1      -0.370   9.378  22.226  0.00  0.00    +0.000 C 
ATOM     20  C   UNL     1       1.010   8.980  20.096  0.00  0.00    +0.000 A 
ATOM     21  C   UNL     1       1.178   9.190  18.706  0.00  0.00    +0.000 A 
ATOM     22  C   UNL     1       2.266   8.570  17.865  0.00  0.00    +0.000 C 
ATOM     23  C   UNL     1       0.284  10.033  18.023  0.00  0.00    +0.000 A 
ENDBRANCH  14  20
ENDBRANCH  13  14
ENDBRANCH   1  13
TORSDOF 6
ENDMDL
MODEL 3
REMARK VINA RESULT:      -6.8      0.937      2.100
REMARK  Name = 
REMARK  9 active torsions:
REMARK  status: ('A' for Active; 'I' for Inactive)
REMARK    1  A    between atoms: C_1  and  C_2
REMARK    2  A    between atoms: C_4  and  C_5
REMARK    3  A    between atoms: C_6  and  C_7
REMARK    4  A    between atoms: C_7  and  C_8
REMARK    5  A    between atoms: C_8  and  N_9
REMARK    6  A    between atoms: N_9  and  S_10
REMARK    7  A    between atoms: S_10  and  C_13
REMARK    8  A    between atoms: C_13  and  C_14
REMARK    9  A    between atoms: C_20  and  C_21
REMARK                            x       y       z     vdW  Elec       q    Type
REMARK                         _______ _______ _______ _____ _____    ______ ____
ROOT
ATOM      1  N   UNL     1       3.118   5.393  20.173  0.00  0.00    +0.000 NA
ATOM      2  H   UNL     1       3.249   5.052  21.131  0.00  0.00    +0.000 HD
ENDROOT
BRANCH   1   3
ATOM      3  S   UNL     1       3.188   4.061  19.128  0.00  0.00    +0.000 S 
ATOM      4  O   UNL     1       4.314   3.278  19.585  0.00  0.00    +0.000 OA
ATOM      5  O   UNL     1       1.861   3.505  19.063  0.00  0.00    +0.000 OA
BRANCH   3   6
ATOM      6  C   UNL     1       3.592   4.834  17.556  0.00  0.00    +0.000 C 
BRANCH   6   7
ATOM      7  C   UNL     1       5.099   4.910  17.308  0.00  0.00    +0.000 C 
ATOM      8  C   UNL     1       5.667   6.310  17.560  0.00  0.00    +0.000 C 
ATOM      9  C   UNL     1       7.140   6.363  17.184  0.00  0.00    +0.000 C 
ATOM     10  O   UNL     1       7.328   5.973  15.824  0.00  0.00    +0.000 OA
ATOM     11  C   UNL     1       6.910   4.630  15.586  0.00  0.00    +0.000 C 
ATOM     12  C   UNL     1       5.422   4.475  15.871  0.00  0.00    +0.000 C 
ENDBRANCH   6   7
ENDBRANCH   3   6
ENDBRANCH   1   3
BRANCH   1  13
ATOM     13  C   UNL     1       1.938   6.260  19.993  0.00  0.00    +0.000 C 
BRANCH  13  14
ATOM     14  C   UNL     1       2.140   7.626  20.643  0.00  0.00    +0.000 C 
BRANCH  14  20
ATOM     15  C   UNL     1      -1.349  11.592  18.137  0.00  0.00    +0.000 C 
ATOM     16  C   UNL     1      -0.453  10.573  18.772  0.00  0.00    +0.000 A 
ATOM     17  C   UNL     1       0.606  10.003  18.068  0.00  0.00    +0.000 A 
ATOM     18  C   UNL     1       1.431   9.029  18.655  0.00  0.00    +0.000 A 
ATOM     19  C   UNL     1       2.574   8.485  17.833  0.00  0.00    +0.000 C 
ATOM     20  C   UNL     1       1.186   8.610  19.990  0.00  0.00    +0.000 A 
ATOM     21  C   UNL     1       0.127   9.208  20.716  0.00  0.00    +0.000 A 
ATOM     22  C   UNL     1      -0.222   8.894  22.149  0.00  0.00    +0.000 C 
ATOM     23  C   UNL     1      -0.681  10.172  20.088  0.00  0.00    +0.000 A 
ENDBRANCH  14  20
ENDBRANCH  13  14
ENDBRANCH   1  13
TORSDOF 6
ENDMDL
MODEL 4
REMARK VINA RESULT:      -6.7      0.847      1.315
REMARK  Name = 
REMARK  9 active torsions:
REMARK  status: ('A' for Active; 'I' for Inactive)
REMARK    1  A    between atoms: C_1  and  C_2
REMARK    2  A    between atoms: C_4  and  C_5
REMARK    3  A    between atoms: C_6  and  C_7
REMARK    4  A    between atoms: C_7  and  C_8
REMARK    5  A    between atoms: C_8  and  N_9
REMARK    6  A    between atoms: N_9  and  S_10
REMARK    7  A    between atoms: S_10  and  C_13
REMARK    8  A    between atoms: C_13  and  C_14
REMARK    9  A    between atoms: C_20  and  C_21
REMARK                            x       y       z     vdW  Elec       q    Type
REMARK                         _______ _______ _______ _____ _____    ______ ____
ROOT
ATOM      1  N   UNL     1       2.923   5.521  20.221  0.00  0.00    +0.000 NA
ATOM      2  H   UNL     1       3.245   5.061  21.078  0.00  0.00    +0.000 HD
ENDROOT
BRANCH   1   3
ATOM      3  S   UNL     1       2.824   4.348  19.002  0.00  0.00    +0.000 S 
ATOM      4  O   UNL     1       2.222   3.194  19.631  0.00  0.00    +0.000 OA
ATOM      5  O   UNL     1       2.224   4.980  17.855  0.00  0.00    +0.000 OA
BRANCH   3   6
ATOM      6  C   UNL     1       4.557   4.009  18.662  0.00  0.00    +0.000 C 
BRANCH   6   7
ATOM      7  C   UNL     1       5.151   4.967  17.628  0.00  0.00    +0.000 C 
ATOM      8  C   UNL     1       5.645   4.244  16.371  0.00  0.00    +0.000 C 
ATOM      9  C   UNL     1       6.334   5.222  15.431  0.00  0.00    +0.000 C 
ATOM     10  O   UNL     1       7.410   5.885  16.094  0.00  0.00    +0.000 OA
ATOM     11  C   UNL     1       6.963   6.659  17.206  0.00  0.00    +0.000 C 
ATOM     12  C   UNL     1       6.307   5.764  18.250  0.00  0.00    +0.000 C 
ENDBRANCH   6   7
ENDBRANCH   3   6
ENDBRANCH   1   3
BRANCH   1  13
ATOM     13  C   UNL     1       1.708   6.341  20.391  0.00  0.00    +0.000 C 
BRANCH  13  14
ATOM     14  C   UNL     1       2.045   7.749  20.875  0.00  0.00    +0.000 C 
BRANCH  14  20
ATOM     15  C   UNL     1      -1.479  11.370  17.934  0.00  0.00    +0.000 C 
ATOM     16  C   UNL     1      -0.578  10.445  18.694  0.00  0.00    +0.000 A 
ATOM     17  C   UNL     1      -0.808  10.156  20.038  0.00  0.00    +0.000 A 
ATOM     18  C   UNL     1       0.050   9.309  20.758  0.00  0.00    +0.000 A 
ATOM     19  C   UNL     1      -0.288   9.024  22.201  0.00  0.00    +0.000 C 
ATOM     20  C   UNL     1       1.178   8.735  20.112  0.00  0.00    +0.000 A 
ATOM     21  C   UNL     1       1.397   9.006  18.740  0.00  0.00    +0.000 A 
ATOM     22  C   UNL     1       2.524   8.435  17.917  0.00  0.00    +0.000 C 
ATOM     23  C   UNL     1       0.519   9.867  18.058  0.00  0.00    +0.000 A 
ENDBRANCH  14  20
ENDBRANCH  13  14
ENDBRANCH   1  13
TORSDOF 6
ENDMDL
MODEL 5
REMARK VINA RESULT:      -6.7      3.125      5.142
REMARK  Name = 
REMARK  9 active torsions:
REMARK  status: ('A' for Active; 'I' for Inactive)
REMARK    1  A    between atoms: C_1  and  C_2
REMARK    2  A    between atoms: C_4  and  C_5
REMARK    3  A    between atoms: C_6  and  C_7
REMARK    4  A    between atoms: C_7  and  C_8
REMARK    5  A    between atoms: C_8  and  N_9
REMARK    6  A    between atoms: N_9  and  S_10
REMARK    7  A    between atoms: S_10  and  C_13
REMARK    8  A    between atoms: C_13  and  C_14
REMARK    9  A    between atoms: C_20  and  C_21
REMARK                            x       y       z     vdW  Elec       q    Type
REMARK                         _______ _______ _______ _____ _____    ______ ____
ROOT
ATOM      1  N   UNL     1       5.076   6.414  16.960  0.00  0.00    +0.000 NA
ATOM      2  H   UNL     1       5.336   6.929  16.112  0.00  0.00    +0.000 HD
ENDROOT
BRANCH   1   3
ATOM      3  S   UNL     1       6.501   5.927  17.735  0.00  0.00    +0.000 S 
ATOM      4  O   UNL     1       7.397   7.057  17.630  0.00  0.00    +0.000 OA
ATOM      5  O   UNL     1       6.121   5.383  19.014  0.00  0.00    +0.000 OA
BRANCH   3   6
ATOM      6  C   UNL     1       7.080   4.601  16.668  0.00  0.00    +0.000 C 
BRANCH   6   7
ATOM      7  C   UNL     1       6.639   4.781  15.215  0.00  0.00    +0.000 C 
ATOM      8  C   UNL     1       5.865   3.572  14.681  0.00  0.00    +0.000 C 
ATOM      9  C   UNL     1       5.556   3.749  13.201  0.00  0.00    +0.000 C 
ATOM     10  O   UNL     1       6.756   3.955  12.457  0.00  0.00    +0.000 OA
ATOM     11  C   UNL     1       7.443   5.139  12.859  0.00  0.00    +0.000 C 
ATOM     12  C   UNL     1       7.860   5.045  14.321  0.00  0.00    +0.000 C 
ENDBRANCH   6   7
ENDBRANCH   3   6
ENDBRANCH   1   3
BRANCH   1  13
ATOM     13  C   UNL     1       4.108   7.115  17.824  0.00  0.00    +0.000 C 
BRANCH  13  14
ATOM     14  C   UNL     1       2.687   6.603  17.608  0.00  0.00    +0.000 C 
BRANCH  14  20
ATOM     15  C   UNL     1       1.780   2.615  21.786  0.00  0.00    +0.000 C 
ATOM     16  C   UNL     1       2.007   3.641  20.719  0.00  0.00    +0.000 A 
ATOM     17  C   UNL     1       1.854   5.002  20.981  0.00  0.00    +0.000 A 
ATOM     18  C   UNL     1       2.043   5.963  19.975  0.00  0.00    +0.000 A 
ATOM     19  C   UNL     1       1.886   7.417  20.351  0.00  0.00    +0.000 C 
ATOM     20  C   UNL     1       2.395   5.550  18.662  0.00  0.00    +0.000 A 
ATOM     21  C   UNL     1       2.579   4.170  18.401  0.00  0.00    +0.000 A 
ATOM     22  C   UNL     1       2.992   3.591  17.072  0.00  0.00    +0.000 C 
ATOM     23  C   UNL     1       2.369   3.239  19.434  0.00  0.00    +0.000 A 
ENDBRANCH  14  20
ENDBRANCH  13  14
ENDBRANCH   1  13
TORSDOF 6
ENDMDL
MODEL 6
REMARK VINA RESULT:      -6.6      3.162      5.398
REMARK  Name = 
REMARK  9 active torsions:
REMARK  status: ('A' for Active; 'I' for Inactive)
REMARK    1  A    between atoms: C_1  and  C_2
REMARK    2  A    between atoms: C_4  and  C_5
REMARK    3  A    between atoms: C_6  and  C_7
REMARK    4  A    between atoms: C_7  and  C_8
REMARK    5  A    between atoms: C_8  and  N_9
REMARK    6  A    between atoms: N_9  and  S_10
REMARK    7  A    between atoms: S_10  and  C_13
REMARK    8  A    between atoms: C_13  and  C_14
REMARK    9  A    between atoms: C_20  and  C_21
REMARK                            x       y       z     vdW  Elec       q    Type
REMARK                         _______ _______ _______ _____ _____    ______ ____
ROOT
ATOM      1  N   UNL     1       5.460   6.616  16.925  0.00  0.00    +0.000 NA
ATOM      2  H   UNL     1       5.820   7.225  16.183  0.00  0.00    +0.000 HD
ENDROOT
BRANCH   1   3
ATOM      3  S   UNL     1       6.782   5.992  17.780  0.00  0.00    +0.000 S 
ATOM      4  O   UNL     1       7.747   7.068  17.827  0.00  0.00    +0.000 OA
ATOM      5  O   UNL     1       6.263   5.392  18.982  0.00  0.00    +0.000 OA
BRANCH   3   6
ATOM      6  C   UNL     1       7.375   4.703  16.674  0.00  0.00    +0.000 C 
BRANCH   6   7
ATOM      7  C   UNL     1       6.830   4.852  15.253  0.00  0.00    +0.000 C 
ATOM      8  C   UNL     1       6.056   3.615  14.787  0.00  0.00    +0.000 C 
ATOM      9  C   UNL     1       5.641   3.764  13.331  0.00  0.00    +0.000 C 
ATOM     10  O   UNL     1       6.781   3.994  12.503  0.00  0.00    +0.000 OA
ATOM     11  C   UNL     1       7.459   5.202  12.843  0.00  0.00    +0.000 C 
ATOM     12  C   UNL     1       7.978   5.138  14.274  0.00  0.00    +0.000 C 
ENDBRANCH   6   7
ENDBRANCH   3   6
ENDBRANCH   1   3
BRANCH   1  13
ATOM     13  C   UNL     1       4.414   7.233  17.764  0.00  0.00    +0.000 C 
BRANCH  13  14
ATOM     14  C   UNL     1       3.041   6.629  17.485  0.00  0.00    +0.000 C 
BRANCH  14  20
ATOM     15  C   UNL     1       1.579   2.796  21.650  0.00  0.00    +0.000 C 
ATOM     16  C   UNL     1       1.958   3.773  20.580  0.00  0.00    +0.000 A 
ATOM     17  C   UNL     1       2.455   3.341  19.351  0.00  0.00    +0.000 A 
ATOM     18  C   UNL     1       2.835   4.258  18.357  0.00  0.00    +0.000 A 
ATOM     19  C   UNL     1       3.335   3.706  17.043  0.00  0.00    +0.000 C 
ATOM     20  C   UNL     1       2.715   5.652  18.600  0.00  0.00    +0.000 A 
ATOM     21  C   UNL     1       2.184   6.092  19.838  0.00  0.00    +0.000 A 
ATOM     22  C   UNL     1       1.961   7.534  20.218  0.00  0.00    +0.000 C 
ATOM     23  C   UNL     1       1.826   5.141  20.810  0.00  0.00    +0.000 A 
ENDBRANCH  14  20
ENDBRANCH  13  14
ENDBRANCH   1  13
TORSDOF 6
ENDMDL
MODEL 7
REMARK VINA RESULT:      -6.6      1.152      1.305
REMARK  Name = 
REMARK  9 active torsions:
REMARK  status: ('A' for Active; 'I' for Inactive)
REMARK    1  A    between atoms: C_1  and  C_2
REMARK    2  A    between atoms: C_4  and  C_5
REMARK    3  A    between atoms: C_6  and  C_7
REMARK    4  A    between atoms: C_7  and  C_8
REMARK    5  A    between atoms: C_8  and  N_9
REMARK    6  A    between atoms: N_9  and  S_10
REMARK    7  A    between atoms: S_10  and  C_13
REMARK    8  A    between atoms: C_13  and  C_14
REMARK    9  A    between atoms: C_20  and  C_21
REMARK                            x       y       z     vdW  Elec       q    Type
REMARK                         _______ _______ _______ _____ _____    ______ ____
ROOT
ATOM      1  N   UNL     1       2.122   5.575  20.972  0.00  0.00    +0.000 NA
ATOM      2  H   UNL     1       1.948   5.188  21.905  0.00  0.00    +0.000 HD
ENDROOT
BRANCH   1   3
ATOM      3  S   UNL     1       2.130   4.292  19.866  0.00  0.00    +0.000 S 
ATOM      4  O   UNL     1       3.286   3.496  20.214  0.00  0.00    +0.000 OA
ATOM      5  O   UNL     1       0.803   3.731  19.860  0.00  0.00    +0.000 OA
BRANCH   3   6
ATOM      6  C   UNL     1       2.430   5.137  18.307  0.00  0.00    +0.000 C 
BRANCH   6   7
ATOM      7  C   UNL     1       3.910   5.152  17.923  0.00  0.00    +0.000 C 
ATOM      8  C   UNL     1       4.385   6.535  17.466  0.00  0.00    +0.000 C 
ATOM      9  C   UNL     1       5.825   6.470  16.981  0.00  0.00    +0.000 C 
ATOM     10  O   UNL     1       5.961   5.513  15.932  0.00  0.00    +0.000 OA
ATOM     11  C   UNL     1       5.631   4.193  16.360  0.00  0.00    +0.000 C 
ATOM     12  C   UNL     1       4.178   4.125  16.812  0.00  0.00    +0.000 C 
ENDBRANCH   6   7
ENDBRANCH   3   6
ENDBRANCH   1   3
BRANCH   1  13
ATOM     13  C   UNL     1       1.242   6.702  20.608  0.00  0.00    +0.000 C 
BRANCH  13  14
ATOM     14  C   UNL     1       1.964   8.041  20.731  0.00  0.00    +0.000 C 
BRANCH  14  20
ATOM     15  C   UNL     1      -1.908  12.105  19.096  0.00  0.00    +0.000 C 
ATOM     16  C   UNL     1      -0.916  11.067  19.522  0.00  0.00    +0.000 A 
ATOM     17  C   UNL     1      -0.801  10.682  20.857  0.00  0.00    +0.000 A 
ATOM     18  C   UNL     1       0.146   9.726  21.260  0.00  0.00    +0.000 A 
ATOM     19  C   UNL     1       0.184   9.344  22.721  0.00  0.00    +0.000 C 
ATOM     20  C   UNL     1       1.009   9.138  20.297  0.00  0.00    +0.000 A 
ATOM     21  C   UNL     1       0.875   9.508  18.936  0.00  0.00    +0.000 A 
ATOM     22  C   UNL     1       1.690   8.938  17.803  0.00  0.00    +0.000 C 
ATOM     23  C   UNL     1      -0.079  10.476  18.576  0.00  0.00    +0.000 A 
ENDBRANCH  14  20
ENDBRANCH  13  14
ENDBRANCH   1  13
TORSDOF 6
ENDMDL
MODEL 8
REMARK VINA RESULT:      -6.5      3.561      5.480
REMARK  Name = 
REMARK  9 active torsions:
REMARK  status: ('A' for Active; 'I' for Inactive)
REMARK    1  A    between atoms: C_1  and  C_2
REMARK    2  A    between atoms: C_4  and  C_5
REMARK    3  A    between atoms: C_6  and  C_7
REMARK    4  A    between atoms: C_7  and  C_8
REMARK    5  A    between atoms: C_8  and  N_9
REMARK    6  A    between atoms: N_9  and  S_10
REMARK    7  A    between atoms: S_10  and  C_13
REMARK    8  A    between atoms: C_13  and  C_14
REMARK    9  A    between atoms: C_20  and  C_21
REMARK                            x       y       z     vdW  Elec       q    Type
REMARK                         _______ _______ _______ _____ _____    ______ ____
ROOT
ATOM      1  N   UNL     1       5.856   5.229  18.273  0.00  0.00    +0.000 NA
ATOM      2  H   UNL     1       5.565   4.294  17.971  0.00  0.00    +0.000 HD
ENDROOT
BRANCH   1   3
ATOM      3  S   UNL     1       7.368   5.556  17.583  0.00  0.00    +0.000 S 
ATOM      4  O   UNL     1       7.893   6.678  18.327  0.00  0.00    +0.000 OA
ATOM      5  O   UNL     1       8.076   4.304  17.506  0.00  0.00    +0.000 OA
BRANCH   3   6
ATOM      6  C   UNL     1       6.920   6.093  15.926  0.00  0.00    +0.000 C 
BRANCH   6   7
ATOM      7  C   UNL     1       6.906   4.942  14.919  0.00  0.00    +0.000 C 
ATOM      8  C   UNL     1       7.559   5.318  13.586  0.00  0.00    +0.000 C 
ATOM      9  C   UNL     1       7.411   4.185  12.581  0.00  0.00    +0.000 C 
ATOM     10  O   UNL     1       6.037   3.849  12.399  0.00  0.00    +0.000 OA
ATOM     11  C   UNL     1       5.429   3.387  13.604  0.00  0.00    +0.000 C 
ATOM     12  C   UNL     1       5.464   4.475  14.670  0.00  0.00    +0.000 C 
ENDBRANCH   6   7
ENDBRANCH   3   6
ENDBRANCH   1   3
BRANCH   1  13
ATOM     13  C   UNL     1       4.839   6.278  18.066  0.00  0.00    +0.000 C 
BRANCH  13  14
ATOM     14  C   UNL     1       3.533   5.698  17.531  0.00  0.00    +0.000 C 
BRANCH  14  20
ATOM     15  C   UNL     1       1.303   2.517  21.900  0.00  0.00    +0.000 C 
ATOM     16  C   UNL     1       1.869   3.338  20.783  0.00  0.00    +0.000 A 
ATOM     17  C   UNL     1       1.809   4.730  20.806  0.00  0.00    +0.000 A 
ATOM     18  C   UNL     1       2.318   5.499  19.747  0.00  0.00    +0.000 A 
ATOM     19  C   UNL     1       2.239   7.002  19.866  0.00  0.00    +0.000 C 
ATOM     20  C   UNL     1       2.905   4.854  18.626  0.00  0.00    +0.000 A 
ATOM     21  C   UNL     1       2.992   3.440  18.613  0.00  0.00    +0.000 A 
ATOM     22  C   UNL     1       3.623   2.624  17.513  0.00  0.00    +0.000 C 
ATOM     23  C   UNL     1       2.461   2.707  19.689  0.00  0.00    +0.000 A 
ENDBRANCH  14  20
ENDBRANCH  13  14
ENDBRANCH   1  13
TORSDOF 6
ENDMDL
MODEL 9
REMARK VINA RESULT:      -6.4      1.476      1.968
REMARK  Name = 
REMARK  9 active torsions:
REMARK  status: ('A' for Active; 'I' for Inactive)
REMARK    1  A    between atoms: C_1  and  C_2
REMARK    2  A    between atoms: C_4  and  C_5
REMARK    3  A    between atoms: C_6  and  C_7
REMARK    4  A    between atoms: C_7  and  C_8
REMARK    5  A    between atoms: C_8  and  N_9
REMARK    6  A    between atoms: N_9  and  S_10
REMARK    7  A    between atoms: S_10  and  C_13
REMARK    8  A    between atoms: C_13  and  C_14
REMARK    9  A    between atoms: C_20  and  C_21
REMARK                            x       y       z     vdW  Elec       q    Type
REMARK                         _______ _______ _______ _____ _____    ______ ____
ROOT
ATOM      1  N   UNL     1       2.143   4.809  18.076  0.00  0.00    +0.000 NA
ATOM      2  H   UNL     1       2.822   5.380  17.562  0.00  0.00    +0.000 HD
ENDROOT
BRANCH   1   3
ATOM      3  S   UNL     1       2.701   3.210  18.083  0.00  0.00    +0.000 S 
ATOM      4  O   UNL     1       2.163   2.623  19.289  0.00  0.00    +0.000 OA
ATOM      5  O   UNL     1       2.414   2.658  16.783  0.00  0.00    +0.000 OA
BRANCH   3   6
ATOM      6  C   UNL     1       4.477   3.428  18.262  0.00  0.00    +0.000 C 
BRANCH   6   7
ATOM      7  C   UNL     1       5.031   4.514  17.339  0.00  0.00    +0.000 C 
ATOM      8  C   UNL     1       5.610   3.943  16.041  0.00  0.00    +0.000 C 
ATOM      9  C   UNL     1       6.256   5.046  15.216  0.00  0.00    +0.000 C 
ATOM     10  O   UNL     1       7.263   5.717  15.971  0.00  0.00    +0.000 OA
ATOM     11  C   UNL     1       6.732   6.355  17.132  0.00  0.00    +0.000 C 
ATOM     12  C   UNL     1       6.111   5.327  18.069  0.00  0.00    +0.000 C 
ENDBRANCH   6   7
ENDBRANCH   3   6
ENDBRANCH   1   3
BRANCH   1  13
ATOM     13  C   UNL     1       1.779   5.345  19.402  0.00  0.00    +0.000 C 
BRANCH  13  14
ATOM     14  C   UNL     1       2.749   6.434  19.853  0.00  0.00    +0.000 C 
BRANCH  14  20
ATOM     15  C   UNL     1       0.215  11.511  18.445  0.00  0.00    +0.000 C 
ATOM     16  C   UNL     1       0.863  10.212  18.813  0.00  0.00    +0.000 A 
ATOM     17  C   UNL     1       0.586   9.584  20.027  0.00  0.00    +0.000 A 
ATOM     18  C   UNL     1       1.212   8.378  20.383  0.00  0.00    +0.000 A 
ATOM     19  C   UNL     1       0.832   7.750  21.702  0.00  0.00    +0.000 C 
ATOM     20  C   UNL     1       2.149   7.782  19.497  0.00  0.00    +0.000 A 
ATOM     21  C   UNL     1       2.412   8.404  18.252  0.00  0.00    +0.000 A 
ATOM     22  C   UNL     1       3.347   7.866  17.199  0.00  0.00    +0.000 C 
ATOM     23  C   UNL     1       1.771   9.616  17.939  0.00  0.00    +0.000 A 
ENDBRANCH  14  20
ENDBRANCH  13  14
ENDBRANCH   1  13
TORSDOF 6
ENDMDL
