MODEL 1
REMARK VINA RESULT:      -7.5      0.000      0.000
REMARK  Name = 
REMARK  3 active torsions:
REMARK  status: ('A' for Active; 'I' for Inactive)
REMARK    1  A    between atoms: C_1  and  N_2
REMARK    2  A    between atoms: C_5  and  S_6
REMARK    3  A    between atoms: S_6  and  C_7
REMARK                            x       y       z     vdW  Elec       q    Type
REMARK                         _______ _______ _______ _____ _____    ______ ____
ROOT
ATOM      1  C   UNL     1      -6.828  11.391  18.835  0.00  0.00    +0.000 C 
ATOM      2  N   UNL     1      -5.467  11.783  19.243  0.00  0.00    +0.000 N 
ATOM      3  C   UNL     1      -5.181  12.288  20.468  0.00  0.00    +0.000 A 
ATOM      4  C   UNL     1      -3.853  12.612  20.810  0.00  0.00    +0.000 A 
ATOM      5  C   UNL     1      -2.790  12.437  19.930  0.00  0.00    +0.000 A 
ATOM      6  C   UNL     1      -3.094  11.920  18.654  0.00  0.00    +0.000 A 
ATOM      7  C   UNL     1      -2.100  11.682  17.671  0.00  0.00    +0.000 A 
ATOM      8  C   UNL     1      -2.398  11.156  16.415  0.00  0.00    +0.000 A 
ATOM      9  C   UNL     1      -3.706  10.847  16.093  0.00  0.00    +0.000 A 
ATOM     10  C   UNL     1      -4.713  11.068  17.030  0.00  0.00    +0.000 A 
ATOM     11  C   UNL     1      -4.449  11.595  18.320  0.00  0.00    +0.000 A 
ATOM     12  C   UNL     1      -3.784  13.133  22.229  0.00  0.00    +0.000 C 
ATOM     13  C   UNL     1      -5.234  13.091  22.649  0.00  0.00    +0.000 A 
ATOM     14  C   UNL     1      -5.715  13.491  23.892  0.00  0.00    +0.000 A 
ATOM     15  C   UNL     1      -7.075  13.368  24.140  0.00  0.00    +0.000 A 
ATOM     16  C   UNL     1      -7.916  12.858  23.151  0.00  0.00    +0.000 A 
ATOM     17  C   UNL     1      -7.417  12.470  21.895  0.00  0.00    +0.000 A 
ATOM     18  C   UNL     1      -6.058  12.580  21.615  0.00  0.00    +0.000 A 
ENDROOT
BRANCH   5  19
ATOM     19  S   UNL     1      -1.124  12.727  20.531  0.00  0.00    +0.000 S 
BRANCH  19  20
ATOM     20  C   UNL     1      -0.405  11.101  20.703  0.00  0.00    +0.000 A 
ATOM     21  C   UNL     1      -0.731  10.239  21.756  0.00  0.00    +0.000 A 
ATOM     22  C   UNL     1      -0.147   8.970  21.843  0.00  0.00    +0.000 A 
ATOM     23  C   UNL     1       0.757   8.550  20.871  0.00  0.00    +0.000 A 
ATOM     24 CL   UNL     1       1.499   7.006  21.007  0.00  0.00    +0.000 Cl
ATOM     25  C   UNL     1       1.059   9.377  19.793  0.00  0.00    +0.000 A 
ATOM     26  C   UNL     1       0.476  10.647  19.709  0.00  0.00    +0.000 A 
ENDBRANCH  19  20
ENDBRANCH   5  19
TORSDOF 2
ENDMDL
MODEL 2
REMARK VINA RESULT:      -7.4      4.219      7.687
REMARK  Name = 
REMARK  3 active torsions:
REMARK  status: ('A' for Active; 'I' for Inactive)
REMARK    1  A    between atoms: C_1  and  N_2
REMARK    2  A    between atoms: C_5  and  S_6
REMARK    3  A    between atoms: S_6  and  C_7
REMARK                            x       y       z     vdW  Elec       q    Type
REMARK                         _______ _______ _______ _____ _____    ______ ____
ROOT
ATOM      1  C   UNL     1      -0.132   8.835  22.654  0.00  0.00    +0.000 C 
ATOM      2  N   UNL     1      -0.080   9.885  21.621  0.00  0.00    +0.000 N 
ATOM      3  C   UNL     1       0.579   9.733  20.446  0.00  0.00    +0.000 A 
ATOM      4  C   UNL     1       0.561  10.763  19.484  0.00  0.00    +0.000 A 
ATOM      5  C   UNL     1      -0.114  11.962  19.685  0.00  0.00    +0.000 A 
ATOM      6  C   UNL     1      -0.789  12.120  20.912  0.00  0.00    +0.000 A 
ATOM      7  C   UNL     1      -1.524  13.288  21.233  0.00  0.00    +0.000 A 
ATOM      8  C   UNL     1      -2.205  13.438  22.441  0.00  0.00    +0.000 A 
ATOM      9  C   UNL     1      -2.176  12.421  23.376  0.00  0.00    +0.000 A 
ATOM     10  C   UNL     1      -1.463  11.256  23.100  0.00  0.00    +0.000 A 
ATOM     11  C   UNL     1      -0.763  11.065  21.881  0.00  0.00    +0.000 A 
ATOM     12  C   UNL     1       1.342  10.351  18.255  0.00  0.00    +0.000 C 
ATOM     13  C   UNL     1       1.828   8.974  18.638  0.00  0.00    +0.000 A 
ATOM     14  C   UNL     1       2.619   8.156  17.837  0.00  0.00    +0.000 A 
ATOM     15  C   UNL     1       2.964   6.901  18.319  0.00  0.00    +0.000 A 
ATOM     16  C   UNL     1       2.519   6.495  19.577  0.00  0.00    +0.000 A 
ATOM     17  C   UNL     1       1.729   7.338  20.380  0.00  0.00    +0.000 A 
ATOM     18  C   UNL     1       1.366   8.602  19.926  0.00  0.00    +0.000 A 
ENDROOT
BRANCH   5  19
ATOM     19  S   UNL     1      -0.204  13.131  18.325  0.00  0.00    +0.000 S 
BRANCH  19  20
ATOM     20  C   UNL     1       1.244  14.160  18.503  0.00  0.00    +0.000 A 
ATOM     21  C   UNL     1       2.524  13.731  18.136  0.00  0.00    +0.000 A 
ATOM     22  C   UNL     1       3.628  14.578  18.287  0.00  0.00    +0.000 A 
ATOM     23  C   UNL     1       3.457  15.864  18.793  0.00  0.00    +0.000 A 
ATOM     24 CL   UNL     1       4.824  16.883  19.011  0.00  0.00    +0.000 Cl
ATOM     25  C   UNL     1       2.186  16.323  19.121  0.00  0.00    +0.000 A 
ATOM     26  C   UNL     1       1.082  15.473  18.972  0.00  0.00    +0.000 A 
ENDBRANCH  19  20
ENDBRANCH   5  19
TORSDOF 2
ENDMDL
MODEL 3
REMARK VINA RESULT:      -7.3      1.642      2.454
REMARK  Name = 
REMARK  3 active torsions:
REMARK  status: ('A' for Active; 'I' for Inactive)
REMARK    1  A    between atoms: C_1  and  N_2
REMARK    2  A    between atoms: C_5  and  S_6
REMARK    3  A    between atoms: S_6  and  C_7
REMARK                            x       y       z     vdW  Elec       q    Type
REMARK                         _______ _______ _______ _____ _____    ______ ____
ROOT
ATOM      1  C   UNL     1      -5.364  12.263  20.204  0.00  0.00    +0.000 C 
ATOM      2  N   UNL     1      -3.930  12.339  19.874  0.00  0.00    +0.000 N 
ATOM      3  C   UNL     1      -3.000  12.824  20.732  0.00  0.00    +0.000 A 
ATOM      4  C   UNL     1      -1.638  12.838  20.369  0.00  0.00    +0.000 A 
ATOM      5  C   UNL     1      -1.186  12.368  19.141  0.00  0.00    +0.000 A 
ATOM      6  C   UNL     1      -2.158  11.872  18.248  0.00  0.00    +0.000 A 
ATOM      7  C   UNL     1      -1.827  11.352  16.972  0.00  0.00    +0.000 A 
ATOM      8  C   UNL     1      -2.786  10.848  16.095  0.00  0.00    +0.000 A 
ATOM      9  C   UNL     1      -4.118  10.845  16.463  0.00  0.00    +0.000 A 
ATOM     10  C   UNL     1      -4.487  11.349  17.709  0.00  0.00    +0.000 A 
ATOM     11  C   UNL     1      -3.539  11.865  18.630  0.00  0.00    +0.000 A 
ATOM     12  C   UNL     1      -0.797  13.401  21.495  0.00  0.00    +0.000 C 
ATOM     13  C   UNL     1      -1.842  13.730  22.534  0.00  0.00    +0.000 A 
ATOM     14  C   UNL     1      -1.579  14.297  23.777  0.00  0.00    +0.000 A 
ATOM     15  C   UNL     1      -2.646  14.516  24.637  0.00  0.00    +0.000 A 
ATOM     16  C   UNL     1      -3.938  14.172  24.240  0.00  0.00    +0.000 A 
ATOM     17  C   UNL     1      -4.190  13.610  22.976  0.00  0.00    +0.000 A 
ATOM     18  C   UNL     1      -3.141  13.377  22.090  0.00  0.00    +0.000 A 
ENDROOT
BRANCH   5  19
ATOM     19  S   UNL     1       0.583  12.281  18.856  0.00  0.00    +0.000 S 
BRANCH  19  20
ATOM     20  C   UNL     1       1.029  10.591  19.223  0.00  0.00    +0.000 A 
ATOM     21  C   UNL     1       0.760   9.992  20.459  0.00  0.00    +0.000 A 
ATOM     22  C   UNL     1       1.122   8.661  20.697  0.00  0.00    +0.000 A 
ATOM     23  C   UNL     1       1.742   7.917  19.697  0.00  0.00    +0.000 A 
ATOM     24 CL   UNL     1       2.217   6.295  20.012  0.00  0.00    +0.000 Cl
ATOM     25  C   UNL     1       1.977   8.483  18.449  0.00  0.00    +0.000 A 
ATOM     26  C   UNL     1       1.618   9.816  18.212  0.00  0.00    +0.000 A 
ENDBRANCH  19  20
ENDBRANCH   5  19
TORSDOF 2
ENDMDL
MODEL 4
REMARK VINA RESULT:      -7.2      4.009      6.383
REMARK  Name = 
REMARK  3 active torsions:
REMARK  status: ('A' for Active; 'I' for Inactive)
REMARK    1  A    between atoms: C_1  and  N_2
REMARK    2  A    between atoms: C_5  and  S_6
REMARK    3  A    between atoms: S_6  and  C_7
REMARK                            x       y       z     vdW  Elec       q    Type
REMARK                         _______ _______ _______ _____ _____    ______ ____
ROOT
ATOM      1  C   UNL     1      -0.682  12.060  19.692  0.00  0.00    +0.000 C 
ATOM      2  N   UNL     1      -2.150  12.145  19.600  0.00  0.00    +0.000 N 
ATOM      3  C   UNL     1      -2.920  12.688  20.575  0.00  0.00    +0.000 A 
ATOM      4  C   UNL     1      -4.317  12.772  20.412  0.00  0.00    +0.000 A 
ATOM      5  C   UNL     1      -4.966  12.313  19.271  0.00  0.00    +0.000 A 
ATOM      6  C   UNL     1      -4.162  11.741  18.264  0.00  0.00    +0.000 A 
ATOM      7  C   UNL     1      -4.699  11.248  17.048  0.00  0.00    +0.000 A 
ATOM      8  C   UNL     1      -3.903  10.697  16.045  0.00  0.00    +0.000 A 
ATOM      9  C   UNL     1      -2.535  10.618  16.220  0.00  0.00    +0.000 A 
ATOM     10  C   UNL     1      -1.967  11.089  17.402  0.00  0.00    +0.000 A 
ATOM     11  C   UNL     1      -2.743  11.662  18.443  0.00  0.00    +0.000 A 
ATOM     12  C   UNL     1      -4.950  13.433  21.618  0.00  0.00    +0.000 C 
ATOM     13  C   UNL     1      -3.753  13.694  22.499  0.00  0.00    +0.000 A 
ATOM     14  C   UNL     1      -3.802  14.286  23.757  0.00  0.00    +0.000 A 
ATOM     15  C   UNL     1      -2.609  14.484  24.437  0.00  0.00    +0.000 A 
ATOM     16  C   UNL     1      -1.405  14.088  23.854  0.00  0.00    +0.000 A 
ATOM     17  C   UNL     1      -1.372  13.479  22.587  0.00  0.00    +0.000 A 
ATOM     18  C   UNL     1      -2.551  13.268  21.879  0.00  0.00    +0.000 A 
ENDROOT
BRANCH   5  19
ATOM     19  S   UNL     1      -6.725  12.623  19.104  0.00  0.00    +0.000 S 
BRANCH  19  20
ATOM     20  C   UNL     1      -6.841  14.148  18.181  0.00  0.00    +0.000 A 
ATOM     21  C   UNL     1      -7.157  14.182  16.818  0.00  0.00    +0.000 A 
ATOM     22  C   UNL     1      -7.244  15.403  16.139  0.00  0.00    +0.000 A 
ATOM     23  C   UNL     1      -7.029  16.597  16.821  0.00  0.00    +0.000 A 
ATOM     24 CL   UNL     1      -7.100  18.089  15.970  0.00  0.00    +0.000 Cl
ATOM     25  C   UNL     1      -6.758  16.584  18.185  0.00  0.00    +0.000 A 
ATOM     26  C   UNL     1      -6.668  15.362  18.863  0.00  0.00    +0.000 A 
ENDBRANCH  19  20
ENDBRANCH   5  19
TORSDOF 2
ENDMDL
MODEL 5
REMARK VINA RESULT:      -7.1      4.234      7.753
REMARK  Name = 
REMARK  3 active torsions:
REMARK  status: ('A' for Active; 'I' for Inactive)
REMARK    1  A    between atoms: C_1  and  N_2
REMARK    2  A    between atoms: C_5  and  S_6
REMARK    3  A    between atoms: S_6  and  C_7
REMARK                            x       y       z     vdW  Elec       q    Type
REMARK                         _______ _______ _______ _____ _____    ______ ____
ROOT
ATOM      1  C   UNL     1      -0.107   8.847  22.656  0.00  0.00    +0.000 C 
ATOM      2  N   UNL     1      -0.114   9.896  21.621  0.00  0.00    +0.000 N 
ATOM      3  C   UNL     1       0.526   9.764  20.433  0.00  0.00    +0.000 A 
ATOM      4  C   UNL     1       0.451  10.791  19.470  0.00  0.00    +0.000 A 
ATOM      5  C   UNL     1      -0.263  11.965  19.682  0.00  0.00    +0.000 A 
ATOM      6  C   UNL     1      -0.919  12.101  20.922  0.00  0.00    +0.000 A 
ATOM      7  C   UNL     1      -1.690  13.242  21.256  0.00  0.00    +0.000 A 
ATOM      8  C   UNL     1      -2.352  13.370  22.477  0.00  0.00    +0.000 A 
ATOM      9  C   UNL     1      -2.266  12.357  23.413  0.00  0.00    +0.000 A 
ATOM     10  C   UNL     1      -1.517  11.219  23.125  0.00  0.00    +0.000 A 
ATOM     11  C   UNL     1      -0.834  11.050  21.892  0.00  0.00    +0.000 A 
ATOM     12  C   UNL     1       1.222  10.404  18.226  0.00  0.00    +0.000 C 
ATOM     13  C   UNL     1       1.765   9.047  18.602  0.00  0.00    +0.000 A 
ATOM     14  C   UNL     1       2.570   8.256  17.787  0.00  0.00    +0.000 A 
ATOM     15  C   UNL     1       2.970   7.016  18.263  0.00  0.00    +0.000 A 
ATOM     16  C   UNL     1       2.565   6.598  19.531  0.00  0.00    +0.000 A 
ATOM     17  C   UNL     1       1.762   7.413  20.348  0.00  0.00    +0.000 A 
ATOM     18  C   UNL     1       1.343   8.661  19.899  0.00  0.00    +0.000 A 
ENDROOT
BRANCH   5  19
ATOM     19  S   UNL     1      -0.424  13.126  18.322  0.00  0.00    +0.000 S 
BRANCH  19  20
ATOM     20  C   UNL     1       0.362  14.622  18.897  0.00  0.00    +0.000 A 
ATOM     21  C   UNL     1       1.664  14.642  19.411  0.00  0.00    +0.000 A 
ATOM     22  C   UNL     1       2.241  15.842  19.842  0.00  0.00    +0.000 A 
ATOM     23  C   UNL     1       1.525  17.033  19.749  0.00  0.00    +0.000 A 
ATOM     24 CL   UNL     1       2.227  18.496  20.316  0.00  0.00    +0.000 Cl
ATOM     25  C   UNL     1       0.247  17.039  19.200  0.00  0.00    +0.000 A 
ATOM     26  C   UNL     1      -0.330  15.837  18.772  0.00  0.00    +0.000 A 
ENDBRANCH  19  20
ENDBRANCH   5  19
TORSDOF 2
ENDMDL
MODEL 6
REMARK VINA RESULT:      -7.1      0.448      1.045
REMARK  Name = 
REMARK  3 active torsions:
REMARK  status: ('A' for Active; 'I' for Inactive)
REMARK    1  A    between atoms: C_1  and  N_2
REMARK    2  A    between atoms: C_5  and  S_6
REMARK    3  A    between atoms: S_6  and  C_7
REMARK                            x       y       z     vdW  Elec       q    Type
REMARK                         _______ _______ _______ _____ _____    ______ ____
ROOT
ATOM      1  C   UNL     1      -6.630  11.609  18.959  0.00  0.00    +0.000 C 
ATOM      2  N   UNL     1      -5.226  11.943  19.259  0.00  0.00    +0.000 N 
ATOM      3  C   UNL     1      -4.834  12.499  20.432  0.00  0.00    +0.000 A 
ATOM      4  C   UNL     1      -3.471  12.763  20.672  0.00  0.00    +0.000 A 
ATOM      5  C   UNL     1      -2.479  12.476  19.742  0.00  0.00    +0.000 A 
ATOM      6  C   UNL     1      -2.891  11.906  18.520  0.00  0.00    +0.000 A 
ATOM      7  C   UNL     1      -1.978  11.554  17.495  0.00  0.00    +0.000 A 
ATOM      8  C   UNL     1      -2.384  10.976  16.293  0.00  0.00    +0.000 A 
ATOM      9  C   UNL     1      -3.725  10.727  16.070  0.00  0.00    +0.000 A 
ATOM     10  C   UNL     1      -4.656  11.060  17.052  0.00  0.00    +0.000 A 
ATOM     11  C   UNL     1      -4.281  11.644  18.289  0.00  0.00    +0.000 A 
ATOM     12  C   UNL     1      -3.283  13.359  22.051  0.00  0.00    +0.000 C 
ATOM     13  C   UNL     1      -4.702  13.427  22.560  0.00  0.00    +0.000 A 
ATOM     14  C   UNL     1      -5.080  13.923  23.804  0.00  0.00    +0.000 A 
ATOM     15  C   UNL     1      -6.426  13.895  24.140  0.00  0.00    +0.000 A 
ATOM     16  C   UNL     1      -7.356  13.381  23.237  0.00  0.00    +0.000 A 
ATOM     17  C   UNL     1      -6.960  12.893  21.979  0.00  0.00    +0.000 A 
ATOM     18  C   UNL     1      -5.618  12.906  21.611  0.00  0.00    +0.000 A 
ENDROOT
BRANCH   5  19
ATOM     19  S   UNL     1      -0.764  12.700  20.222  0.00  0.00    +0.000 S 
BRANCH  19  20
ATOM     20  C   UNL     1      -0.107  11.047  20.378  0.00  0.00    +0.000 A 
ATOM     21  C   UNL     1       0.825  10.518  19.478  0.00  0.00    +0.000 A 
ATOM     22  C   UNL     1       1.318   9.219  19.646  0.00  0.00    +0.000 A 
ATOM     23  C   UNL     1       0.893   8.446  20.723  0.00  0.00    +0.000 A 
ATOM     24 CL   UNL     1       1.474   6.838  20.900  0.00  0.00    +0.000 Cl
ATOM     25  C   UNL     1       0.002   8.972  21.652  0.00  0.00    +0.000 A 
ATOM     26  C   UNL     1      -0.493  10.271  21.481  0.00  0.00    +0.000 A 
ENDBRANCH  19  20
ENDBRANCH   5  19
TORSDOF 2
ENDMDL
MODEL 7
REMARK VINA RESULT:      -7.0      2.930      5.849
REMARK  Name = 
REMARK  3 active torsions:
REMARK  status: ('A' for Active; 'I' for Inactive)
REMARK    1  A    between atoms: C_1  and  N_2
REMARK    2  A    between atoms: C_5  and  S_6
REMARK    3  A    between atoms: S_6  and  C_7
REMARK                            x       y       z     vdW  Elec       q    Type
REMARK                         _______ _______ _______ _____ _____    ______ ____
ROOT
ATOM      1  C   UNL     1      -5.143  13.055  19.892  0.00  0.00    +0.000 C 
ATOM      2  N   UNL     1      -3.762  12.603  20.136  0.00  0.00    +0.000 N 
ATOM      3  C   UNL     1      -3.052  11.880  19.236  0.00  0.00    +0.000 A 
ATOM      4  C   UNL     1      -1.721  11.507  19.516  0.00  0.00    +0.000 A 
ATOM      5  C   UNL     1      -1.082  11.852  20.701  0.00  0.00    +0.000 A 
ATOM      6  C   UNL     1      -1.827  12.597  21.638  0.00  0.00    +0.000 A 
ATOM      7  C   UNL     1      -1.286  13.022  22.878  0.00  0.00    +0.000 A 
ATOM      8  C   UNL     1      -2.018  13.772  23.798  0.00  0.00    +0.000 A 
ATOM      9  C   UNL     1      -3.323  14.127  23.511  0.00  0.00    +0.000 A 
ATOM     10  C   UNL     1      -3.892  13.727  22.304  0.00  0.00    +0.000 A 
ATOM     11  C   UNL     1      -3.178  12.968  21.341  0.00  0.00    +0.000 A 
ATOM     12  C   UNL     1      -1.136  10.730  18.357  0.00  0.00    +0.000 C 
ATOM     13  C   UNL     1      -2.296  10.681  17.393  0.00  0.00    +0.000 A 
ATOM     14  C   UNL     1      -2.276  10.053  16.151  0.00  0.00    +0.000 A 
ATOM     15  C   UNL     1      -3.417  10.117  15.364  0.00  0.00    +0.000 A 
ATOM     16  C   UNL     1      -4.542  10.797  15.829  0.00  0.00    +0.000 A 
ATOM     17  C   UNL     1      -4.552  11.417  17.091  0.00  0.00    +0.000 A 
ATOM     18  C   UNL     1      -3.424  11.372  17.904  0.00  0.00    +0.000 A 
ENDROOT
BRANCH   5  19
ATOM     19  S   UNL     1       0.662  11.467  20.876  0.00  0.00    +0.000 S 
BRANCH  19  20
ATOM     20  C   UNL     1       1.507  12.683  19.878  0.00  0.00    +0.000 A 
ATOM     21  C   UNL     1       2.145  12.360  18.674  0.00  0.00    +0.000 A 
ATOM     22  C   UNL     1       2.787  13.350  17.922  0.00  0.00    +0.000 A 
ATOM     23  C   UNL     1       2.784  14.671  18.360  0.00  0.00    +0.000 A 
ATOM     24 CL   UNL     1       3.609  15.874  17.450  0.00  0.00    +0.000 Cl
ATOM     25  C   UNL     1       2.118  15.018  19.531  0.00  0.00    +0.000 A 
ATOM     26  C   UNL     1       1.478  14.026  20.285  0.00  0.00    +0.000 A 
ENDBRANCH  19  20
ENDBRANCH   5  19
TORSDOF 2
ENDMDL
MODEL 8
REMARK VINA RESULT:      -6.9      2.867      3.533
REMARK  Name = 
REMARK  3 active torsions:
REMARK  status: ('A' for Active; 'I' for Inactive)
REMARK    1  A    between atoms: C_1  and  N_2
REMARK    2  A    between atoms: C_5  and  S_6
REMARK    3  A    between atoms: S_6  and  C_7
REMARK                            x       y       z     vdW  Elec       q    Type
REMARK                         _______ _______ _______ _____ _____    ______ ____
ROOT
ATOM      1  C   UNL     1      -5.918  12.462  19.254  0.00  0.00    +0.000 C 
ATOM      2  N   UNL     1      -4.463  12.234  19.318  0.00  0.00    +0.000 N 
ATOM      3  C   UNL     1      -3.721  12.509  20.419  0.00  0.00    +0.000 A 
ATOM      4  C   UNL     1      -2.339  12.235  20.430  0.00  0.00    +0.000 A 
ATOM      5  C   UNL     1      -1.678  11.683  19.338  0.00  0.00    +0.000 A 
ATOM      6  C   UNL     1      -2.451  11.407  18.192  0.00  0.00    +0.000 A 
ATOM      7  C   UNL     1      -1.900  10.832  17.020  0.00  0.00    +0.000 A 
ATOM      8  C   UNL     1      -2.669  10.545  15.892  0.00  0.00    +0.000 A 
ATOM      9  C   UNL     1      -4.022  10.822  15.896  0.00  0.00    +0.000 A 
ATOM     10  C   UNL     1      -4.603  11.390  17.028  0.00  0.00    +0.000 A 
ATOM     11  C   UNL     1      -3.856  11.691  18.196  0.00  0.00    +0.000 A 
ATOM     12  C   UNL     1      -1.737  12.604  21.769  0.00  0.00    +0.000 C 
ATOM     13  C   UNL     1      -2.935  13.144  22.513  0.00  0.00    +0.000 A 
ATOM     14  C   UNL     1      -2.908  13.639  23.813  0.00  0.00    +0.000 A 
ATOM     15  C   UNL     1      -4.100  14.077  24.373  0.00  0.00    +0.000 A 
ATOM     16  C   UNL     1      -5.279  14.015  23.629  0.00  0.00    +0.000 A 
ATOM     17  C   UNL     1      -5.288  13.523  22.312  0.00  0.00    +0.000 A 
ATOM     18  C   UNL     1      -4.110  13.075  21.722  0.00  0.00    +0.000 A 
ENDROOT
BRANCH   5  19
ATOM     19  S   UNL     1       0.048  11.225  19.525  0.00  0.00    +0.000 S 
BRANCH  19  20
ATOM     20  C   UNL     1       0.967  12.675  19.035  0.00  0.00    +0.000 A 
ATOM     21  C   UNL     1       0.455  13.971  19.160  0.00  0.00    +0.000 A 
ATOM     22  C   UNL     1       1.217  15.078  18.769  0.00  0.00    +0.000 A 
ATOM     23  C   UNL     1       2.502  14.897  18.264  0.00  0.00    +0.000 A 
ATOM     24 CL   UNL     1       3.416  16.259  17.751  0.00  0.00    +0.000 Cl
ATOM     25  C   UNL     1       3.044  13.619  18.175  0.00  0.00    +0.000 A 
ATOM     26  C   UNL     1       2.279  12.512  18.563  0.00  0.00    +0.000 A 
ENDBRANCH  19  20
ENDBRANCH   5  19
TORSDOF 2
ENDMDL
MODEL 9
REMARK VINA RESULT:      -6.9      2.808      3.491
REMARK  Name = 
REMARK  3 active torsions:
REMARK  status: ('A' for Active; 'I' for Inactive)
REMARK    1  A    between atoms: C_1  and  N_2
REMARK    2  A    between atoms: C_5  and  S_6
REMARK    3  A    between atoms: S_6  and  C_7
REMARK                            x       y       z     vdW  Elec       q    Type
REMARK                         _______ _______ _______ _____ _____    ______ ____
ROOT
ATOM      1  C   UNL     1      -5.372  12.753  19.532  0.00  0.00    +0.000 C 
ATOM      2  N   UNL     1      -3.959  12.407  19.765  0.00  0.00    +0.000 N 
ATOM      3  C   UNL     1      -3.280  12.786  20.876  0.00  0.00    +0.000 A 
ATOM      4  C   UNL     1      -1.938  12.394  21.056  0.00  0.00    +0.000 A 
ATOM      5  C   UNL     1      -1.255  11.617  20.127  0.00  0.00    +0.000 A 
ATOM      6  C   UNL     1      -1.962  11.233  18.969  0.00  0.00    +0.000 A 
ATOM      7  C   UNL     1      -1.384  10.431  17.954  0.00  0.00    +0.000 A 
ATOM      8  C   UNL     1      -2.088  10.037  16.816  0.00  0.00    +0.000 A 
ATOM      9  C   UNL     1      -3.402  10.433  16.651  0.00  0.00    +0.000 A 
ATOM     10  C   UNL     1      -4.007  11.224  17.626  0.00  0.00    +0.000 A 
ATOM     11  C   UNL     1      -3.326  11.639  18.799  0.00  0.00    +0.000 A 
ATOM     12  C   UNL     1      -1.408  12.916  22.374  0.00  0.00    +0.000 C 
ATOM     13  C   UNL     1      -2.597  13.674  22.913  0.00  0.00    +0.000 A 
ATOM     14  C   UNL     1      -2.621  14.366  24.120  0.00  0.00    +0.000 A 
ATOM     15  C   UNL     1      -3.800  14.994  24.494  0.00  0.00    +0.000 A 
ATOM     16  C   UNL     1      -4.918  14.921  23.662  0.00  0.00    +0.000 A 
ATOM     17  C   UNL     1      -4.875  14.227  22.440  0.00  0.00    +0.000 A 
ATOM     18  C   UNL     1      -3.708  13.586  22.037  0.00  0.00    +0.000 A 
ENDROOT
BRANCH   5  19
ATOM     19  S   UNL     1       0.393  11.040  20.541  0.00  0.00    +0.000 S 
BRANCH  19  20
ATOM     20  C   UNL     1       1.496  12.276  19.875  0.00  0.00    +0.000 A 
ATOM     21  C   UNL     1       1.949  13.367  20.627  0.00  0.00    +0.000 A 
ATOM     22  C   UNL     1       2.821  14.306  20.063  0.00  0.00    +0.000 A 
ATOM     23  C   UNL     1       3.255  14.154  18.749  0.00  0.00    +0.000 A 
ATOM     24 CL   UNL     1       4.294  15.333  18.053  0.00  0.00    +0.000 Cl
ATOM     25  C   UNL     1       2.850  13.053  18.002  0.00  0.00    +0.000 A 
ATOM     26  C   UNL     1       1.976  12.115  18.566  0.00  0.00    +0.000 A 
ENDBRANCH  19  20
ENDBRANCH   5  19
TORSDOF 2
ENDMDL
