MODEL 1
REMARK VINA RESULT:      -7.2      0.000      0.000
REMARK  Name = 
REMARK  6 active torsions:
REMARK  status: ('A' for Active; 'I' for Inactive)
REMARK    1  A    between atoms: C_1  and  C_2
REMARK    2  A    between atoms: C_5  and  N_6
REMARK    3  A    between atoms: N_6  and  C_7
REMARK    4  A    between atoms: C_7  and  C_8
REMARK    5  A    between atoms: N_16  and  C_17
REMARK    6  A    between atoms: C_18  and  C_19
REMARK                            x       y       z     vdW  Elec       q    Type
REMARK                         _______ _______ _______ _____ _____    ______ ____
ROOT
ATOM      1  C   UNL     1       3.617   3.774  18.464  0.00  0.00    +0.000 C 
ENDROOT
BRANCH   1   2
ATOM      2  C   UNL     1       3.009   5.118  18.739  0.00  0.00    +0.000 A 
ATOM      3  N   UNL     1       2.962   6.128  17.897  0.00  0.00    +0.000 NA
ATOM      4  C   UNL     1       2.367   7.155  18.582  0.00  0.00    +0.000 A 
ATOM      5  C   UNL     1       2.076   8.457  18.149  0.00  0.00    +0.000 A 
ATOM      6  C   UNL     1       1.462   9.342  19.041  0.00  0.00    +0.000 A 
ATOM      7  C   UNL     1       1.145   8.940  20.338  0.00  0.00    +0.000 A 
ATOM      8  C   UNL     1       1.426   7.647  20.787  0.00  0.00    +0.000 A 
ATOM      9  C   UNL     1       2.040   6.771  19.878  0.00  0.00    +0.000 A 
ATOM     10  N   UNL     1       2.452   5.461  19.955  0.00  0.00    +0.000 N 
ATOM     11  C   UNL     1       2.330   4.589  21.097  0.00  0.00    +0.000 C 
ENDBRANCH   1   2
BRANCH   1  12
ATOM     12  N   UNL     1       5.057   3.845  18.238  0.00  0.00    +0.000 N 
ATOM     13  H   UNL     1       5.574   4.159  19.051  0.00  0.00    +0.000 HD
BRANCH  12  18
ATOM     14  C   UNL     1       7.521   5.040  13.199  0.00  0.00    +0.000 C 
ATOM     15  C   UNL     1       6.851   4.772  14.513  0.00  0.00    +0.000 A 
ATOM     16  C   UNL     1       5.573   4.227  14.564  0.00  0.00    +0.000 A 
ATOM     17  C   UNL     1       4.970   3.952  15.797  0.00  0.00    +0.000 A 
ATOM     18  C   UNL     1       5.606   4.230  17.015  0.00  0.00    +0.000 A 
ATOM     19  C   UNL     1       6.902   4.786  16.965  0.00  0.00    +0.000 A 
ATOM     20  C   UNL     1       7.721   5.108  18.190  0.00  0.00    +0.000 C 
ATOM     21  C   UNL     1       7.507   5.049  15.715  0.00  0.00    +0.000 A 
ENDBRANCH  12  18
ENDBRANCH   1  12
TORSDOF 3
ENDMDL
MODEL 2
REMARK VINA RESULT:      -7.2      1.777      5.900
REMARK  Name = 
REMARK  6 active torsions:
REMARK  status: ('A' for Active; 'I' for Inactive)
REMARK    1  A    between atoms: C_1  and  C_2
REMARK    2  A    between atoms: C_5  and  N_6
REMARK    3  A    between atoms: N_6  and  C_7
REMARK    4  A    between atoms: C_7  and  C_8
REMARK    5  A    between atoms: N_16  and  C_17
REMARK    6  A    between atoms: C_18  and  C_19
REMARK                            x       y       z     vdW  Elec       q    Type
REMARK                         _______ _______ _______ _____ _____    ______ ____
ROOT
ATOM      1  C   UNL     1       3.714   2.489  18.144  0.00  0.00    +0.000 C 
ENDROOT
BRANCH   1   2
ATOM      2  C   UNL     1       4.784   3.541  18.154  0.00  0.00    +0.000 A 
ATOM      3  N   UNL     1       5.451   3.949  19.212  0.00  0.00    +0.000 NA
ATOM      4  C   UNL     1       6.282   4.944  18.766  0.00  0.00    +0.000 A 
ATOM      5  C   UNL     1       7.206   5.715  19.487  0.00  0.00    +0.000 A 
ATOM      6  C   UNL     1       7.948   6.686  18.807  0.00  0.00    +0.000 A 
ATOM      7  C   UNL     1       7.772   6.886  17.437  0.00  0.00    +0.000 A 
ATOM      8  C   UNL     1       6.859   6.126  16.703  0.00  0.00    +0.000 A 
ATOM      9  C   UNL     1       6.125   5.154  17.401  0.00  0.00    +0.000 A 
ATOM     10  N   UNL     1       5.167   4.241  17.027  0.00  0.00    +0.000 N 
ATOM     11  C   UNL     1       4.646   4.039  15.697  0.00  0.00    +0.000 C 
ENDBRANCH   1   2
BRANCH   1  12
ATOM     12  N   UNL     1       2.370   3.054  18.196  0.00  0.00    +0.000 N 
ATOM     13  H   UNL     1       1.824   2.864  17.364  0.00  0.00    +0.000 HD
BRANCH  12  18
ATOM     14  C   UNL     1       1.648   8.083  20.857  0.00  0.00    +0.000 C 
ATOM     15  C   UNL     1       1.790   6.773  20.142  0.00  0.00    +0.000 A 
ATOM     16  C   UNL     1       2.162   6.728  18.803  0.00  0.00    +0.000 A 
ATOM     17  C   UNL     1       2.321   5.498  18.154  0.00  0.00    +0.000 A 
ATOM     18  C   UNL     1       2.094   4.277  18.805  0.00  0.00    +0.000 A 
ATOM     19  C   UNL     1       1.713   4.322  20.163  0.00  0.00    +0.000 A 
ATOM     20  C   UNL     1       1.465   3.093  21.003  0.00  0.00    +0.000 C 
ATOM     21  C   UNL     1       1.567   5.568  20.813  0.00  0.00    +0.000 A 
ENDBRANCH  12  18
ENDBRANCH   1  12
TORSDOF 3
ENDMDL
MODEL 3
REMARK VINA RESULT:      -7.2      1.814      6.848
REMARK  Name = 
REMARK  6 active torsions:
REMARK  status: ('A' for Active; 'I' for Inactive)
REMARK    1  A    between atoms: C_1  and  C_2
REMARK    2  A    between atoms: C_5  and  N_6
REMARK    3  A    between atoms: N_6  and  C_7
REMARK    4  A    between atoms: C_7  and  C_8
REMARK    5  A    between atoms: N_16  and  C_17
REMARK    6  A    between atoms: C_18  and  C_19
REMARK                            x       y       z     vdW  Elec       q    Type
REMARK                         _______ _______ _______ _____ _____    ______ ____
ROOT
ATOM      1  C   UNL     1       6.708   5.344  17.667  0.00  0.00    +0.000 C 
ENDROOT
BRANCH   1   2
ATOM      2  C   UNL     1       6.785   5.014  16.205  0.00  0.00    +0.000 A 
ATOM      3  N   UNL     1       7.610   5.558  15.336  0.00  0.00    +0.000 NA
ATOM      4  C   UNL     1       7.297   4.996  14.126  0.00  0.00    +0.000 A 
ATOM      5  C   UNL     1       7.874   5.227  12.868  0.00  0.00    +0.000 A 
ATOM      6  C   UNL     1       7.377   4.529  11.762  0.00  0.00    +0.000 A 
ATOM      7  C   UNL     1       6.328   3.621  11.906  0.00  0.00    +0.000 A 
ATOM      8  C   UNL     1       5.743   3.377  13.150  0.00  0.00    +0.000 A 
ATOM      9  C   UNL     1       6.255   4.084  14.250  0.00  0.00    +0.000 A 
ATOM     10  N   UNL     1       5.947   4.105  15.590  0.00  0.00    +0.000 N 
ATOM     11  C   UNL     1       4.932   3.320  16.250  0.00  0.00    +0.000 C 
ENDBRANCH   1   2
BRANCH   1  12
ATOM     12  N   UNL     1       5.556   6.178  17.994  0.00  0.00    +0.000 N 
ATOM     13  H   UNL     1       5.805   7.139  18.198  0.00  0.00    +0.000 HD
BRANCH  12  18
ATOM     14  C   UNL     1       0.920   3.995  20.570  0.00  0.00    +0.000 C 
ATOM     15  C   UNL     1       2.147   4.585  19.942  0.00  0.00    +0.000 A 
ATOM     16  C   UNL     1       3.372   3.930  20.015  0.00  0.00    +0.000 A 
ATOM     17  C   UNL     1       4.503   4.476  19.398  0.00  0.00    +0.000 A 
ATOM     18  C   UNL     1       4.461   5.696  18.710  0.00  0.00    +0.000 A 
ATOM     19  C   UNL     1       3.219   6.363  18.638  0.00  0.00    +0.000 A 
ATOM     20  C   UNL     1       3.012   7.667  17.907  0.00  0.00    +0.000 C 
ATOM     21  C   UNL     1       2.080   5.799  19.254  0.00  0.00    +0.000 A 
ENDBRANCH  12  18
ENDBRANCH   1  12
TORSDOF 3
ENDMDL
MODEL 4
REMARK VINA RESULT:      -7.1      2.387      4.349
REMARK  Name = 
REMARK  6 active torsions:
REMARK  status: ('A' for Active; 'I' for Inactive)
REMARK    1  A    between atoms: C_1  and  C_2
REMARK    2  A    between atoms: C_5  and  N_6
REMARK    3  A    between atoms: N_6  and  C_7
REMARK    4  A    between atoms: C_7  and  C_8
REMARK    5  A    between atoms: N_16  and  C_17
REMARK    6  A    between atoms: C_18  and  C_19
REMARK                            x       y       z     vdW  Elec       q    Type
REMARK                         _______ _______ _______ _____ _____    ______ ____
ROOT
ATOM      1  C   UNL     1       2.196   8.386  18.442  0.00  0.00    +0.000 C 
ENDROOT
BRANCH   1   2
ATOM      2  C   UNL     1       1.451   9.012  19.584  0.00  0.00    +0.000 A 
ATOM      3  N   UNL     1       1.030   8.387  20.662  0.00  0.00    +0.000 NA
ATOM      4  C   UNL     1       0.366   9.331  21.403  0.00  0.00    +0.000 A 
ATOM      5  C   UNL     1      -0.277   9.193  22.642  0.00  0.00    +0.000 A 
ATOM      6  C   UNL     1      -0.897  10.312  23.207  0.00  0.00    +0.000 A 
ATOM      7  C   UNL     1      -0.878  11.543  22.552  0.00  0.00    +0.000 A 
ATOM      8  C   UNL     1      -0.240  11.700  21.319  0.00  0.00    +0.000 A 
ATOM      9  C   UNL     1       0.379  10.567  20.767  0.00  0.00    +0.000 A 
ATOM     10  N   UNL     1       1.085  10.343  19.608  0.00  0.00    +0.000 N 
ATOM     11  C   UNL     1       1.396  11.317  18.591  0.00  0.00    +0.000 C 
ENDBRANCH   1   2
BRANCH   1  12
ATOM     12  N   UNL     1       2.337   6.941  18.588  0.00  0.00    +0.000 N 
ATOM     13  H   UNL     1       2.166   6.617  19.533  0.00  0.00    +0.000 HD
BRANCH  12  18
ATOM     14  C   UNL     1       5.998   3.952  15.340  0.00  0.00    +0.000 C 
ATOM     15  C   UNL     1       5.075   4.731  16.228  0.00  0.00    +0.000 A 
ATOM     16  C   UNL     1       5.239   6.101  16.402  0.00  0.00    +0.000 A 
ATOM     17  C   UNL     1       4.351   6.822  17.208  0.00  0.00    +0.000 A 
ATOM     18  C   UNL     1       3.290   6.206  17.884  0.00  0.00    +0.000 A 
ATOM     19  C   UNL     1       3.124   4.815  17.711  0.00  0.00    +0.000 A 
ATOM     20  C   UNL     1       2.011   4.019  18.349  0.00  0.00    +0.000 C 
ATOM     21  C   UNL     1       4.018   4.097  16.886  0.00  0.00    +0.000 A 
ENDBRANCH  12  18
ENDBRANCH   1  12
TORSDOF 3
ENDMDL
MODEL 5
REMARK VINA RESULT:      -7.0      1.078      2.320
REMARK  Name = 
REMARK  6 active torsions:
REMARK  status: ('A' for Active; 'I' for Inactive)
REMARK    1  A    between atoms: C_1  and  C_2
REMARK    2  A    between atoms: C_5  and  N_6
REMARK    3  A    between atoms: N_6  and  C_7
REMARK    4  A    between atoms: C_7  and  C_8
REMARK    5  A    between atoms: N_16  and  C_17
REMARK    6  A    between atoms: C_18  and  C_19
REMARK                            x       y       z     vdW  Elec       q    Type
REMARK                         _______ _______ _______ _____ _____    ______ ____
ROOT
ATOM      1  C   UNL     1       3.548   3.284  18.310  0.00  0.00    +0.000 C 
ENDROOT
BRANCH   1   2
ATOM      2  C   UNL     1       3.017   4.661  18.579  0.00  0.00    +0.000 A 
ATOM      3  N   UNL     1       2.933   5.638  17.702  0.00  0.00    +0.000 NA
ATOM      4  C   UNL     1       2.440   6.715  18.391  0.00  0.00    +0.000 A 
ATOM      5  C   UNL     1       2.160   8.009  17.929  0.00  0.00    +0.000 A 
ATOM      6  C   UNL     1       1.660   8.953  18.832  0.00  0.00    +0.000 A 
ATOM      7  C   UNL     1       1.445   8.616  20.169  0.00  0.00    +0.000 A 
ATOM      8  C   UNL     1       1.717   7.332  20.646  0.00  0.00    +0.000 A 
ATOM      9  C   UNL     1       2.215   6.396  19.726  0.00  0.00    +0.000 A 
ATOM     10  N   UNL     1       2.584   5.074  19.823  0.00  0.00    +0.000 N 
ATOM     11  C   UNL     1       2.531   4.254  21.008  0.00  0.00    +0.000 C 
ENDBRANCH   1   2
BRANCH   1  12
ATOM     12  N   UNL     1       4.820   3.302  17.595  0.00  0.00    +0.000 N 
ATOM     13  H   UNL     1       5.245   2.385  17.514  0.00  0.00    +0.000 HD
BRANCH  12  18
ATOM     14  C   UNL     1       8.206   7.903  18.096  0.00  0.00    +0.000 C 
ATOM     15  C   UNL     1       7.362   6.671  17.963  0.00  0.00    +0.000 A 
ATOM     16  C   UNL     1       7.067   5.886  19.072  0.00  0.00    +0.000 A 
ATOM     17  C   UNL     1       6.253   4.755  18.941  0.00  0.00    +0.000 A 
ATOM     18  C   UNL     1       5.727   4.355  17.705  0.00  0.00    +0.000 A 
ATOM     19  C   UNL     1       6.029   5.149  16.578  0.00  0.00    +0.000 A 
ATOM     20  C   UNL     1       5.511   4.862  15.190  0.00  0.00    +0.000 C 
ATOM     21  C   UNL     1       6.842   6.295  16.723  0.00  0.00    +0.000 A 
ENDBRANCH  12  18
ENDBRANCH   1  12
TORSDOF 3
ENDMDL
MODEL 6
REMARK VINA RESULT:      -6.9      1.875      3.746
REMARK  Name = 
REMARK  6 active torsions:
REMARK  status: ('A' for Active; 'I' for Inactive)
REMARK    1  A    between atoms: C_1  and  C_2
REMARK    2  A    between atoms: C_5  and  N_6
REMARK    3  A    between atoms: N_6  and  C_7
REMARK    4  A    between atoms: C_7  and  C_8
REMARK    5  A    between atoms: N_16  and  C_17
REMARK    6  A    between atoms: C_18  and  C_19
REMARK                            x       y       z     vdW  Elec       q    Type
REMARK                         _______ _______ _______ _____ _____    ______ ____
ROOT
ATOM      1  C   UNL     1       6.243   5.519  19.356  0.00  0.00    +0.000 C 
ENDROOT
BRANCH   1   2
ATOM      2  C   UNL     1       5.017   4.658  19.276  0.00  0.00    +0.000 A 
ATOM      3  N   UNL     1       5.003   3.352  19.126  0.00  0.00    +0.000 NA
ATOM      4  C   UNL     1       3.680   3.000  19.057  0.00  0.00    +0.000 A 
ATOM      5  C   UNL     1       3.109   1.729  18.898  0.00  0.00    +0.000 A 
ATOM      6  C   UNL     1       1.715   1.618  18.850  0.00  0.00    +0.000 A 
ATOM      7  C   UNL     1       0.907   2.749  18.958  0.00  0.00    +0.000 A 
ATOM      8  C   UNL     1       1.458   4.023  19.119  0.00  0.00    +0.000 A 
ATOM      9  C   UNL     1       2.858   4.116  19.167  0.00  0.00    +0.000 A 
ATOM     10  N   UNL     1       3.734   5.166  19.314  0.00  0.00    +0.000 N 
ATOM     11  C   UNL     1       3.386   6.556  19.481  0.00  0.00    +0.000 C 
ENDBRANCH   1   2
BRANCH   1  12
ATOM     12  N   UNL     1       6.599   6.111  18.070  0.00  0.00    +0.000 N 
ATOM     13  H   UNL     1       6.481   7.117  18.047  0.00  0.00    +0.000 HD
BRANCH  12  18
ATOM     14  C   UNL     1       5.873   3.756  12.892  0.00  0.00    +0.000 C 
ATOM     15  C   UNL     1       6.033   4.335  14.265  0.00  0.00    +0.000 A 
ATOM     16  C   UNL     1       6.964   3.812  15.157  0.00  0.00    +0.000 A 
ATOM     17  C   UNL     1       7.125   4.381  16.425  0.00  0.00    +0.000 A 
ATOM     18  C   UNL     1       6.355   5.469  16.857  0.00  0.00    +0.000 A 
ATOM     19  C   UNL     1       5.408   5.999  15.954  0.00  0.00    +0.000 A 
ATOM     20  C   UNL     1       4.529   7.186  16.265  0.00  0.00    +0.000 C 
ATOM     21  C   UNL     1       5.260   5.425  14.672  0.00  0.00    +0.000 A 
ENDBRANCH  12  18
ENDBRANCH   1  12
TORSDOF 3
ENDMDL
MODEL 7
REMARK VINA RESULT:      -6.9      1.503      6.764
REMARK  Name = 
REMARK  6 active torsions:
REMARK  status: ('A' for Active; 'I' for Inactive)
REMARK    1  A    between atoms: C_1  and  C_2
REMARK    2  A    between atoms: C_5  and  N_6
REMARK    3  A    between atoms: N_6  and  C_7
REMARK    4  A    between atoms: C_7  and  C_8
REMARK    5  A    between atoms: N_16  and  C_17
REMARK    6  A    between atoms: C_18  and  C_19
REMARK                            x       y       z     vdW  Elec       q    Type
REMARK                         _______ _______ _______ _____ _____    ______ ____
ROOT
ATOM      1  C   UNL     1       1.997   5.744  20.288  0.00  0.00    +0.000 C 
ENDROOT
BRANCH   1   2
ATOM      2  C   UNL     1       3.132   5.366  19.381  0.00  0.00    +0.000 A 
ATOM      3  N   UNL     1       4.404   5.625  19.592  0.00  0.00    +0.000 NA
ATOM      4  C   UNL     1       5.068   5.145  18.494  0.00  0.00    +0.000 A 
ATOM      5  C   UNL     1       6.441   5.165  18.211  0.00  0.00    +0.000 A 
ATOM      6  C   UNL     1       6.889   4.610  17.008  0.00  0.00    +0.000 A 
ATOM      7  C   UNL     1       5.987   4.047  16.104  0.00  0.00    +0.000 A 
ATOM      8  C   UNL     1       4.616   4.016  16.370  0.00  0.00    +0.000 A 
ATOM      9  C   UNL     1       4.185   4.575  17.583  0.00  0.00    +0.000 A 
ATOM     10  N   UNL     1       2.951   4.721  18.174  0.00  0.00    +0.000 N 
ATOM     11  C   UNL     1       1.686   4.280  17.639  0.00  0.00    +0.000 C 
ENDBRANCH   1   2
BRANCH   1  12
ATOM     12  N   UNL     1       2.112   7.108  20.793  0.00  0.00    +0.000 N 
ATOM     13  H   UNL     1       2.151   7.157  21.804  0.00  0.00    +0.000 HD
BRANCH  12  18
ATOM     14  C   UNL     1      -0.169  11.811  18.432  0.00  0.00    +0.000 C 
ATOM     15  C   UNL     1       0.391  10.554  19.028  0.00  0.00    +0.000 A 
ATOM     16  C   UNL     1       1.219   9.719  18.285  0.00  0.00    +0.000 A 
ATOM     17  C   UNL     1       1.759   8.565  18.862  0.00  0.00    +0.000 A 
ATOM     18  C   UNL     1       1.478   8.190  20.182  0.00  0.00    +0.000 A 
ATOM     19  C   UNL     1       0.635   9.034  20.936  0.00  0.00    +0.000 A 
ATOM     20  C   UNL     1       0.269   8.778  22.378  0.00  0.00    +0.000 C 
ATOM     21  C   UNL     1       0.104  10.204  20.349  0.00  0.00    +0.000 A 
ENDBRANCH  12  18
ENDBRANCH   1  12
TORSDOF 3
ENDMDL
MODEL 8
REMARK VINA RESULT:      -6.9      2.243      7.760
REMARK  Name = 
REMARK  6 active torsions:
REMARK  status: ('A' for Active; 'I' for Inactive)
REMARK    1  A    between atoms: C_1  and  C_2
REMARK    2  A    between atoms: C_5  and  N_6
REMARK    3  A    between atoms: N_6  and  C_7
REMARK    4  A    between atoms: C_7  and  C_8
REMARK    5  A    between atoms: N_16  and  C_17
REMARK    6  A    between atoms: C_18  and  C_19
REMARK                            x       y       z     vdW  Elec       q    Type
REMARK                         _______ _______ _______ _____ _____    ______ ____
ROOT
ATOM      1  C   UNL     1       1.323   6.913  20.816  0.00  0.00    +0.000 C 
ENDROOT
BRANCH   1   2
ATOM      2  C   UNL     1       2.215   6.370  19.739  0.00  0.00    +0.000 A 
ATOM      3  N   UNL     1       3.022   7.078  18.979  0.00  0.00    +0.000 NA
ATOM      4  C   UNL     1       3.598   6.184  18.114  0.00  0.00    +0.000 A 
ATOM      5  C   UNL     1       4.534   6.414  17.095  0.00  0.00    +0.000 A 
ATOM      6  C   UNL     1       4.978   5.330  16.331  0.00  0.00    +0.000 A 
ATOM      7  C   UNL     1       4.499   4.043  16.576  0.00  0.00    +0.000 A 
ATOM      8  C   UNL     1       3.569   3.794  17.587  0.00  0.00    +0.000 A 
ATOM      9  C   UNL     1       3.136   4.893  18.346  0.00  0.00    +0.000 A 
ATOM     10  N   UNL     1       2.258   5.033  19.396  0.00  0.00    +0.000 N 
ATOM     11  C   UNL     1       1.508   3.979  20.034  0.00  0.00    +0.000 C 
ENDBRANCH   1   2
BRANCH   1  12
ATOM     12  N   UNL     1       1.775   8.205  21.321  0.00  0.00    +0.000 N 
ATOM     13  H   UNL     1       2.586   8.136  21.925  0.00  0.00    +0.000 HD
BRANCH  12  18
ATOM     14  C   UNL     1      -2.184  12.178  22.519  0.00  0.00    +0.000 C 
ATOM     15  C   UNL     1      -1.114  11.169  22.228  0.00  0.00    +0.000 A 
ATOM     16  C   UNL     1      -0.704  10.263  23.200  0.00  0.00    +0.000 A 
ATOM     17  C   UNL     1       0.274   9.306  22.906  0.00  0.00    +0.000 A 
ATOM     18  C   UNL     1       0.891   9.233  21.650  0.00  0.00    +0.000 A 
ATOM     19  C   UNL     1       0.478  10.154  20.664  0.00  0.00    +0.000 A 
ATOM     20  C   UNL     1       1.028  10.176  19.259  0.00  0.00    +0.000 C 
ATOM     21  C   UNL     1      -0.518  11.108  20.966  0.00  0.00    +0.000 A 
ENDBRANCH  12  18
ENDBRANCH   1  12
TORSDOF 3
ENDMDL
MODEL 9
REMARK VINA RESULT:      -6.8      1.894      5.667
REMARK  Name = 
REMARK  6 active torsions:
REMARK  status: ('A' for Active; 'I' for Inactive)
REMARK    1  A    between atoms: C_1  and  C_2
REMARK    2  A    between atoms: C_5  and  N_6
REMARK    3  A    between atoms: N_6  and  C_7
REMARK    4  A    between atoms: C_7  and  C_8
REMARK    5  A    between atoms: N_16  and  C_17
REMARK    6  A    between atoms: C_18  and  C_19
REMARK                            x       y       z     vdW  Elec       q    Type
REMARK                         _______ _______ _______ _____ _____    ______ ____
ROOT
ATOM      1  C   UNL     1       3.152   2.498  17.528  0.00  0.00    +0.000 C 
ENDROOT
BRANCH   1   2
ATOM      2  C   UNL     1       4.237   3.531  17.618  0.00  0.00    +0.000 A 
ATOM      3  N   UNL     1       4.628   4.323  16.643  0.00  0.00    +0.000 NA
ATOM      4  C   UNL     1       5.664   5.060  17.156  0.00  0.00    +0.000 A 
ATOM      5  C   UNL     1       6.437   6.051  16.534  0.00  0.00    +0.000 A 
ATOM      6  C   UNL     1       7.456   6.668  17.268  0.00  0.00    +0.000 A 
ATOM      7  C   UNL     1       7.701   6.304  18.592  0.00  0.00    +0.000 A 
ATOM      8  C   UNL     1       6.939   5.320  19.228  0.00  0.00    +0.000 A 
ATOM      9  C   UNL     1       5.919   4.713  18.478  0.00  0.00    +0.000 A 
ATOM     10  N   UNL     1       4.990   3.739  18.757  0.00  0.00    +0.000 N 
ATOM     11  C   UNL     1       4.820   3.049  20.012  0.00  0.00    +0.000 C 
ENDBRANCH   1   2
BRANCH   1  12
ATOM     12  N   UNL     1       1.857   3.003  17.972  0.00  0.00    +0.000 N 
ATOM     13  H   UNL     1       1.107   2.805  17.320  0.00  0.00    +0.000 HD
BRANCH  12  18
ATOM     14  C   UNL     1       1.713   7.893  20.964  0.00  0.00    +0.000 C 
ATOM     15  C   UNL     1       1.703   6.624  20.166  0.00  0.00    +0.000 A 
ATOM     16  C   UNL     1       1.965   6.637  18.801  0.00  0.00    +0.000 A 
ATOM     17  C   UNL     1       1.983   5.442  18.073  0.00  0.00    +0.000 A 
ATOM     18  C   UNL     1       1.720   4.202  18.670  0.00  0.00    +0.000 A 
ATOM     19  C   UNL     1       1.450   4.188  20.055  0.00  0.00    +0.000 A 
ATOM     20  C   UNL     1       1.179   2.928  20.841  0.00  0.00    +0.000 C 
ATOM     21  C   UNL     1       1.445   5.398  20.784  0.00  0.00    +0.000 A 
ENDBRANCH  12  18
ENDBRANCH   1  12
TORSDOF 3
ENDMDL
