MODEL 1
REMARK VINA RESULT:      -7.3      0.000      0.000
REMARK  Name = 
REMARK  6 active torsions:
REMARK  status: ('A' for Active; 'I' for Inactive)
REMARK    1  A    between atoms: C_1  and  O_2
REMARK    2  A    between atoms: O_2  and  C_3
REMARK    3  A    between atoms: C_3  and  C_5
REMARK    4  A    between atoms: C_11  and  C_12
REMARK    5  A    between atoms: C_17  and  O_18
REMARK    6  A    between atoms: O_18  and  C_19
REMARK                            x       y       z     vdW  Elec       q    Type
REMARK                         _______ _______ _______ _____ _____    ______ ____
ROOT
ATOM      1  C   UNL     1       6.407   4.332  16.910  0.00  0.00    +0.000 C 
ATOM      2  C   UNL     1       7.271   5.140  15.814  0.00  0.00    +0.000 C 
ATOM      3  S   UNL     1       6.818   4.566  14.174  0.00  0.00    +0.000 S 
ATOM      4  C   UNL     1       5.110   4.412  14.624  0.00  0.00    +0.000 C 
ATOM      5  C   UNL     1       5.048   4.614  16.148  0.00  0.00    +0.000 C 
ATOM      6  C   UNL     1       4.026   3.581  16.664  0.00  0.00    +0.000 C 
ATOM      7  C   UNL     1       4.459   3.314  18.074  0.00  0.00    +0.000 C 
ATOM      8  N   UNL     1       5.596   4.214  18.180  0.00  0.00    +0.000 NA
ATOM      9  H   UNL     1       6.154   3.889  18.975  0.00  0.00    +0.000 HD
ENDROOT
BRANCH   7  10
ATOM     10  C   UNL     1       3.400   3.584  19.129  0.00  0.00    +0.000 A 
ATOM     11  C   UNL     1       2.701   2.465  19.657  0.00  0.00    +0.000 A 
ATOM     12  C   UNL     1       1.633   2.595  20.550  0.00  0.00    +0.000 A 
ATOM     13  C   UNL     1       1.246   3.857  20.964  0.00  0.00    +0.000 A 
ATOM     14  C   UNL     1       1.943   4.968  20.501  0.00  0.00    +0.000 A 
ATOM     15  C   UNL     1       3.023   4.856  19.598  0.00  0.00    +0.000 A 
BRANCH  15  16
ATOM     16  O   UNL     1       3.500   6.098  19.289  0.00  0.00    +0.000 OA
ATOM     17  C   UNL     1       2.909   6.894  18.284  0.00  0.00    +0.000 C 
ENDBRANCH  15  16
ENDBRANCH   7  10
BRANCH   1  18
ATOM     18  C   UNL     1       7.473   5.132  17.876  0.00  0.00    +0.000 C 
ATOM     19  O   UNL     1       8.061   4.729  18.867  0.00  0.00    +0.000 OA
BRANCH  18  21
ATOM     20  C   UNL     1       7.901   7.446  18.162  0.00  0.00    +0.000 C 
ATOM     21  O   UNL     1       7.687   6.356  17.269  0.00  0.00    +0.000 OA
ENDBRANCH  18  21
ENDBRANCH   1  18
TORSDOF 4
ENDMDL
MODEL 2
REMARK VINA RESULT:      -6.7      2.419      5.607
REMARK  Name = 
REMARK  6 active torsions:
REMARK  status: ('A' for Active; 'I' for Inactive)
REMARK    1  A    between atoms: C_1  and  O_2
REMARK    2  A    between atoms: O_2  and  C_3
REMARK    3  A    between atoms: C_3  and  C_5
REMARK    4  A    between atoms: C_11  and  C_12
REMARK    5  A    between atoms: C_17  and  O_18
REMARK    6  A    between atoms: O_18  and  C_19
REMARK                            x       y       z     vdW  Elec       q    Type
REMARK                         _______ _______ _______ _____ _____    ______ ____
ROOT
ATOM      1  C   UNL     1       2.497   4.806  19.335  0.00  0.00    +0.000 C 
ATOM      2  C   UNL     1       2.027   4.863  20.876  0.00  0.00    +0.000 C 
ATOM      3  S   UNL     1       1.792   3.186  21.478  0.00  0.00    +0.000 S 
ATOM      4  C   UNL     1       3.193   2.591  20.569  0.00  0.00    +0.000 C 
ATOM      5  C   UNL     1       3.628   3.743  19.647  0.00  0.00    +0.000 C 
ATOM      6  C   UNL     1       4.002   3.084  18.304  0.00  0.00    +0.000 C 
ATOM      7  C   UNL     1       3.757   4.160  17.290  0.00  0.00    +0.000 C 
ATOM      8  N   UNL     1       3.329   5.249  18.153  0.00  0.00    +0.000 NA
ATOM      9  H   UNL     1       2.839   5.921  17.556  0.00  0.00    +0.000 HD
ENDROOT
BRANCH   7  10
ATOM     10  C   UNL     1       4.964   4.526  16.443  0.00  0.00    +0.000 A 
ATOM     11  C   UNL     1       5.070   3.926  15.159  0.00  0.00    +0.000 A 
ATOM     12  C   UNL     1       6.185   4.099  14.335  0.00  0.00    +0.000 A 
ATOM     13  C   UNL     1       7.225   4.904  14.762  0.00  0.00    +0.000 A 
ATOM     14  C   UNL     1       7.128   5.542  15.994  0.00  0.00    +0.000 A 
ATOM     15  C   UNL     1       6.009   5.379  16.841  0.00  0.00    +0.000 A 
BRANCH  15  16
ATOM     16  O   UNL     1       6.191   6.091  17.992  0.00  0.00    +0.000 OA
ATOM     17  C   UNL     1       6.893   5.559  19.095  0.00  0.00    +0.000 C 
ENDBRANCH  15  16
ENDBRANCH   7  10
BRANCH   1  18
ATOM     18  C   UNL     1       2.229   6.419  19.524  0.00  0.00    +0.000 C 
ATOM     19  O   UNL     1       1.861   7.024  20.520  0.00  0.00    +0.000 OA
BRANCH  18  21
ATOM     20  C   UNL     1       2.236   8.369  18.177  0.00  0.00    +0.000 C 
ATOM     21  O   UNL     1       2.631   7.010  18.340  0.00  0.00    +0.000 OA
ENDBRANCH  18  21
ENDBRANCH   1  18
TORSDOF 4
ENDMDL
MODEL 3
REMARK VINA RESULT:      -6.6      2.854      4.642
REMARK  Name = 
REMARK  6 active torsions:
REMARK  status: ('A' for Active; 'I' for Inactive)
REMARK    1  A    between atoms: C_1  and  O_2
REMARK    2  A    between atoms: O_2  and  C_3
REMARK    3  A    between atoms: C_3  and  C_5
REMARK    4  A    between atoms: C_11  and  C_12
REMARK    5  A    between atoms: C_17  and  O_18
REMARK    6  A    between atoms: O_18  and  C_19
REMARK                            x       y       z     vdW  Elec       q    Type
REMARK                         _______ _______ _______ _____ _____    ______ ____
ROOT
ATOM      1  C   UNL     1       3.863   4.415  18.562  0.00  0.00    +0.000 C 
ATOM      2  C   UNL     1       4.105   3.017  17.797  0.00  0.00    +0.000 C 
ATOM      3  S   UNL     1       3.176   1.725  18.631  0.00  0.00    +0.000 S 
ATOM      4  C   UNL     1       1.812   2.814  18.945  0.00  0.00    +0.000 C 
ATOM      5  C   UNL     1       2.291   4.224  18.559  0.00  0.00    +0.000 C 
ATOM      6  C   UNL     1       1.726   5.167  19.640  0.00  0.00    +0.000 C 
ATOM      7  C   UNL     1       2.692   6.313  19.666  0.00  0.00    +0.000 C 
ATOM      8  N   UNL     1       3.618   5.906  18.620  0.00  0.00    +0.000 NA
ATOM      9  H   UNL     1       4.478   6.442  18.765  0.00  0.00    +0.000 HD
ENDROOT
BRANCH   7  10
ATOM     10  C   UNL     1       2.075   7.674  19.400  0.00  0.00    +0.000 A 
ATOM     11  C   UNL     1       2.239   8.227  18.101  0.00  0.00    +0.000 A 
ATOM     12  C   UNL     1       1.812   9.516  17.769  0.00  0.00    +0.000 A 
ATOM     13  C   UNL     1       1.179  10.288  18.727  0.00  0.00    +0.000 A 
ATOM     14  C   UNL     1       0.962   9.755  19.993  0.00  0.00    +0.000 A 
ATOM     15  C   UNL     1       1.387   8.456  20.347  0.00  0.00    +0.000 A 
BRANCH  15  16
ATOM     16  O   UNL     1       1.073   8.204  21.652  0.00  0.00    +0.000 OA
ATOM     17  C   UNL     1       0.744   9.241  22.553  0.00  0.00    +0.000 C 
ENDBRANCH  15  16
ENDBRANCH   7  10
BRANCH   1  18
ATOM     18  C   UNL     1       5.061   4.833  17.514  0.00  0.00    +0.000 C 
ATOM     19  O   UNL     1       4.984   5.475  16.478  0.00  0.00    +0.000 OA
BRANCH  18  21
ATOM     20  C   UNL     1       7.416   4.641  17.329  0.00  0.00    +0.000 C 
ATOM     21  O   UNL     1       6.241   4.415  18.102  0.00  0.00    +0.000 OA
ENDBRANCH  18  21
ENDBRANCH   1  18
TORSDOF 4
ENDMDL
MODEL 4
REMARK VINA RESULT:      -6.6      1.169      2.066
REMARK  Name = 
REMARK  6 active torsions:
REMARK  status: ('A' for Active; 'I' for Inactive)
REMARK    1  A    between atoms: C_1  and  O_2
REMARK    2  A    between atoms: O_2  and  C_3
REMARK    3  A    between atoms: C_3  and  C_5
REMARK    4  A    between atoms: C_11  and  C_12
REMARK    5  A    between atoms: C_17  and  O_18
REMARK    6  A    between atoms: O_18  and  C_19
REMARK                            x       y       z     vdW  Elec       q    Type
REMARK                         _______ _______ _______ _____ _____    ______ ____
ROOT
ATOM      1  C   UNL     1       6.266   4.462  16.826  0.00  0.00    +0.000 C 
ATOM      2  C   UNL     1       7.306   4.873  15.665  0.00  0.00    +0.000 C 
ATOM      3  S   UNL     1       6.786   4.120  14.120  0.00  0.00    +0.000 S 
ATOM      4  C   UNL     1       5.072   4.393  14.484  0.00  0.00    +0.000 C 
ATOM      5  C   UNL     1       5.015   4.870  15.946  0.00  0.00    +0.000 C 
ATOM      6  C   UNL     1       3.788   4.171  16.564  0.00  0.00    +0.000 C 
ATOM      7  C   UNL     1       4.119   4.077  18.023  0.00  0.00    +0.000 C 
ATOM      8  N   UNL     1       5.416   4.736  18.046  0.00  0.00    +0.000 NA
ATOM      9  H   UNL     1       5.873   4.452  18.917  0.00  0.00    +0.000 HD
ENDROOT
BRANCH   7  10
ATOM     10  C   UNL     1       3.113   4.737  18.950  0.00  0.00    +0.000 A 
ATOM     11  C   UNL     1       3.140   6.155  19.042  0.00  0.00    +0.000 A 
ATOM     12  C   UNL     1       2.340   6.868  19.940  0.00  0.00    +0.000 A 
ATOM     13  C   UNL     1       1.464   6.181  20.760  0.00  0.00    +0.000 A 
ATOM     14  C   UNL     1       1.382   4.796  20.658  0.00  0.00    +0.000 A 
ATOM     15  C   UNL     1       2.183   4.059  19.758  0.00  0.00    +0.000 A 
BRANCH  15  16
ATOM     16  O   UNL     1       1.919   2.726  19.888  0.00  0.00    +0.000 OA
ATOM     17  C   UNL     1       1.289   1.986  18.864  0.00  0.00    +0.000 C 
ENDBRANCH  15  16
ENDBRANCH   7  10
BRANCH   1  18
ATOM     18  C   UNL     1       7.450   5.190  17.707  0.00  0.00    +0.000 C 
ATOM     19  O   UNL     1       8.097   4.742  18.641  0.00  0.00    +0.000 OA
BRANCH  18  21
ATOM     20  C   UNL     1       7.784   7.520  17.985  0.00  0.00    +0.000 C 
ATOM     21  O   UNL     1       7.677   6.411  17.098  0.00  0.00    +0.000 OA
ENDBRANCH  18  21
ENDBRANCH   1  18
TORSDOF 4
ENDMDL
MODEL 5
REMARK VINA RESULT:      -6.6      2.426      5.768
REMARK  Name = 
REMARK  6 active torsions:
REMARK  status: ('A' for Active; 'I' for Inactive)
REMARK    1  A    between atoms: C_1  and  O_2
REMARK    2  A    between atoms: O_2  and  C_3
REMARK    3  A    between atoms: C_3  and  C_5
REMARK    4  A    between atoms: C_11  and  C_12
REMARK    5  A    between atoms: C_17  and  O_18
REMARK    6  A    between atoms: O_18  and  C_19
REMARK                            x       y       z     vdW  Elec       q    Type
REMARK                         _______ _______ _______ _____ _____    ______ ____
ROOT
ATOM      1  C   UNL     1       2.572   4.868  19.373  0.00  0.00    +0.000 C 
ATOM      2  C   UNL     1       2.127   4.902  20.923  0.00  0.00    +0.000 C 
ATOM      3  S   UNL     1       1.828   3.221  21.482  0.00  0.00    +0.000 S 
ATOM      4  C   UNL     1       3.188   2.591  20.536  0.00  0.00    +0.000 C 
ATOM      5  C   UNL     1       3.660   3.748  19.638  0.00  0.00    +0.000 C 
ATOM      6  C   UNL     1       3.985   3.111  18.273  0.00  0.00    +0.000 C 
ATOM      7  C   UNL     1       3.773   4.224  17.292  0.00  0.00    +0.000 C 
ATOM      8  N   UNL     1       3.405   5.307  18.191  0.00  0.00    +0.000 NA
ATOM      9  H   UNL     1       2.936   6.015  17.619  0.00  0.00    +0.000 HD
ENDROOT
BRANCH   7  10
ATOM     10  C   UNL     1       4.981   4.561  16.437  0.00  0.00    +0.000 A 
ATOM     11  C   UNL     1       5.025   4.021  15.122  0.00  0.00    +0.000 A 
ATOM     12  C   UNL     1       6.132   4.170  14.281  0.00  0.00    +0.000 A 
ATOM     13  C   UNL     1       7.227   4.890  14.724  0.00  0.00    +0.000 A 
ATOM     14  C   UNL     1       7.193   5.470  15.988  0.00  0.00    +0.000 A 
ATOM     15  C   UNL     1       6.084   5.329  16.851  0.00  0.00    +0.000 A 
BRANCH  15  16
ATOM     16  O   UNL     1       6.331   5.971  18.031  0.00  0.00    +0.000 OA
ATOM     17  C   UNL     1       7.634   6.074  18.565  0.00  0.00    +0.000 C 
ENDBRANCH  15  16
ENDBRANCH   7  10
BRANCH   1  18
ATOM     18  C   UNL     1       2.377   6.485  19.610  0.00  0.00    +0.000 C 
ATOM     19  O   UNL     1       2.737   7.412  18.901  0.00  0.00    +0.000 OA
BRANCH  18  21
ATOM     20  C   UNL     1       1.210   7.942  21.070  0.00  0.00    +0.000 C 
ATOM     21  O   UNL     1       1.592   6.609  20.741  0.00  0.00    +0.000 OA
ENDBRANCH  18  21
ENDBRANCH   1  18
TORSDOF 4
ENDMDL
MODEL 6
REMARK VINA RESULT:      -6.5      2.868      4.612
REMARK  Name = 
REMARK  6 active torsions:
REMARK  status: ('A' for Active; 'I' for Inactive)
REMARK    1  A    between atoms: C_1  and  O_2
REMARK    2  A    between atoms: O_2  and  C_3
REMARK    3  A    between atoms: C_3  and  C_5
REMARK    4  A    between atoms: C_11  and  C_12
REMARK    5  A    between atoms: C_17  and  O_18
REMARK    6  A    between atoms: O_18  and  C_19
REMARK                            x       y       z     vdW  Elec       q    Type
REMARK                         _______ _______ _______ _____ _____    ______ ____
ROOT
ATOM      1  C   UNL     1       3.917   4.451  18.551  0.00  0.00    +0.000 C 
ATOM      2  C   UNL     1       4.195   3.073  17.762  0.00  0.00    +0.000 C 
ATOM      3  S   UNL     1       3.247   1.756  18.531  0.00  0.00    +0.000 S 
ATOM      4  C   UNL     1       1.865   2.828  18.823  0.00  0.00    +0.000 C 
ATOM      5  C   UNL     1       2.347   4.250  18.488  0.00  0.00    +0.000 C 
ATOM      6  C   UNL     1       1.738   5.163  19.571  0.00  0.00    +0.000 C 
ATOM      7  C   UNL     1       2.694   6.314  19.658  0.00  0.00    +0.000 C 
ATOM      8  N   UNL     1       3.659   5.938  18.636  0.00  0.00    +0.000 NA
ATOM      9  H   UNL     1       4.510   6.476  18.825  0.00  0.00    +0.000 HD
ENDROOT
BRANCH   7  10
ATOM     10  C   UNL     1       2.076   7.677  19.405  0.00  0.00    +0.000 A 
ATOM     11  C   UNL     1       2.192   8.216  18.094  0.00  0.00    +0.000 A 
ATOM     12  C   UNL     1       1.762   9.505  17.767  0.00  0.00    +0.000 A 
ATOM     13  C   UNL     1       1.174  10.291  18.742  0.00  0.00    +0.000 A 
ATOM     14  C   UNL     1       1.004   9.772  20.021  0.00  0.00    +0.000 A 
ATOM     15  C   UNL     1       1.433   8.473  20.371  0.00  0.00    +0.000 A 
BRANCH  15  16
ATOM     16  O   UNL     1       1.170   8.237  21.689  0.00  0.00    +0.000 OA
ATOM     17  C   UNL     1       0.665   9.243  22.541  0.00  0.00    +0.000 C 
ENDBRANCH  15  16
ENDBRANCH   7  10
BRANCH   1  18
ATOM     18  C   UNL     1       5.147   4.902  17.556  0.00  0.00    +0.000 C 
ATOM     19  O   UNL     1       6.313   4.538  17.565  0.00  0.00    +0.000 OA
BRANCH  18  21
ATOM     20  C   UNL     1       5.383   5.939  15.438  0.00  0.00    +0.000 C 
ATOM     21  O   UNL     1       4.575   5.706  16.588  0.00  0.00    +0.000 OA
ENDBRANCH  18  21
ENDBRANCH   1  18
TORSDOF 4
ENDMDL
MODEL 7
REMARK VINA RESULT:      -6.3      1.219      1.407
REMARK  Name = 
REMARK  6 active torsions:
REMARK  status: ('A' for Active; 'I' for Inactive)
REMARK    1  A    between atoms: C_1  and  O_2
REMARK    2  A    between atoms: O_2  and  C_3
REMARK    3  A    between atoms: C_3  and  C_5
REMARK    4  A    between atoms: C_11  and  C_12
REMARK    5  A    between atoms: C_17  and  O_18
REMARK    6  A    between atoms: O_18  and  C_19
REMARK                            x       y       z     vdW  Elec       q    Type
REMARK                         _______ _______ _______ _____ _____    ______ ____
ROOT
ATOM      1  C   UNL     1       5.902   5.261  16.823  0.00  0.00    +0.000 C 
ATOM      2  C   UNL     1       6.306   5.822  15.367  0.00  0.00    +0.000 C 
ATOM      3  S   UNL     1       6.683   4.435  14.290  0.00  0.00    +0.000 S 
ATOM      4  C   UNL     1       5.383   3.452  14.987  0.00  0.00    +0.000 C 
ATOM      5  C   UNL     1       4.871   4.225  16.214  0.00  0.00    +0.000 C 
ATOM      6  C   UNL     1       4.615   3.161  17.301  0.00  0.00    +0.000 C 
ATOM      7  C   UNL     1       4.790   3.906  18.589  0.00  0.00    +0.000 C 
ATOM      8  N   UNL     1       5.076   5.242  18.089  0.00  0.00    +0.000 NA
ATOM      9  H   UNL     1       5.519   5.754  18.857  0.00  0.00    +0.000 HD
ENDROOT
BRANCH   7  10
ATOM     10  C   UNL     1       3.586   3.875  19.514  0.00  0.00    +0.000 A 
ATOM     11  C   UNL     1       3.424   2.729  20.339  0.00  0.00    +0.000 A 
ATOM     12  C   UNL     1       2.301   2.536  21.150  0.00  0.00    +0.000 A 
ATOM     13  C   UNL     1       1.312   3.502  21.179  0.00  0.00    +0.000 A 
ATOM     14  C   UNL     1       1.466   4.655  20.418  0.00  0.00    +0.000 A 
ATOM     15  C   UNL     1       2.593   4.868  19.592  0.00  0.00    +0.000 A 
BRANCH  15  16
ATOM     16  O   UNL     1       2.471   6.061  18.940  0.00  0.00    +0.000 OA
ATOM     17  C   UNL     1       2.265   7.273  19.635  0.00  0.00    +0.000 C 
ENDBRANCH  15  16
ENDBRANCH   7  10
BRANCH   1  18
ATOM     18  C   UNL     1       6.002   6.876  17.124  0.00  0.00    +0.000 C 
ATOM     19  O   UNL     1       5.156   7.622  17.592  0.00  0.00    +0.000 OA
BRANCH  18  21
ATOM     20  C   UNL     1       7.852   8.239  17.707  0.00  0.00    +0.000 C 
ATOM     21  O   UNL     1       7.312   7.229  16.858  0.00  0.00    +0.000 OA
ENDBRANCH  18  21
ENDBRANCH   1  18
TORSDOF 4
ENDMDL
MODEL 8
REMARK VINA RESULT:      -6.3      2.870      4.373
REMARK  Name = 
REMARK  6 active torsions:
REMARK  status: ('A' for Active; 'I' for Inactive)
REMARK    1  A    between atoms: C_1  and  O_2
REMARK    2  A    between atoms: O_2  and  C_3
REMARK    3  A    between atoms: C_3  and  C_5
REMARK    4  A    between atoms: C_11  and  C_12
REMARK    5  A    between atoms: C_17  and  O_18
REMARK    6  A    between atoms: O_18  and  C_19
REMARK                            x       y       z     vdW  Elec       q    Type
REMARK                         _______ _______ _______ _____ _____    ______ ____
ROOT
ATOM      1  C   UNL     1       3.708   4.457  19.581  0.00  0.00    +0.000 C 
ATOM      2  C   UNL     1       4.302   3.352  18.569  0.00  0.00    +0.000 C 
ATOM      3  S   UNL     1       3.291   1.870  18.660  0.00  0.00    +0.000 S 
ATOM      4  C   UNL     1       1.799   2.816  18.819  0.00  0.00    +0.000 C 
ATOM      5  C   UNL     1       2.237   4.277  19.023  0.00  0.00    +0.000 C 
ATOM      6  C   UNL     1       1.283   4.853  20.089  0.00  0.00    +0.000 C 
ATOM      7  C   UNL     1       2.082   5.938  20.745  0.00  0.00    +0.000 C 
ATOM      8  N   UNL     1       3.316   5.862  19.978  0.00  0.00    +0.000 NA
ATOM      9  H   UNL     1       4.037   6.330  20.536  0.00  0.00    +0.000 HD
ENDROOT
BRANCH   7  10
ATOM     10  C   UNL     1       1.448   7.317  20.695  0.00  0.00    +0.000 A 
ATOM     11  C   UNL     1       0.539   7.657  21.733  0.00  0.00    +0.000 A 
ATOM     12  C   UNL     1      -0.189   8.851  21.738  0.00  0.00    +0.000 A 
ATOM     13  C   UNL     1      -0.008   9.759  20.710  0.00  0.00    +0.000 A 
ATOM     14  C   UNL     1       0.911   9.473  19.705  0.00  0.00    +0.000 A 
ATOM     15  C   UNL     1       1.654   8.272  19.683  0.00  0.00    +0.000 A 
BRANCH  15  16
ATOM     16  O   UNL     1       2.452   8.241  18.576  0.00  0.00    +0.000 OA
ATOM     17  C   UNL     1       2.296   9.163  17.518  0.00  0.00    +0.000 C 
ENDBRANCH  15  16
ENDBRANCH   7  10
BRANCH   1  18
ATOM     18  C   UNL     1       5.122   5.169  19.133  0.00  0.00    +0.000 C 
ATOM     19  O   UNL     1       6.218   5.101  19.667  0.00  0.00    +0.000 OA
BRANCH  18  21
ATOM     20  C   UNL     1       5.917   6.616  17.432  0.00  0.00    +0.000 C 
ATOM     21  O   UNL     1       4.867   5.786  17.921  0.00  0.00    +0.000 OA
ENDBRANCH  18  21
ENDBRANCH   1  18
TORSDOF 4
ENDMDL
MODEL 9
REMARK VINA RESULT:      -6.3      3.764      6.208
REMARK  Name = 
REMARK  6 active torsions:
REMARK  status: ('A' for Active; 'I' for Inactive)
REMARK    1  A    between atoms: C_1  and  O_2
REMARK    2  A    between atoms: O_2  and  C_3
REMARK    3  A    between atoms: C_3  and  C_5
REMARK    4  A    between atoms: C_11  and  C_12
REMARK    5  A    between atoms: C_17  and  O_18
REMARK    6  A    between atoms: O_18  and  C_19
REMARK                            x       y       z     vdW  Elec       q    Type
REMARK                         _______ _______ _______ _____ _____    ______ ____
ROOT
ATOM      1  C   UNL     1       1.449   8.700  20.259  0.00  0.00    +0.000 C 
ATOM      2  C   UNL     1       0.662  10.082  19.996  0.00  0.00    +0.000 C 
ATOM      3  S   UNL     1       1.526  11.016  18.728  0.00  0.00    +0.000 S 
ATOM      4  C   UNL     1       1.911   9.547  17.812  0.00  0.00    +0.000 C 
ATOM      5  C   UNL     1       1.516   8.364  18.713  0.00  0.00    +0.000 C 
ATOM      6  C   UNL     1       2.630   7.313  18.533  0.00  0.00    +0.000 C 
ATOM      7  C   UNL     1       2.622   6.549  19.822  0.00  0.00    +0.000 C 
ATOM      8  N   UNL     1       1.532   7.213  20.520  0.00  0.00    +0.000 NA
ATOM      9  H   UNL     1       1.643   6.993  21.514  0.00  0.00    +0.000 HD
ENDROOT
BRANCH   7  10
ATOM     10  C   UNL     1       2.398   5.055  19.677  0.00  0.00    +0.000 A 
ATOM     11  C   UNL     1       1.286   4.490  20.360  0.00  0.00    +0.000 A 
ATOM     12  C   UNL     1       1.039   3.114  20.392  0.00  0.00    +0.000 A 
ATOM     13  C   UNL     1       1.889   2.258  19.715  0.00  0.00    +0.000 A 
ATOM     14  C   UNL     1       2.958   2.786  18.999  0.00  0.00    +0.000 A 
ATOM     15  C   UNL     1       3.223   4.173  18.956  0.00  0.00    +0.000 A 
BRANCH  15  16
ATOM     16  O   UNL     1       4.343   4.407  18.211  0.00  0.00    +0.000 OA
ATOM     17  C   UNL     1       5.621   4.520  18.800  0.00  0.00    +0.000 C 
ENDBRANCH  15  16
ENDBRANCH   7  10
BRANCH   1  18
ATOM     18  C   UNL     1       0.352   8.674  21.484  0.00  0.00    +0.000 C 
ATOM     19  O   UNL     1      -0.653   7.989  21.600  0.00  0.00    +0.000 OA
BRANCH  18  21
ATOM     20  C   UNL     1       0.025   9.677  23.607  0.00  0.00    +0.000 C 
ATOM     21  O   UNL     1       0.855   9.515  22.460  0.00  0.00    +0.000 OA
ENDBRANCH  18  21
ENDBRANCH   1  18
TORSDOF 4
ENDMDL
