MODEL 1
REMARK VINA RESULT:      -5.5      0.000      0.000
REMARK  Name = 
REMARK  5 active torsions:
REMARK  status: ('A' for Active; 'I' for Inactive)
REMARK    1  A    between atoms: C_1  and  O_2
REMARK    2  A    between atoms: O_2  and  C_3
REMARK    3  A    between atoms: C_3  and  C_4
REMARK    4  A    between atoms: C_6  and  C_7
REMARK    5  A    between atoms: N_10  and  C_11
REMARK                            x       y       z     vdW  Elec       q    Type
REMARK                         _______ _______ _______ _____ _____    ______ ____
ROOT
ATOM      1  C   UNL     1       6.612   5.716  17.505  0.00  0.00    +0.000 A 
ATOM      2  N   UNL     1       5.502   5.397  18.144  0.00  0.00    +0.000 NA
ATOM      3  C   UNL     1       4.814   4.426  17.440  0.00  0.00    +0.000 A 
ATOM      4  C   UNL     1       5.410   4.015  16.267  0.00  0.00    +0.000 A 
ATOM      5  S   UNL     1       6.883   4.858  16.034  0.00  0.00    +0.000 S 
ENDROOT
BRANCH   3   6
ATOM      6  C   UNL     1       3.566   3.918  17.995  0.00  0.00    +0.000 A 
ATOM      7  C   UNL     1       2.489   3.396  17.252  0.00  0.00    +0.000 A 
ATOM      8  N   UNL     1       1.469   3.020  18.033  0.00  0.00    +0.000 NA
ATOM      9  N   UNL     1       1.905   3.302  19.274  0.00  0.00    +0.000 N 
ATOM     10  C   UNL     1       1.067   3.025  20.417  0.00  0.00    +0.000 C 
ATOM     11  C   UNL     1       3.157   3.844  19.307  0.00  0.00    +0.000 A 
ENDBRANCH   3   6
BRANCH   1  12
ATOM     12  C   UNL     1       7.637   6.677  18.024  0.00  0.00    +0.000 C 
BRANCH  12  14
ATOM     13  C   UNL     1       8.035   8.986  17.832  0.00  0.00    +0.000 C 
ATOM     14  O   UNL     1       7.722   7.790  17.131  0.00  0.00    +0.000 OA
ENDBRANCH  12  14
ENDBRANCH   1  12
TORSDOF 3
ENDMDL
MODEL 2
REMARK VINA RESULT:      -5.5      2.015      2.502
REMARK  Name = 
REMARK  5 active torsions:
REMARK  status: ('A' for Active; 'I' for Inactive)
REMARK    1  A    between atoms: C_1  and  O_2
REMARK    2  A    between atoms: O_2  and  C_3
REMARK    3  A    between atoms: C_3  and  C_4
REMARK    4  A    between atoms: C_6  and  C_7
REMARK    5  A    between atoms: N_10  and  C_11
REMARK                            x       y       z     vdW  Elec       q    Type
REMARK                         _______ _______ _______ _____ _____    ______ ____
ROOT
ATOM      1  C   UNL     1       6.166   4.381  15.718  0.00  0.00    +0.000 A 
ATOM      2  N   UNL     1       4.941   4.039  16.073  0.00  0.00    +0.000 NA
ATOM      3  C   UNL     1       4.799   4.150  17.444  0.00  0.00    +0.000 A 
ATOM      4  C   UNL     1       5.922   4.575  18.121  0.00  0.00    +0.000 A 
ATOM      5  S   UNL     1       7.199   4.857  17.013  0.00  0.00    +0.000 S 
ENDROOT
BRANCH   3   6
ATOM      6  C   UNL     1       3.505   3.839  18.037  0.00  0.00    +0.000 A 
ATOM      7  C   UNL     1       2.326   3.542  17.326  0.00  0.00    +0.000 A 
ATOM      8  N   UNL     1       1.288   3.312  18.139  0.00  0.00    +0.000 NA
ATOM      9  N   UNL     1       1.814   3.460  19.369  0.00  0.00    +0.000 N 
ATOM     10  C   UNL     1       0.986   3.281  20.538  0.00  0.00    +0.000 C 
ATOM     11  C   UNL     1       3.141   3.778  19.363  0.00  0.00    +0.000 A 
ENDBRANCH   3   6
BRANCH   1  12
ATOM     12  C   UNL     1       6.643   4.454  14.300  0.00  0.00    +0.000 C 
BRANCH  12  14
ATOM     13  C   UNL     1       8.177   5.537  12.887  0.00  0.00    +0.000 C 
ATOM     14  O   UNL     1       7.754   5.349  14.231  0.00  0.00    +0.000 OA
ENDBRANCH  12  14
ENDBRANCH   1  12
TORSDOF 3
ENDMDL
MODEL 3
REMARK VINA RESULT:      -5.4      3.138      5.779
REMARK  Name = 
REMARK  5 active torsions:
REMARK  status: ('A' for Active; 'I' for Inactive)
REMARK    1  A    between atoms: C_1  and  O_2
REMARK    2  A    between atoms: O_2  and  C_3
REMARK    3  A    between atoms: C_3  and  C_4
REMARK    4  A    between atoms: C_6  and  C_7
REMARK    5  A    between atoms: N_10  and  C_11
REMARK                            x       y       z     vdW  Elec       q    Type
REMARK                         _______ _______ _______ _____ _____    ______ ____
ROOT
ATOM      1  C   UNL     1       3.734   2.968  19.426  0.00  0.00    +0.000 A 
ATOM      2  N   UNL     1       4.649   3.904  19.258  0.00  0.00    +0.000 NA
ATOM      3  C   UNL     1       4.907   4.075  17.911  0.00  0.00    +0.000 A 
ATOM      4  C   UNL     1       4.183   3.263  17.064  0.00  0.00    +0.000 A 
ATOM      5  S   UNL     1       3.137   2.256  17.974  0.00  0.00    +0.000 S 
ENDROOT
BRANCH   3   6
ATOM      6  C   UNL     1       5.877   5.086  17.511  0.00  0.00    +0.000 A 
ATOM      7  C   UNL     1       6.714   5.020  16.380  0.00  0.00    +0.000 A 
ATOM      8  N   UNL     1       7.513   6.090  16.278  0.00  0.00    +0.000 NA
ATOM      9  N   UNL     1       7.176   6.836  17.346  0.00  0.00    +0.000 N 
ATOM     10  C   UNL     1       7.832   8.100  17.582  0.00  0.00    +0.000 C 
ATOM     11  C   UNL     1       6.200   6.278  18.120  0.00  0.00    +0.000 A 
ENDBRANCH   3   6
BRANCH   1  12
ATOM     12  C   UNL     1       3.157   2.581  20.754  0.00  0.00    +0.000 C 
BRANCH  12  14
ATOM     13  C   UNL     1       1.258   3.966  20.722  0.00  0.00    +0.000 C 
ATOM     14  O   UNL     1       1.731   2.626  20.671  0.00  0.00    +0.000 OA
ENDBRANCH  12  14
ENDBRANCH   1  12
TORSDOF 3
ENDMDL
MODEL 4
REMARK VINA RESULT:      -5.4      3.353      6.014
REMARK  Name = 
REMARK  5 active torsions:
REMARK  status: ('A' for Active; 'I' for Inactive)
REMARK    1  A    between atoms: C_1  and  O_2
REMARK    2  A    between atoms: O_2  and  C_3
REMARK    3  A    between atoms: C_3  and  C_4
REMARK    4  A    between atoms: C_6  and  C_7
REMARK    5  A    between atoms: N_10  and  C_11
REMARK                            x       y       z     vdW  Elec       q    Type
REMARK                         _______ _______ _______ _____ _____    ______ ____
ROOT
ATOM      1  C   UNL     1       3.716   3.584  18.854  0.00  0.00    +0.000 A 
ATOM      2  N   UNL     1       4.386   3.421  17.728  0.00  0.00    +0.000 NA
ATOM      3  C   UNL     1       4.916   4.630  17.315  0.00  0.00    +0.000 A 
ATOM      4  C   UNL     1       4.643   5.704  18.134  0.00  0.00    +0.000 A 
ATOM      5  S   UNL     1       3.700   5.194  19.470  0.00  0.00    +0.000 S 
ENDROOT
BRANCH   3   6
ATOM      6  C   UNL     1       5.716   4.658  16.097  0.00  0.00    +0.000 A 
ATOM      7  C   UNL     1       6.928   5.354  15.926  0.00  0.00    +0.000 A 
ATOM      8  N   UNL     1       7.428   5.207  14.693  0.00  0.00    +0.000 NA
ATOM      9  N   UNL     1       6.530   4.412  14.084  0.00  0.00    +0.000 N 
ATOM     10  C   UNL     1       6.728   4.015  12.710  0.00  0.00    +0.000 C 
ATOM     11  C   UNL     1       5.482   4.055  14.882  0.00  0.00    +0.000 A 
ENDBRANCH   3   6
BRANCH   1  12
ATOM     12  C   UNL     1       3.079   2.469  19.624  0.00  0.00    +0.000 C 
BRANCH  12  14
ATOM     13  C   UNL     1       0.873   2.432  18.812  0.00  0.00    +0.000 C 
ATOM     14  O   UNL     1       1.717   2.810  19.891  0.00  0.00    +0.000 OA
ENDBRANCH  12  14
ENDBRANCH   1  12
TORSDOF 3
ENDMDL
MODEL 5
REMARK VINA RESULT:      -5.4      3.177      5.834
REMARK  Name = 
REMARK  5 active torsions:
REMARK  status: ('A' for Active; 'I' for Inactive)
REMARK    1  A    between atoms: C_1  and  O_2
REMARK    2  A    between atoms: O_2  and  C_3
REMARK    3  A    between atoms: C_3  and  C_4
REMARK    4  A    between atoms: C_6  and  C_7
REMARK    5  A    between atoms: N_10  and  C_11
REMARK                            x       y       z     vdW  Elec       q    Type
REMARK                         _______ _______ _______ _____ _____    ______ ____
ROOT
ATOM      1  C   UNL     1       2.127   3.777  19.037  0.00  0.00    +0.000 A 
ATOM      2  N   UNL     1       3.000   4.740  18.810  0.00  0.00    +0.000 NA
ATOM      3  C   UNL     1       3.860   4.368  17.792  0.00  0.00    +0.000 A 
ATOM      4  C   UNL     1       3.631   3.119  17.255  0.00  0.00    +0.000 A 
ATOM      5  S   UNL     1       2.294   2.384  18.035  0.00  0.00    +0.000 S 
ENDROOT
BRANCH   3   6
ATOM      6  C   UNL     1       4.889   5.310  17.371  0.00  0.00    +0.000 A 
ATOM      7  C   UNL     1       5.160   5.691  16.043  0.00  0.00    +0.000 A 
ATOM      8  N   UNL     1       6.173   6.562  15.962  0.00  0.00    +0.000 NA
ATOM      9  N   UNL     1       6.541   6.735  17.245  0.00  0.00    +0.000 N 
ATOM     10  C   UNL     1       7.626   7.629  17.574  0.00  0.00    +0.000 C 
ATOM     11  C   UNL     1       5.803   6.004  18.131  0.00  0.00    +0.000 A 
ENDBRANCH   3   6
BRANCH   1  12
ATOM     12  C   UNL     1       1.000   3.875  20.019  0.00  0.00    +0.000 C 
BRANCH  12  14
ATOM     13  C   UNL     1       2.224   2.852  21.745  0.00  0.00    +0.000 C 
ATOM     14  O   UNL     1       1.071   2.767  20.919  0.00  0.00    +0.000 OA
ENDBRANCH  12  14
ENDBRANCH   1  12
TORSDOF 3
ENDMDL
MODEL 6
REMARK VINA RESULT:      -5.4      3.435      6.111
REMARK  Name = 
REMARK  5 active torsions:
REMARK  status: ('A' for Active; 'I' for Inactive)
REMARK    1  A    between atoms: C_1  and  O_2
REMARK    2  A    between atoms: O_2  and  C_3
REMARK    3  A    between atoms: C_3  and  C_4
REMARK    4  A    between atoms: C_6  and  C_7
REMARK    5  A    between atoms: N_10  and  C_11
REMARK                            x       y       z     vdW  Elec       q    Type
REMARK                         _______ _______ _______ _____ _____    ______ ____
ROOT
ATOM      1  C   UNL     1       2.658   3.337  18.565  0.00  0.00    +0.000 A 
ATOM      2  N   UNL     1       3.735   3.222  17.811  0.00  0.00    +0.000 NA
ATOM      3  C   UNL     1       4.133   4.468  17.363  0.00  0.00    +0.000 A 
ATOM      4  C   UNL     1       3.351   5.522  17.782  0.00  0.00    +0.000 A 
ATOM      5  S   UNL     1       2.079   4.947  18.776  0.00  0.00    +0.000 S 
ENDROOT
BRANCH   3   6
ATOM      6  C   UNL     1       5.325   4.560  16.530  0.00  0.00    +0.000 A 
ATOM      7  C   UNL     1       6.654   4.568  16.995  0.00  0.00    +0.000 A 
ATOM      8  N   UNL     1       7.540   4.677  15.998  0.00  0.00    +0.000 NA
ATOM      9  N   UNL     1       6.768   4.733  14.897  0.00  0.00    +0.000 N 
ATOM     10  C   UNL     1       7.373   4.850  13.592  0.00  0.00    +0.000 C 
ATOM     11  C   UNL     1       5.430   4.668  15.161  0.00  0.00    +0.000 A 
ENDBRANCH   3   6
BRANCH   1  12
ATOM     12  C   UNL     1       2.004   2.194  19.280  0.00  0.00    +0.000 C 
BRANCH  12  14
ATOM     13  C   UNL     1       1.712   2.634  21.571  0.00  0.00    +0.000 C 
ATOM     14  O   UNL     1       1.125   2.716  20.279  0.00  0.00    +0.000 OA
ENDBRANCH  12  14
ENDBRANCH   1  12
TORSDOF 3
ENDMDL
MODEL 7
REMARK VINA RESULT:      -5.3      3.373      6.042
REMARK  Name = 
REMARK  5 active torsions:
REMARK  status: ('A' for Active; 'I' for Inactive)
REMARK    1  A    between atoms: C_1  and  O_2
REMARK    2  A    between atoms: O_2  and  C_3
REMARK    3  A    between atoms: C_3  and  C_4
REMARK    4  A    between atoms: C_6  and  C_7
REMARK    5  A    between atoms: N_10  and  C_11
REMARK                            x       y       z     vdW  Elec       q    Type
REMARK                         _______ _______ _______ _____ _____    ______ ____
ROOT
ATOM      1  C   UNL     1       3.153   4.519  18.216  0.00  0.00    +0.000 A 
ATOM      2  N   UNL     1       3.686   4.614  17.013  0.00  0.00    +0.000 NA
ATOM      3  C   UNL     1       5.063   4.512  17.097  0.00  0.00    +0.000 A 
ATOM      4  C   UNL     1       5.564   4.340  18.369  0.00  0.00    +0.000 A 
ATOM      5  S   UNL     1       4.279   4.295  19.502  0.00  0.00    +0.000 S 
ENDROOT
BRANCH   3   6
ATOM      6  C   UNL     1       5.841   4.568  15.866  0.00  0.00    +0.000 A 
ATOM      7  C   UNL     1       7.018   5.317  15.672  0.00  0.00    +0.000 A 
ATOM      8  N   UNL     1       7.505   5.185  14.432  0.00  0.00    +0.000 NA
ATOM      9  N   UNL     1       6.634   4.346  13.842  0.00  0.00    +0.000 N 
ATOM     10  C   UNL     1       6.828   3.949  12.467  0.00  0.00    +0.000 C 
ATOM     11  C   UNL     1       5.616   3.947  14.659  0.00  0.00    +0.000 A 
ENDBRANCH   3   6
BRANCH   1  12
ATOM     12  C   UNL     1       1.679   4.508  18.486  0.00  0.00    +0.000 C 
BRANCH  12  14
ATOM     13  C   UNL     1       1.039   2.261  18.745  0.00  0.00    +0.000 C 
ATOM     14  O   UNL     1       1.101   3.365  17.852  0.00  0.00    +0.000 OA
ENDBRANCH  12  14
ENDBRANCH   1  12
TORSDOF 3
ENDMDL
MODEL 8
REMARK VINA RESULT:      -5.3      2.382      3.097
REMARK  Name = 
REMARK  5 active torsions:
REMARK  status: ('A' for Active; 'I' for Inactive)
REMARK    1  A    between atoms: C_1  and  O_2
REMARK    2  A    between atoms: O_2  and  C_3
REMARK    3  A    between atoms: C_3  and  C_4
REMARK    4  A    between atoms: C_6  and  C_7
REMARK    5  A    between atoms: N_10  and  C_11
REMARK                            x       y       z     vdW  Elec       q    Type
REMARK                         _______ _______ _______ _____ _____    ______ ____
ROOT
ATOM      1  C   UNL     1       5.951   4.489  15.980  0.00  0.00    +0.000 A 
ATOM      2  N   UNL     1       4.852   3.922  16.443  0.00  0.00    +0.000 NA
ATOM      3  C   UNL     1       4.852   3.951  17.825  0.00  0.00    +0.000 A 
ATOM      4  C   UNL     1       5.956   4.541  18.402  0.00  0.00    +0.000 A 
ATOM      5  S   UNL     1       7.029   5.088  17.184  0.00  0.00    +0.000 S 
ENDROOT
BRANCH   3   6
ATOM      6  C   UNL     1       3.707   3.392  18.533  0.00  0.00    +0.000 A 
ATOM      7  C   UNL     1       2.794   2.458  18.008  0.00  0.00    +0.000 A 
ATOM      8  N   UNL     1       1.835   2.138  18.886  0.00  0.00    +0.000 NA
ATOM      9  N   UNL     1       2.147   2.870  19.971  0.00  0.00    +0.000 N 
ATOM     10  C   UNL     1       1.329   2.792  21.158  0.00  0.00    +0.000 C 
ATOM     11  C   UNL     1       3.262   3.642  19.811  0.00  0.00    +0.000 A 
ENDBRANCH   3   6
BRANCH   1  12
ATOM     12  C   UNL     1       6.241   4.702  14.526  0.00  0.00    +0.000 C 
BRANCH  12  14
ATOM     13  C   UNL     1       5.925   3.519  12.520  0.00  0.00    +0.000 C 
ATOM     14  O   UNL     1       6.327   3.430  13.880  0.00  0.00    +0.000 OA
ENDBRANCH  12  14
ENDBRANCH   1  12
TORSDOF 3
ENDMDL
MODEL 9
REMARK VINA RESULT:      -5.3      3.395      5.855
REMARK  Name = 
REMARK  5 active torsions:
REMARK  status: ('A' for Active; 'I' for Inactive)
REMARK    1  A    between atoms: C_1  and  O_2
REMARK    2  A    between atoms: O_2  and  C_3
REMARK    3  A    between atoms: C_3  and  C_4
REMARK    4  A    between atoms: C_6  and  C_7
REMARK    5  A    between atoms: N_10  and  C_11
REMARK                            x       y       z     vdW  Elec       q    Type
REMARK                         _______ _______ _______ _____ _____    ______ ____
ROOT
ATOM      1  C   UNL     1       2.752   4.315  19.349  0.00  0.00    +0.000 A 
ATOM      2  N   UNL     1       3.932   4.583  18.823  0.00  0.00    +0.000 NA
ATOM      3  C   UNL     1       3.975   4.144  17.512  0.00  0.00    +0.000 A 
ATOM      4  C   UNL     1       2.822   3.543  17.054  0.00  0.00    +0.000 A 
ATOM      5  S   UNL     1       1.639   3.531  18.293  0.00  0.00    +0.000 S 
ENDROOT
BRANCH   3   6
ATOM      6  C   UNL     1       5.192   4.368  16.742  0.00  0.00    +0.000 A 
ATOM      7  C   UNL     1       6.482   4.549  17.278  0.00  0.00    +0.000 A 
ATOM      8  N   UNL     1       7.403   4.750  16.328  0.00  0.00    +0.000 NA
ATOM      9  N   UNL     1       6.692   4.692  15.187  0.00  0.00    +0.000 N 
ATOM     10  C   UNL     1       7.351   4.862  13.913  0.00  0.00    +0.000 C 
ATOM     11  C   UNL     1       5.360   4.467  15.380  0.00  0.00    +0.000 A 
ENDBRANCH   3   6
BRANCH   1  12
ATOM     12  C   UNL     1       2.332   4.724  20.728  0.00  0.00    +0.000 C 
BRANCH  12  14
ATOM     13  C   UNL     1       2.112   2.640  21.793  0.00  0.00    +0.000 C 
ATOM     14  O   UNL     1       1.419   3.752  21.241  0.00  0.00    +0.000 OA
ENDBRANCH  12  14
ENDBRANCH   1  12
TORSDOF 3
ENDMDL
