MODEL 1
REMARK VINA RESULT:      -8.1      0.000      0.000
REMARK  Name = 
REMARK  7 active torsions:
REMARK  status: ('A' for Active; 'I' for Inactive)
REMARK    1  A    between atoms: C_2  and  C_3
REMARK    2  A    between atoms: C_6  and  C_7
REMARK    3  A    between atoms: C_7  and  C_9
REMARK    4  A    between atoms: C_9  and  N_10
REMARK    5  A    between atoms: C_11  and  C_12
REMARK    6  A    between atoms: C_12  and  C_14
REMARK    7  A    between atoms: C_20  and  O_21
REMARK                            x       y       z     vdW  Elec       q    Type
REMARK                         _______ _______ _______ _____ _____    ______ ____
ROOT
ATOM      1  N   UNL     1       5.454   5.485  17.649  0.00  0.00    +0.000 N 
ATOM      2  C   UNL     1       5.109   4.095  17.730  0.00  0.00    +0.000 C 
ATOM      3  C   UNL     1       5.251   3.370  16.594  0.00  0.00    +0.000 C 
ATOM      4  C   UNL     1       5.900   3.902  15.362  0.00  0.00    +0.000 A 
ATOM      5  C   UNL     1       5.752   3.273  14.114  0.00  0.00    +0.000 A 
ATOM      6  C   UNL     1       6.381   3.789  12.970  0.00  0.00    +0.000 A 
ATOM      7  C   UNL     1       7.167   4.938  13.048  0.00  0.00    +0.000 A 
ATOM      8  C   UNL     1       7.346   5.570  14.273  0.00  0.00    +0.000 A 
ATOM      9  C   UNL     1       6.729   5.032  15.407  0.00  0.00    +0.000 A 
ATOM     10  S   UNL     1       6.959   5.786  16.965  0.00  0.00    +0.000 S 
ATOM     11  O   UNL     1       7.948   5.007  17.684  0.00  0.00    +0.000 OA
ATOM     12  O   UNL     1       7.124   7.211  16.802  0.00  0.00    +0.000 OA
ENDROOT
BRANCH   2  13
ATOM     13  C   UNL     1       4.534   3.481  18.981  0.00  0.00    +0.000 C 
ATOM     14  O   UNL     1       5.276   2.970  19.820  0.00  0.00    +0.000 OA
BRANCH  13  15
ATOM     15  C   UNL     1       3.053   3.480  19.195  0.00  0.00    +0.000 A 
ATOM     16  C   UNL     1       2.522   4.218  20.262  0.00  0.00    +0.000 A 
ATOM     17  C   UNL     1       1.160   4.128  20.570  0.00  0.00    +0.000 A 
ATOM     18  C   UNL     1       0.322   3.302  19.821  0.00  0.00    +0.000 A 
ATOM     19  C   UNL     1       0.833   2.603  18.733  0.00  0.00    +0.000 A 
ATOM     20  C   UNL     1       2.183   2.724  18.400  0.00  0.00    +0.000 A 
ENDBRANCH  13  15
ENDBRANCH   2  13
BRANCH   3  21
ATOM     21  O   UNL     1       4.803   2.061  16.474  0.00  0.00    +0.000 OA
ATOM     22  H   UNL     1       3.833   2.046  16.635  0.00  0.00    +0.000 HD
ENDBRANCH   3  21
BRANCH   1  23
ATOM     23  C   UNL     1       4.766   6.547  18.387  0.00  0.00    +0.000 C 
BRANCH  23  24
ATOM     24  C   UNL     1       3.759   7.326  17.569  0.00  0.00    +0.000 C 
ATOM     25  O   UNL     1       3.767   7.382  16.343  0.00  0.00    +0.000 OA
BRANCH  24  29
ATOM     26  C   UNL     1       0.799   9.434  19.861  0.00  0.00    +0.000 A 
ATOM     27  C   UNL     1       1.114   9.872  18.572  0.00  0.00    +0.000 A 
ATOM     28  C   UNL     1       2.043   9.170  17.797  0.00  0.00    +0.000 A 
ATOM     29  C   UNL     1       2.674   8.030  18.314  0.00  0.00    +0.000 A 
ATOM     30  C   UNL     1       2.334   7.575  19.593  0.00  0.00    +0.000 A 
ATOM     31  C   UNL     1       1.395   8.273  20.363  0.00  0.00    +0.000 A 
BRANCH  26  33
ATOM     32  N   UNL     1      -0.843  10.822  21.310  0.00  0.00    +0.000 NA
ATOM     33  C   UNL     1      -0.105  10.192  20.668  0.00  0.00    +0.000 C 
ENDBRANCH  26  33
ENDBRANCH  24  29
ENDBRANCH  23  24
ENDBRANCH   1  23
TORSDOF 7
ENDMDL
MODEL 2
REMARK VINA RESULT:      -7.9      0.795      1.448
REMARK  Name = 
REMARK  7 active torsions:
REMARK  status: ('A' for Active; 'I' for Inactive)
REMARK    1  A    between atoms: C_2  and  C_3
REMARK    2  A    between atoms: C_6  and  C_7
REMARK    3  A    between atoms: C_7  and  C_9
REMARK    4  A    between atoms: C_9  and  N_10
REMARK    5  A    between atoms: C_11  and  C_12
REMARK    6  A    between atoms: C_12  and  C_14
REMARK    7  A    between atoms: C_20  and  O_21
REMARK                            x       y       z     vdW  Elec       q    Type
REMARK                         _______ _______ _______ _____ _____    ______ ____
ROOT
ATOM      1  N   UNL     1       5.248   5.142  18.271  0.00  0.00    +0.000 N 
ATOM      2  C   UNL     1       4.986   3.732  18.216  0.00  0.00    +0.000 C 
ATOM      3  C   UNL     1       5.199   3.124  17.024  0.00  0.00    +0.000 C 
ATOM      4  C   UNL     1       5.845   3.803  15.865  0.00  0.00    +0.000 A 
ATOM      5  C   UNL     1       5.767   3.284  14.561  0.00  0.00    +0.000 A 
ATOM      6  C   UNL     1       6.391   3.939  13.488  0.00  0.00    +0.000 A 
ATOM      7  C   UNL     1       7.104   5.120  13.693  0.00  0.00    +0.000 A 
ATOM      8  C   UNL     1       7.214   5.646  14.975  0.00  0.00    +0.000 A 
ATOM      9  C   UNL     1       6.602   4.971  16.037  0.00  0.00    +0.000 A 
ATOM     10  S   UNL     1       6.748   5.591  17.663  0.00  0.00    +0.000 S 
ATOM     11  O   UNL     1       7.764   4.808  18.338  0.00  0.00    +0.000 OA
ATOM     12  O   UNL     1       6.831   7.032  17.635  0.00  0.00    +0.000 OA
ENDROOT
BRANCH   2  13
ATOM     13  C   UNL     1       4.417   2.973  19.389  0.00  0.00    +0.000 C 
ATOM     14  O   UNL     1       5.162   2.346  20.142  0.00  0.00    +0.000 OA
BRANCH  13  15
ATOM     15  C   UNL     1       2.940   2.972  19.628  0.00  0.00    +0.000 A 
ATOM     16  C   UNL     1       2.101   2.365  18.685  0.00  0.00    +0.000 A 
ATOM     17  C   UNL     1       0.711   2.467  18.811  0.00  0.00    +0.000 A 
ATOM     18  C   UNL     1       0.151   3.176  19.874  0.00  0.00    +0.000 A 
ATOM     19  C   UNL     1       0.977   3.742  20.840  0.00  0.00    +0.000 A 
ATOM     20  C   UNL     1       2.363   3.605  20.736  0.00  0.00    +0.000 A 
ENDBRANCH  13  15
ENDBRANCH   2  13
BRANCH   3  21
ATOM     21  O   UNL     1       4.834   1.808  16.773  0.00  0.00    +0.000 OA
ATOM     22  H   UNL     1       4.402   1.443  17.578  0.00  0.00    +0.000 HD
ENDBRANCH   3  21
BRANCH   1  23
ATOM     23  C   UNL     1       4.478   6.090  19.081  0.00  0.00    +0.000 C 
BRANCH  23  24
ATOM     24  C   UNL     1       3.094   6.388  18.548  0.00  0.00    +0.000 C 
ATOM     25  O   UNL     1       2.563   5.766  17.632  0.00  0.00    +0.000 OA
BRANCH  24  29
ATOM     26  C   UNL     1       0.700   9.473  20.338  0.00  0.00    +0.000 A 
ATOM     27  C   UNL     1       1.084   8.368  21.102  0.00  0.00    +0.000 A 
ATOM     28  C   UNL     1       1.901   7.378  20.546  0.00  0.00    +0.000 A 
ATOM     29  C   UNL     1       2.327   7.481  19.215  0.00  0.00    +0.000 A 
ATOM     30  C   UNL     1       1.968   8.605  18.461  0.00  0.00    +0.000 A 
ATOM     31  C   UNL     1       1.160   9.601  19.023  0.00  0.00    +0.000 A 
BRANCH  26  33
ATOM     32  N   UNL     1      -0.888  11.258  21.349  0.00  0.00    +0.000 NA
ATOM     33  C   UNL     1      -0.183  10.450  20.895  0.00  0.00    +0.000 C 
ENDBRANCH  26  33
ENDBRANCH  24  29
ENDBRANCH  23  24
ENDBRANCH   1  23
TORSDOF 7
ENDMDL
MODEL 3
REMARK VINA RESULT:      -7.9      5.222     10.715
REMARK  Name = 
REMARK  7 active torsions:
REMARK  status: ('A' for Active; 'I' for Inactive)
REMARK    1  A    between atoms: C_2  and  C_3
REMARK    2  A    between atoms: C_6  and  C_7
REMARK    3  A    between atoms: C_7  and  C_9
REMARK    4  A    between atoms: C_9  and  N_10
REMARK    5  A    between atoms: C_11  and  C_12
REMARK    6  A    between atoms: C_12  and  C_14
REMARK    7  A    between atoms: C_20  and  O_21
REMARK                            x       y       z     vdW  Elec       q    Type
REMARK                         _______ _______ _______ _____ _____    ______ ____
ROOT
ATOM      1  N   UNL     1      -1.462  11.307  20.982  0.00  0.00    +0.000 N 
ATOM      2  C   UNL     1      -2.156  12.107  20.014  0.00  0.00    +0.000 C 
ATOM      3  C   UNL     1      -3.297  12.706  20.433  0.00  0.00    +0.000 C 
ATOM      4  C   UNL     1      -3.741  12.713  21.856  0.00  0.00    +0.000 A 
ATOM      5  C   UNL     1      -5.057  13.043  22.223  0.00  0.00    +0.000 A 
ATOM      6  C   UNL     1      -5.447  13.050  23.571  0.00  0.00    +0.000 A 
ATOM      7  C   UNL     1      -4.537  12.728  24.577  0.00  0.00    +0.000 A 
ATOM      8  C   UNL     1      -3.224  12.415  24.245  0.00  0.00    +0.000 A 
ATOM      9  C   UNL     1      -2.845  12.433  22.899  0.00  0.00    +0.000 A 
ATOM     10  S   UNL     1      -1.196  12.074  22.452  0.00  0.00    +0.000 S 
ATOM     11  O   UNL     1      -0.530  13.335  22.192  0.00  0.00    +0.000 OA
ATOM     12  O   UNL     1      -0.630  11.124  23.381  0.00  0.00    +0.000 OA
ENDROOT
BRANCH   2  13
ATOM     13  C   UNL     1      -1.700  12.212  18.581  0.00  0.00    +0.000 C 
ATOM     14  O   UNL     1      -0.848  13.040  18.259  0.00  0.00    +0.000 OA
BRANCH  13  15
ATOM     15  C   UNL     1      -2.299  11.315  17.543  0.00  0.00    +0.000 A 
ATOM     16  C   UNL     1      -1.611  10.150  17.176  0.00  0.00    +0.000 A 
ATOM     17  C   UNL     1      -2.075   9.364  16.115  0.00  0.00    +0.000 A 
ATOM     18  C   UNL     1      -3.223   9.736  15.414  0.00  0.00    +0.000 A 
ATOM     19  C   UNL     1      -3.935  10.865  15.802  0.00  0.00    +0.000 A 
ATOM     20  C   UNL     1      -3.495  11.627  16.887  0.00  0.00    +0.000 A 
ENDBRANCH  13  15
ENDBRANCH   2  13
BRANCH   3  21
ATOM     21  O   UNL     1      -4.159  13.372  19.572  0.00  0.00    +0.000 OA
ATOM     22  H   UNL     1      -4.252  14.301  19.878  0.00  0.00    +0.000 HD
ENDBRANCH   3  21
BRANCH   1  23
ATOM     23  C   UNL     1      -0.729  10.079  20.659  0.00  0.00    +0.000 C 
BRANCH  23  24
ATOM     24  C   UNL     1       0.676  10.306  20.147  0.00  0.00    +0.000 C 
ATOM     25  O   UNL     1       1.283  11.368  20.255  0.00  0.00    +0.000 OA
BRANCH  24  29
ATOM     26  C   UNL     1       2.859   7.092  18.313  0.00  0.00    +0.000 A 
ATOM     27  C   UNL     1       2.426   6.965  19.636  0.00  0.00    +0.000 A 
ATOM     28  C   UNL     1       1.675   7.984  20.232  0.00  0.00    +0.000 A 
ATOM     29  C   UNL     1       1.365   9.145  19.510  0.00  0.00    +0.000 A 
ATOM     30  C   UNL     1       1.773   9.257  18.176  0.00  0.00    +0.000 A 
ATOM     31  C   UNL     1       2.514   8.230  17.577  0.00  0.00    +0.000 A 
BRANCH  26  33
ATOM     32  N   UNL     1       4.351   5.242  17.276  0.00  0.00    +0.000 NA
ATOM     33  C   UNL     1       3.676   6.073  17.732  0.00  0.00    +0.000 C 
ENDBRANCH  26  33
ENDBRANCH  24  29
ENDBRANCH  23  24
ENDBRANCH   1  23
TORSDOF 7
ENDMDL
MODEL 4
REMARK VINA RESULT:      -7.6      5.244     10.678
REMARK  Name = 
REMARK  7 active torsions:
REMARK  status: ('A' for Active; 'I' for Inactive)
REMARK    1  A    between atoms: C_2  and  C_3
REMARK    2  A    between atoms: C_6  and  C_7
REMARK    3  A    between atoms: C_7  and  C_9
REMARK    4  A    between atoms: C_9  and  N_10
REMARK    5  A    between atoms: C_11  and  C_12
REMARK    6  A    between atoms: C_12  and  C_14
REMARK    7  A    between atoms: C_20  and  O_21
REMARK                            x       y       z     vdW  Elec       q    Type
REMARK                         _______ _______ _______ _____ _____    ______ ____
ROOT
ATOM      1  N   UNL     1      -1.455  11.339  20.993  0.00  0.00    +0.000 N 
ATOM      2  C   UNL     1      -2.132  12.170  20.040  0.00  0.00    +0.000 C 
ATOM      3  C   UNL     1      -3.282  12.753  20.457  0.00  0.00    +0.000 C 
ATOM      4  C   UNL     1      -3.752  12.712  21.871  0.00  0.00    +0.000 A 
ATOM      5  C   UNL     1      -5.075  13.029  22.224  0.00  0.00    +0.000 A 
ATOM      6  C   UNL     1      -5.491  12.991  23.564  0.00  0.00    +0.000 A 
ATOM      7  C   UNL     1      -4.598  12.638  24.576  0.00  0.00    +0.000 A 
ATOM      8  C   UNL     1      -3.279  12.338  24.258  0.00  0.00    +0.000 A 
ATOM      9  C   UNL     1      -2.875  12.400  22.920  0.00  0.00    +0.000 A 
ATOM     10  S   UNL     1      -1.217  12.058  22.493  0.00  0.00    +0.000 S 
ATOM     11  O   UNL     1      -0.550  13.328  22.286  0.00  0.00    +0.000 OA
ATOM     12  O   UNL     1      -0.667  11.079  23.400  0.00  0.00    +0.000 OA
ENDROOT
BRANCH   2  13
ATOM     13  C   UNL     1      -1.651  12.322  18.619  0.00  0.00    +0.000 C 
ATOM     14  O   UNL     1      -0.831  13.195  18.332  0.00  0.00    +0.000 OA
BRANCH  13  15
ATOM     15  C   UNL     1      -2.183  11.417  17.553  0.00  0.00    +0.000 A 
ATOM     16  C   UNL     1      -3.404  11.734  16.943  0.00  0.00    +0.000 A 
ATOM     17  C   UNL     1      -3.993  10.839  16.043  0.00  0.00    +0.000 A 
ATOM     18  C   UNL     1      -3.371   9.625  15.748  0.00  0.00    +0.000 A 
ATOM     19  C   UNL     1      -2.137   9.325  16.315  0.00  0.00    +0.000 A 
ATOM     20  C   UNL     1      -1.530  10.236  17.181  0.00  0.00    +0.000 A 
ENDBRANCH  13  15
ENDBRANCH   2  13
BRANCH   3  21
ATOM     21  O   UNL     1      -4.130  13.445  19.602  0.00  0.00    +0.000 OA
ATOM     22  H   UNL     1      -4.964  13.646  20.083  0.00  0.00    +0.000 HD
ENDBRANCH   3  21
BRANCH   1  23
ATOM     23  C   UNL     1      -0.714  10.124  20.644  0.00  0.00    +0.000 C 
BRANCH  23  24
ATOM     24  C   UNL     1       0.705  10.368  20.179  0.00  0.00    +0.000 C 
ATOM     25  O   UNL     1       1.289  11.442  20.292  0.00  0.00    +0.000 OA
BRANCH  24  29
ATOM     26  C   UNL     1       2.612   6.914  18.480  0.00  0.00    +0.000 A 
ATOM     27  C   UNL     1       2.409   8.048  17.690  0.00  0.00    +0.000 A 
ATOM     28  C   UNL     1       1.831   9.196  18.241  0.00  0.00    +0.000 A 
ATOM     29  C   UNL     1       1.437   9.210  19.586  0.00  0.00    +0.000 A 
ATOM     30  C   UNL     1       1.669   8.084  20.384  0.00  0.00    +0.000 A 
ATOM     31  C   UNL     1       2.259   6.939  19.833  0.00  0.00    +0.000 A 
BRANCH  26  33
ATOM     32  N   UNL     1       3.587   4.751  17.433  0.00  0.00    +0.000 NA
ATOM     33  C   UNL     1       3.148   5.726  17.893  0.00  0.00    +0.000 C 
ENDBRANCH  26  33
ENDBRANCH  24  29
ENDBRANCH  23  24
ENDBRANCH   1  23
TORSDOF 7
ENDMDL
MODEL 5
REMARK VINA RESULT:      -7.6      1.540      5.258
REMARK  Name = 
REMARK  7 active torsions:
REMARK  status: ('A' for Active; 'I' for Inactive)
REMARK    1  A    between atoms: C_2  and  C_3
REMARK    2  A    between atoms: C_6  and  C_7
REMARK    3  A    between atoms: C_7  and  C_9
REMARK    4  A    between atoms: C_9  and  N_10
REMARK    5  A    between atoms: C_11  and  C_12
REMARK    6  A    between atoms: C_12  and  C_14
REMARK    7  A    between atoms: C_20  and  O_21
REMARK                            x       y       z     vdW  Elec       q    Type
REMARK                         _______ _______ _______ _____ _____    ______ ____
ROOT
ATOM      1  N   UNL     1       3.567   4.721  17.562  0.00  0.00    +0.000 N 
ATOM      2  C   UNL     1       4.744   4.093  18.092  0.00  0.00    +0.000 C 
ATOM      3  C   UNL     1       4.598   3.426  19.262  0.00  0.00    +0.000 C 
ATOM      4  C   UNL     1       3.273   3.175  19.899  0.00  0.00    +0.000 A 
ATOM      5  C   UNL     1       3.158   2.780  21.243  0.00  0.00    +0.000 A 
ATOM      6  C   UNL     1       1.899   2.542  21.816  0.00  0.00    +0.000 A 
ATOM      7  C   UNL     1       0.735   2.692  21.064  0.00  0.00    +0.000 A 
ATOM      8  C   UNL     1       0.820   3.064  19.727  0.00  0.00    +0.000 A 
ATOM      9  C   UNL     1       2.083   3.278  19.165  0.00  0.00    +0.000 A 
ATOM     10  S   UNL     1       2.224   3.717  17.481  0.00  0.00    +0.000 S 
ATOM     11  O   UNL     1       2.595   2.521  16.749  0.00  0.00    +0.000 OA
ATOM     12  O   UNL     1       1.078   4.497  17.077  0.00  0.00    +0.000 OA
ENDROOT
BRANCH   2  13
ATOM     13  C   UNL     1       6.096   4.236  17.439  0.00  0.00    +0.000 C 
ATOM     14  O   UNL     1       7.113   4.307  18.128  0.00  0.00    +0.000 OA
BRANCH  13  15
ATOM     15  C   UNL     1       6.197   4.307  15.947  0.00  0.00    +0.000 A 
ATOM     16  C   UNL     1       5.412   3.443  15.173  0.00  0.00    +0.000 A 
ATOM     17  C   UNL     1       5.584   3.389  13.785  0.00  0.00    +0.000 A 
ATOM     18  C   UNL     1       6.539   4.194  13.163  0.00  0.00    +0.000 A 
ATOM     19  C   UNL     1       7.290   5.087  13.920  0.00  0.00    +0.000 A 
ATOM     20  C   UNL     1       7.090   5.169  15.300  0.00  0.00    +0.000 A 
ENDBRANCH  13  15
ENDBRANCH   2  13
BRANCH   3  21
ATOM     21  O   UNL     1       5.672   2.912  19.977  0.00  0.00    +0.000 OA
ATOM     22  H   UNL     1       5.482   1.973  20.196  0.00  0.00    +0.000 HD
ENDBRANCH   3  21
BRANCH   1  23
ATOM     23  C   UNL     1       3.573   5.990  16.828  0.00  0.00    +0.000 C 
BRANCH  23  24
ATOM     24  C   UNL     1       3.938   7.195  17.666  0.00  0.00    +0.000 C 
ATOM     25  O   UNL     1       5.082   7.628  17.785  0.00  0.00    +0.000 OA
BRANCH  24  29
ATOM     26  C   UNL     1       0.885   9.340  19.794  0.00  0.00    +0.000 A 
ATOM     27  C   UNL     1       1.286   9.784  18.532  0.00  0.00    +0.000 A 
ATOM     28  C   UNL     1       2.247   9.070  17.807  0.00  0.00    +0.000 A 
ATOM     29  C   UNL     1       2.823   7.913  18.350  0.00  0.00    +0.000 A 
ATOM     30  C   UNL     1       2.397   7.453  19.602  0.00  0.00    +0.000 A 
ATOM     31  C   UNL     1       1.426   8.163  20.320  0.00  0.00    +0.000 A 
BRANCH  26  33
ATOM     32  N   UNL     1      -0.813  10.748  21.157  0.00  0.00    +0.000 NA
ATOM     33  C   UNL     1      -0.053  10.108  20.552  0.00  0.00    +0.000 C 
ENDBRANCH  26  33
ENDBRANCH  24  29
ENDBRANCH  23  24
ENDBRANCH   1  23
TORSDOF 7
ENDMDL
MODEL 6
REMARK VINA RESULT:      -7.5      2.161      5.313
REMARK  Name = 
REMARK  7 active torsions:
REMARK  status: ('A' for Active; 'I' for Inactive)
REMARK    1  A    between atoms: C_2  and  C_3
REMARK    2  A    between atoms: C_6  and  C_7
REMARK    3  A    between atoms: C_7  and  C_9
REMARK    4  A    between atoms: C_9  and  N_10
REMARK    5  A    between atoms: C_11  and  C_12
REMARK    6  A    between atoms: C_12  and  C_14
REMARK    7  A    between atoms: C_20  and  O_21
REMARK                            x       y       z     vdW  Elec       q    Type
REMARK                         _______ _______ _______ _____ _____    ______ ____
ROOT
ATOM      1  N   UNL     1       3.312   4.861  17.546  0.00  0.00    +0.000 N 
ATOM      2  C   UNL     1       4.545   4.238  17.936  0.00  0.00    +0.000 C 
ATOM      3  C   UNL     1       4.524   3.528  19.091  0.00  0.00    +0.000 C 
ATOM      4  C   UNL     1       3.271   3.230  19.843  0.00  0.00    +0.000 A 
ATOM      5  C   UNL     1       3.293   2.788  21.177  0.00  0.00    +0.000 A 
ATOM      6  C   UNL     1       2.100   2.507  21.861  0.00  0.00    +0.000 A 
ATOM      7  C   UNL     1       0.866   2.660  21.230  0.00  0.00    +0.000 A 
ATOM      8  C   UNL     1       0.815   3.079  19.906  0.00  0.00    +0.000 A 
ATOM      9  C   UNL     1       2.014   3.336  19.232  0.00  0.00    +0.000 A 
ATOM     10  S   UNL     1       1.983   3.834  17.559  0.00  0.00    +0.000 S 
ATOM     11  O   UNL     1       2.300   2.671  16.753  0.00  0.00    +0.000 OA
ATOM     12  O   UNL     1       0.792   4.605  17.296  0.00  0.00    +0.000 OA
ENDROOT
BRANCH   2  13
ATOM     13  C   UNL     1       5.824   4.429  17.161  0.00  0.00    +0.000 C 
ATOM     14  O   UNL     1       6.091   3.690  16.213  0.00  0.00    +0.000 OA
BRANCH  13  15
ATOM     15  C   UNL     1       6.778   5.512  17.556  0.00  0.00    +0.000 A 
ATOM     16  C   UNL     1       7.410   5.437  18.804  0.00  0.00    +0.000 A 
ATOM     17  C   UNL     1       8.199   6.500  19.258  0.00  0.00    +0.000 A 
ATOM     18  C   UNL     1       8.359   7.642  18.474  0.00  0.00    +0.000 A 
ATOM     19  C   UNL     1       7.772   7.705  17.215  0.00  0.00    +0.000 A 
ATOM     20  C   UNL     1       7.018   6.628  16.744  0.00  0.00    +0.000 A 
ENDBRANCH  13  15
ENDBRANCH   2  13
BRANCH   3  21
ATOM     21  O   UNL     1       5.670   3.012  19.679  0.00  0.00    +0.000 OA
ATOM     22  H   UNL     1       6.122   3.733  20.172  0.00  0.00    +0.000 HD
ENDBRANCH   3  21
BRANCH   1  23
ATOM     23  C   UNL     1       3.226   6.153  16.861  0.00  0.00    +0.000 C 
BRANCH  23  24
ATOM     24  C   UNL     1       3.537   7.347  17.736  0.00  0.00    +0.000 C 
ATOM     25  O   UNL     1       4.552   8.030  17.631  0.00  0.00    +0.000 OA
BRANCH  24  29
ATOM     26  C   UNL     1       0.781   8.487  20.828  0.00  0.00    +0.000 A 
ATOM     27  C   UNL     1       0.924   9.298  19.699  0.00  0.00    +0.000 A 
ATOM     28  C   UNL     1       1.784   8.917  18.663  0.00  0.00    +0.000 A 
ATOM     29  C   UNL     1       2.518   7.726  18.759  0.00  0.00    +0.000 A 
ATOM     30  C   UNL     1       2.349   6.900  19.876  0.00  0.00    +0.000 A 
ATOM     31  C   UNL     1       1.479   7.278  20.906  0.00  0.00    +0.000 A 
BRANCH  26  33
ATOM     32  N   UNL     1      -0.718   9.259  22.799  0.00  0.00    +0.000 NA
ATOM     33  C   UNL     1      -0.054   8.913  21.907  0.00  0.00    +0.000 C 
ENDBRANCH  26  33
ENDBRANCH  24  29
ENDBRANCH  23  24
ENDBRANCH   1  23
TORSDOF 7
ENDMDL
MODEL 7
REMARK VINA RESULT:      -7.4      7.279     10.795
REMARK  Name = 
REMARK  7 active torsions:
REMARK  status: ('A' for Active; 'I' for Inactive)
REMARK    1  A    between atoms: C_2  and  C_3
REMARK    2  A    between atoms: C_6  and  C_7
REMARK    3  A    between atoms: C_7  and  C_9
REMARK    4  A    between atoms: C_9  and  N_10
REMARK    5  A    between atoms: C_11  and  C_12
REMARK    6  A    between atoms: C_12  and  C_14
REMARK    7  A    between atoms: C_20  and  O_21
REMARK                            x       y       z     vdW  Elec       q    Type
REMARK                         _______ _______ _______ _____ _____    ______ ____
ROOT
ATOM      1  N   UNL     1      -2.072  12.784  20.972  0.00  0.00    +0.000 N 
ATOM      2  C   UNL     1      -1.992  12.133  22.249  0.00  0.00    +0.000 C 
ATOM      3  C   UNL     1      -1.188  11.046  22.324  0.00  0.00    +0.000 C 
ATOM      4  C   UNL     1      -0.277  10.627  21.220  0.00  0.00    +0.000 A 
ATOM      5  C   UNL     1       0.297   9.345  21.176  0.00  0.00    +0.000 A 
ATOM      6  C   UNL     1       1.158   8.978  20.130  0.00  0.00    +0.000 A 
ATOM      7  C   UNL     1       1.464   9.880  19.111  0.00  0.00    +0.000 A 
ATOM      8  C   UNL     1       0.925  11.161  19.139  0.00  0.00    +0.000 A 
ATOM      9  C   UNL     1       0.085  11.517  20.199  0.00  0.00    +0.000 A 
ATOM     10  S   UNL     1      -0.583  13.129  20.277  0.00  0.00    +0.000 S 
ATOM     11  O   UNL     1       0.203  13.879  21.237  0.00  0.00    +0.000 OA
ATOM     12  O   UNL     1      -0.794  13.640  18.944  0.00  0.00    +0.000 OA
ENDROOT
BRANCH   2  13
ATOM     13  C   UNL     1      -2.823  12.571  23.429  0.00  0.00    +0.000 C 
ATOM     14  O   UNL     1      -3.630  11.796  23.942  0.00  0.00    +0.000 OA
BRANCH  13  15
ATOM     15  C   UNL     1      -2.675  13.960  23.968  0.00  0.00    +0.000 A 
ATOM     16  C   UNL     1      -1.389  14.464  24.196  0.00  0.00    +0.000 A 
ATOM     17  C   UNL     1      -1.220  15.703  24.826  0.00  0.00    +0.000 A 
ATOM     18  C   UNL     1      -2.331  16.442  25.233  0.00  0.00    +0.000 A 
ATOM     19  C   UNL     1      -3.612  15.968  24.968  0.00  0.00    +0.000 A 
ATOM     20  C   UNL     1      -3.780  14.752  24.303  0.00  0.00    +0.000 A 
ENDBRANCH  13  15
ENDBRANCH   2  13
BRANCH   3  21
ATOM     21  O   UNL     1      -1.137  10.220  23.438  0.00  0.00    +0.000 OA
ATOM     22  H   UNL     1      -0.584   9.436  23.223  0.00  0.00    +0.000 HD
ENDBRANCH   3  21
BRANCH   1  23
ATOM     23  C   UNL     1      -3.284  13.420  20.449  0.00  0.00    +0.000 C 
BRANCH  23  24
ATOM     24  C   UNL     1      -4.320  12.452  19.920  0.00  0.00    +0.000 C 
ATOM     25  O   UNL     1      -5.390  12.219  20.477  0.00  0.00    +0.000 OA
BRANCH  24  29
ATOM     26  C   UNL     1      -3.410  10.725  16.094  0.00  0.00    +0.000 A 
ATOM     27  C   UNL     1      -2.576  10.464  17.183  0.00  0.00    +0.000 A 
ATOM     28  C   UNL     1      -2.884  10.982  18.446  0.00  0.00    +0.000 A 
ATOM     29  C   UNL     1      -4.024  11.779  18.621  0.00  0.00    +0.000 A 
ATOM     30  C   UNL     1      -4.875  12.013  17.535  0.00  0.00    +0.000 A 
ATOM     31  C   UNL     1      -4.571  11.483  16.275  0.00  0.00    +0.000 A 
BRANCH  26  33
ATOM     32  N   UNL     1      -2.748   9.847  13.745  0.00  0.00    +0.000 NA
ATOM     33  C   UNL     1      -3.055  10.242  14.796  0.00  0.00    +0.000 C 
ENDBRANCH  26  33
ENDBRANCH  24  29
ENDBRANCH  23  24
ENDBRANCH   1  23
TORSDOF 7
ENDMDL
MODEL 8
REMARK VINA RESULT:      -7.4      5.231     11.118
REMARK  Name = 
REMARK  7 active torsions:
REMARK  status: ('A' for Active; 'I' for Inactive)
REMARK    1  A    between atoms: C_2  and  C_3
REMARK    2  A    between atoms: C_6  and  C_7
REMARK    3  A    between atoms: C_7  and  C_9
REMARK    4  A    between atoms: C_9  and  N_10
REMARK    5  A    between atoms: C_11  and  C_12
REMARK    6  A    between atoms: C_12  and  C_14
REMARK    7  A    between atoms: C_20  and  O_21
REMARK                            x       y       z     vdW  Elec       q    Type
REMARK                         _______ _______ _______ _____ _____    ______ ____
ROOT
ATOM      1  N   UNL     1      -1.448  11.307  21.133  0.00  0.00    +0.000 N 
ATOM      2  C   UNL     1      -1.925  12.334  20.252  0.00  0.00    +0.000 C 
ATOM      3  C   UNL     1      -3.043  12.994  20.643  0.00  0.00    +0.000 C 
ATOM      4  C   UNL     1      -3.662  12.825  21.988  0.00  0.00    +0.000 A 
ATOM      5  C   UNL     1      -4.973  13.251  22.262  0.00  0.00    +0.000 A 
ATOM      6  C   UNL     1      -5.530  13.088  23.540  0.00  0.00    +0.000 A 
ATOM      7  C   UNL     1      -4.795  12.497  24.566  0.00  0.00    +0.000 A 
ATOM      8  C   UNL     1      -3.489  12.082  24.329  0.00  0.00    +0.000 A 
ATOM      9  C   UNL     1      -2.942  12.270  23.056  0.00  0.00    +0.000 A 
ATOM     10  S   UNL     1      -1.294  11.787  22.735  0.00  0.00    +0.000 S 
ATOM     11  O   UNL     1      -0.474  12.982  22.775  0.00  0.00    +0.000 OA
ATOM     12  O   UNL     1      -0.954  10.637  23.539  0.00  0.00    +0.000 OA
ENDROOT
BRANCH   2  13
ATOM     13  C   UNL     1      -1.281  12.613  18.917  0.00  0.00    +0.000 C 
ATOM     14  O   UNL     1      -1.744  12.118  17.889  0.00  0.00    +0.000 OA
BRANCH  13  15
ATOM     15  C   UNL     1      -0.066  13.484  18.845  0.00  0.00    +0.000 A 
ATOM     16  C   UNL     1       1.092  12.982  18.237  0.00  0.00    +0.000 A 
ATOM     17  C   UNL     1       2.282  13.717  18.276  0.00  0.00    +0.000 A 
ATOM     18  C   UNL     1       2.324  14.953  18.922  0.00  0.00    +0.000 A 
ATOM     19  C   UNL     1       1.167  15.478  19.487  0.00  0.00    +0.000 A 
ATOM     20  C   UNL     1      -0.030  14.763  19.413  0.00  0.00    +0.000 A 
ENDBRANCH  13  15
ENDBRANCH   2  13
BRANCH   3  21
ATOM     21  O   UNL     1      -3.714  13.892  19.824  0.00  0.00    +0.000 OA
ATOM     22  H   UNL     1      -3.320  14.784  19.947  0.00  0.00    +0.000 HD
ENDBRANCH   3  21
BRANCH   1  23
ATOM     23  C   UNL     1      -0.811  10.067  20.681  0.00  0.00    +0.000 C 
BRANCH  23  24
ATOM     24  C   UNL     1       0.694  10.148  20.552  0.00  0.00    +0.000 C 
ATOM     25  O   UNL     1       1.380  11.028  21.064  0.00  0.00    +0.000 OA
BRANCH  24  29
ATOM     26  C   UNL     1       2.844   7.145  18.358  0.00  0.00    +0.000 A 
ATOM     27  C   UNL     1       2.435   6.882  19.668  0.00  0.00    +0.000 A 
ATOM     28  C   UNL     1       1.695   7.832  20.379  0.00  0.00    +0.000 A 
ATOM     29  C   UNL     1       1.372   9.061  19.787  0.00  0.00    +0.000 A 
ATOM     30  C   UNL     1       1.756   9.310  18.464  0.00  0.00    +0.000 A 
ATOM     31  C   UNL     1       2.487   8.353  17.750  0.00  0.00    +0.000 A 
BRANCH  26  33
ATOM     32  N   UNL     1       4.298   5.422  17.076  0.00  0.00    +0.000 NA
ATOM     33  C   UNL     1       3.651   6.194  17.661  0.00  0.00    +0.000 C 
ENDBRANCH  26  33
ENDBRANCH  24  29
ENDBRANCH  23  24
ENDBRANCH   1  23
TORSDOF 7
ENDMDL
MODEL 9
REMARK VINA RESULT:      -7.4      5.249     11.052
REMARK  Name = 
REMARK  7 active torsions:
REMARK  status: ('A' for Active; 'I' for Inactive)
REMARK    1  A    between atoms: C_2  and  C_3
REMARK    2  A    between atoms: C_6  and  C_7
REMARK    3  A    between atoms: C_7  and  C_9
REMARK    4  A    between atoms: C_9  and  N_10
REMARK    5  A    between atoms: C_11  and  C_12
REMARK    6  A    between atoms: C_12  and  C_14
REMARK    7  A    between atoms: C_20  and  O_21
REMARK                            x       y       z     vdW  Elec       q    Type
REMARK                         _______ _______ _______ _____ _____    ______ ____
ROOT
ATOM      1  N   UNL     1      -1.412  11.308  21.106  0.00  0.00    +0.000 N 
ATOM      2  C   UNL     1      -1.880  12.340  20.226  0.00  0.00    +0.000 C 
ATOM      3  C   UNL     1      -2.998  13.001  20.610  0.00  0.00    +0.000 C 
ATOM      4  C   UNL     1      -3.629  12.827  21.950  0.00  0.00    +0.000 A 
ATOM      5  C   UNL     1      -4.941  13.256  22.215  0.00  0.00    +0.000 A 
ATOM      6  C   UNL     1      -5.509  13.089  23.487  0.00  0.00    +0.000 A 
ATOM      7  C   UNL     1      -4.783  12.492  24.518  0.00  0.00    +0.000 A 
ATOM      8  C   UNL     1      -3.477  12.074  24.289  0.00  0.00    +0.000 A 
ATOM      9  C   UNL     1      -2.919  12.267  23.021  0.00  0.00    +0.000 A 
ATOM     10  S   UNL     1      -1.270  11.780  22.712  0.00  0.00    +0.000 S 
ATOM     11  O   UNL     1      -0.447  12.973  22.763  0.00  0.00    +0.000 OA
ATOM     12  O   UNL     1      -0.939  10.626  23.513  0.00  0.00    +0.000 OA
ENDROOT
BRANCH   2  13
ATOM     13  C   UNL     1      -1.225  12.622  18.897  0.00  0.00    +0.000 C 
ATOM     14  O   UNL     1      -1.704  12.165  17.859  0.00  0.00    +0.000 OA
BRANCH  13  15
ATOM     15  C   UNL     1       0.021  13.450  18.844  0.00  0.00    +0.000 A 
ATOM     16  C   UNL     1      -0.044  14.798  19.221  0.00  0.00    +0.000 A 
ATOM     17  C   UNL     1       1.068  15.630  19.052  0.00  0.00    +0.000 A 
ATOM     18  C   UNL     1       2.248  15.125  18.506  0.00  0.00    +0.000 A 
ATOM     19  C   UNL     1       2.335  13.777  18.172  0.00  0.00    +0.000 A 
ATOM     20  C   UNL     1       1.238  12.938  18.378  0.00  0.00    +0.000 A 
ENDBRANCH  13  15
ENDBRANCH   2  13
BRANCH   3  21
ATOM     21  O   UNL     1      -3.661  13.904  19.790  0.00  0.00    +0.000 OA
ATOM     22  H   UNL     1      -4.364  14.348  20.315  0.00  0.00    +0.000 HD
ENDBRANCH   3  21
BRANCH   1  23
ATOM     23  C   UNL     1      -0.775  10.068  20.653  0.00  0.00    +0.000 C 
BRANCH  23  24
ATOM     24  C   UNL     1       0.736  10.122  20.607  0.00  0.00    +0.000 C 
ATOM     25  O   UNL     1       1.408  11.007  21.130  0.00  0.00    +0.000 OA
BRANCH  24  29
ATOM     26  C   UNL     1       2.554   6.778  18.616  0.00  0.00    +0.000 A 
ATOM     27  C   UNL     1       2.320   7.958  17.906  0.00  0.00    +0.000 A 
ATOM     28  C   UNL     1       1.771   9.071  18.552  0.00  0.00    +0.000 A 
ATOM     29  C   UNL     1       1.437   9.003  19.912  0.00  0.00    +0.000 A 
ATOM     30  C   UNL     1       1.701   7.829  20.628  0.00  0.00    +0.000 A 
ATOM     31  C   UNL     1       2.262   6.721  19.982  0.00  0.00    +0.000 A 
BRANCH  26  33
ATOM     32  N   UNL     1       3.474   4.702  17.363  0.00  0.00    +0.000 NA
ATOM     33  C   UNL     1       3.059   5.627  17.934  0.00  0.00    +0.000 C 
ENDBRANCH  26  33
ENDBRANCH  24  29
ENDBRANCH  23  24
ENDBRANCH   1  23
TORSDOF 7
ENDMDL
