MODEL 1
REMARK VINA RESULT:      -5.9      0.000      0.000
REMARK  Name = 
REMARK  3 active torsions:
REMARK  status: ('A' for Active; 'I' for Inactive)
REMARK    1  A    between atoms: N_3  and  C_4
REMARK    2  A    between atoms: C_4  and  C_5
REMARK    3  A    between atoms: C_5  and  C_6
REMARK                            x       y       z     vdW  Elec       q    Type
REMARK                         _______ _______ _______ _____ _____    ______ ____
ROOT
ATOM      1  C   UNL     1       4.141   4.272  17.070  0.00  0.00    +0.000 A 
ATOM      2  C   UNL     1       3.671   5.439  17.692  0.00  0.00    +0.000 A 
ATOM      3  C   UNL     1       2.657   5.382  18.652  0.00  0.00    +0.000 A 
ATOM      4  C   UNL     1       2.087   4.159  18.987  0.00  0.00    +0.000 A 
ATOM      5 CL   UNL     1       0.831   4.095  20.159  0.00  0.00    +0.000 Cl
ATOM      6  C   UNL     1       2.524   2.991  18.368  0.00  0.00    +0.000 A 
ATOM      7  C   UNL     1       3.543   3.047  17.411  0.00  0.00    +0.000 A 
ENDROOT
BRANCH   1   8
ATOM      8  C   UNL     1       5.218   4.299  16.003  0.00  0.00    +0.000 C 
BRANCH   8   9
ATOM      9  C   UNL     1       6.638   4.530  16.530  0.00  0.00    +0.000 C 
BRANCH   9  12
ATOM     10  N   UNL     1       7.604   7.602  17.129  0.00  0.00    +0.000 NA
ATOM     11  N   UNL     1       7.448   6.671  16.491  0.00  0.00    +0.000 NA
ATOM     12  N   UNL     1       7.267   5.645  15.808  0.00  0.00    +0.000 NA
ENDBRANCH   9  12
ENDBRANCH   8   9
ENDBRANCH   1   8
TORSDOF 3
ENDMDL
MODEL 2
REMARK VINA RESULT:      -5.9      0.720      1.887
REMARK  Name = 
REMARK  3 active torsions:
REMARK  status: ('A' for Active; 'I' for Inactive)
REMARK    1  A    between atoms: N_3  and  C_4
REMARK    2  A    between atoms: C_4  and  C_5
REMARK    3  A    between atoms: C_5  and  C_6
REMARK                            x       y       z     vdW  Elec       q    Type
REMARK                         _______ _______ _______ _____ _____    ______ ____
ROOT
ATOM      1  C   UNL     1       4.147   4.143  17.093  0.00  0.00    +0.000 A 
ATOM      2  C   UNL     1       3.465   2.954  17.397  0.00  0.00    +0.000 A 
ATOM      3  C   UNL     1       2.441   2.936  18.347  0.00  0.00    +0.000 A 
ATOM      4  C   UNL     1       2.102   4.105  19.022  0.00  0.00    +0.000 A 
ATOM      5 CL   UNL     1       0.850   4.076  20.201  0.00  0.00    +0.000 Cl
ATOM      6  C   UNL     1       2.779   5.290  18.752  0.00  0.00    +0.000 A 
ATOM      7  C   UNL     1       3.799   5.309  17.796  0.00  0.00    +0.000 A 
ENDROOT
BRANCH   1   8
ATOM      8  C   UNL     1       5.283   4.192  16.090  0.00  0.00    +0.000 C 
BRANCH   8   9
ATOM      9  C   UNL     1       6.660   4.485  16.694  0.00  0.00    +0.000 C 
BRANCH   9  12
ATOM     10  N   UNL     1       7.880   5.464  13.816  0.00  0.00    +0.000 NA
ATOM     11  N   UNL     1       7.567   5.588  14.905  0.00  0.00    +0.000 NA
ATOM     12  N   UNL     1       7.222   5.704  16.096  0.00  0.00    +0.000 NA
ENDBRANCH   9  12
ENDBRANCH   8   9
ENDBRANCH   1   8
TORSDOF 3
ENDMDL
MODEL 3
REMARK VINA RESULT:      -5.9      1.023      1.736
REMARK  Name = 
REMARK  3 active torsions:
REMARK  status: ('A' for Active; 'I' for Inactive)
REMARK    1  A    between atoms: N_3  and  C_4
REMARK    2  A    between atoms: C_4  and  C_5
REMARK    3  A    between atoms: C_5  and  C_6
REMARK                            x       y       z     vdW  Elec       q    Type
REMARK                         _______ _______ _______ _____ _____    ______ ____
ROOT
ATOM      1  C   UNL     1       3.836   5.173  17.311  0.00  0.00    +0.000 A 
ATOM      2  C   UNL     1       3.873   3.807  16.992  0.00  0.00    +0.000 A 
ATOM      3  C   UNL     1       2.886   2.934  17.455  0.00  0.00    +0.000 A 
ATOM      4  C   UNL     1       1.858   3.415  18.260  0.00  0.00    +0.000 A 
ATOM      5 CL   UNL     1       0.651   2.335  18.838  0.00  0.00    +0.000 Cl
ATOM      6  C   UNL     1       1.812   4.762  18.606  0.00  0.00    +0.000 A 
ATOM      7  C   UNL     1       2.798   5.636  18.137  0.00  0.00    +0.000 A 
ENDROOT
BRANCH   1   8
ATOM      8  C   UNL     1       4.907   6.143  16.851  0.00  0.00    +0.000 C 
BRANCH   8   9
ATOM      9  C   UNL     1       5.796   5.625  15.715  0.00  0.00    +0.000 C 
BRANCH   9  12
ATOM     10  N   UNL     1       7.715   7.839  17.180  0.00  0.00    +0.000 NA
ATOM     11  N   UNL     1       7.483   6.856  16.652  0.00  0.00    +0.000 NA
ATOM     12  N   UNL     1       7.212   5.787  16.072  0.00  0.00    +0.000 NA
ENDBRANCH   9  12
ENDBRANCH   8   9
ENDBRANCH   1   8
TORSDOF 3
ENDMDL
MODEL 4
REMARK VINA RESULT:      -5.9      0.927      1.462
REMARK  Name = 
REMARK  3 active torsions:
REMARK  status: ('A' for Active; 'I' for Inactive)
REMARK    1  A    between atoms: N_3  and  C_4
REMARK    2  A    between atoms: C_4  and  C_5
REMARK    3  A    between atoms: C_5  and  C_6
REMARK                            x       y       z     vdW  Elec       q    Type
REMARK                         _______ _______ _______ _____ _____    ______ ____
ROOT
ATOM      1  C   UNL     1       4.462   4.279  17.212  0.00  0.00    +0.000 A 
ATOM      2  C   UNL     1       3.150   3.781  17.165  0.00  0.00    +0.000 A 
ATOM      3  C   UNL     1       2.247   4.039  18.199  0.00  0.00    +0.000 A 
ATOM      4  C   UNL     1       2.651   4.782  19.303  0.00  0.00    +0.000 A 
ATOM      5 CL   UNL     1       1.539   5.087  20.580  0.00  0.00    +0.000 Cl
ATOM      6  C   UNL     1       3.953   5.269  19.381  0.00  0.00    +0.000 A 
ATOM      7  C   UNL     1       4.855   5.015  18.343  0.00  0.00    +0.000 A 
ENDROOT
BRANCH   1   8
ATOM      8  C   UNL     1       5.478   3.993  16.123  0.00  0.00    +0.000 C 
BRANCH   8   9
ATOM      9  C   UNL     1       5.891   5.214  15.295  0.00  0.00    +0.000 C 
BRANCH   9  12
ATOM     10  N   UNL     1       7.549   7.423  17.056  0.00  0.00    +0.000 NA
ATOM     11  N   UNL     1       7.434   6.534  16.352  0.00  0.00    +0.000 NA
ATOM     12  N   UNL     1       7.289   5.566  15.583  0.00  0.00    +0.000 NA
ENDBRANCH   9  12
ENDBRANCH   8   9
ENDBRANCH   1   8
TORSDOF 3
ENDMDL
MODEL 5
REMARK VINA RESULT:      -5.9      1.047      1.797
REMARK  Name = 
REMARK  3 active torsions:
REMARK  status: ('A' for Active; 'I' for Inactive)
REMARK    1  A    between atoms: N_3  and  C_4
REMARK    2  A    between atoms: C_4  and  C_5
REMARK    3  A    between atoms: C_5  and  C_6
REMARK                            x       y       z     vdW  Elec       q    Type
REMARK                         _______ _______ _______ _____ _____    ______ ____
ROOT
ATOM      1  C   UNL     1       3.979   4.300  17.055  0.00  0.00    +0.000 A 
ATOM      2  C   UNL     1       2.987   3.312  17.153  0.00  0.00    +0.000 A 
ATOM      3  C   UNL     1       2.054   3.331  18.193  0.00  0.00    +0.000 A 
ATOM      4  C   UNL     1       2.116   4.329  19.160  0.00  0.00    +0.000 A 
ATOM      5 CL   UNL     1       0.974   4.342  20.446  0.00  0.00    +0.000 Cl
ATOM      6  C   UNL     1       3.104   5.307  19.095  0.00  0.00    +0.000 A 
ATOM      7  C   UNL     1       4.034   5.290  18.050  0.00  0.00    +0.000 A 
ENDROOT
BRANCH   1   8
ATOM      8  C   UNL     1       5.026   4.293  15.957  0.00  0.00    +0.000 C 
BRANCH   8   9
ATOM      9  C   UNL     1       5.746   5.629  15.749  0.00  0.00    +0.000 C 
BRANCH   9  12
ATOM     10  N   UNL     1       7.973   4.449  17.841  0.00  0.00    +0.000 NA
ATOM     11  N   UNL     1       7.612   4.917  16.866  0.00  0.00    +0.000 NA
ATOM     12  N   UNL     1       7.201   5.430  15.809  0.00  0.00    +0.000 NA
ENDBRANCH   9  12
ENDBRANCH   8   9
ENDBRANCH   1   8
TORSDOF 3
ENDMDL
MODEL 6
REMARK VINA RESULT:      -5.9      1.033      1.224
REMARK  Name = 
REMARK  3 active torsions:
REMARK  status: ('A' for Active; 'I' for Inactive)
REMARK    1  A    between atoms: N_3  and  C_4
REMARK    2  A    between atoms: C_4  and  C_5
REMARK    3  A    between atoms: C_5  and  C_6
REMARK                            x       y       z     vdW  Elec       q    Type
REMARK                         _______ _______ _______ _____ _____    ______ ____
ROOT
ATOM      1  C   UNL     1       4.000   4.148  17.012  0.00  0.00    +0.000 A 
ATOM      2  C   UNL     1       3.516   5.313  17.627  0.00  0.00    +0.000 A 
ATOM      3  C   UNL     1       2.532   5.248  18.617  0.00  0.00    +0.000 A 
ATOM      4  C   UNL     1       2.006   4.015  18.991  0.00  0.00    +0.000 A 
ATOM      5 CL   UNL     1       0.787   3.940  20.201  0.00  0.00    +0.000 Cl
ATOM      6  C   UNL     1       2.457   2.848  18.380  0.00  0.00    +0.000 A 
ATOM      7  C   UNL     1       3.445   2.915  17.393  0.00  0.00    +0.000 A 
ENDROOT
BRANCH   1   8
ATOM      8  C   UNL     1       5.044   4.185  15.913  0.00  0.00    +0.000 C 
BRANCH   8   9
ATOM      9  C   UNL     1       5.635   5.571  15.637  0.00  0.00    +0.000 C 
BRANCH   9  12
ATOM     10  N   UNL     1       8.096   4.273  17.365  0.00  0.00    +0.000 NA
ATOM     11  N   UNL     1       7.629   4.854  16.502  0.00  0.00    +0.000 NA
ATOM     12  N   UNL     1       7.101   5.487  15.569  0.00  0.00    +0.000 NA
ENDBRANCH   9  12
ENDBRANCH   8   9
ENDBRANCH   1   8
TORSDOF 3
ENDMDL
MODEL 7
REMARK VINA RESULT:      -5.9      1.424      1.561
REMARK  Name = 
REMARK  3 active torsions:
REMARK  status: ('A' for Active; 'I' for Inactive)
REMARK    1  A    between atoms: N_3  and  C_4
REMARK    2  A    between atoms: C_4  and  C_5
REMARK    3  A    between atoms: C_5  and  C_6
REMARK                            x       y       z     vdW  Elec       q    Type
REMARK                         _______ _______ _______ _____ _____    ______ ____
ROOT
ATOM      1  C   UNL     1       4.117   5.015  17.189  0.00  0.00    +0.000 A 
ATOM      2  C   UNL     1       3.058   5.594  17.905  0.00  0.00    +0.000 A 
ATOM      3  C   UNL     1       2.011   4.811  18.399  0.00  0.00    +0.000 A 
ATOM      4  C   UNL     1       2.002   3.440  18.164  0.00  0.00    +0.000 A 
ATOM      5 CL   UNL     1       0.706   2.481  18.763  0.00  0.00    +0.000 Cl
ATOM      6  C   UNL     1       3.032   2.847  17.439  0.00  0.00    +0.000 A 
ATOM      7  C   UNL     1       4.082   3.631  16.950  0.00  0.00    +0.000 A 
ENDROOT
BRANCH   1   8
ATOM      8  C   UNL     1       5.253   5.839  16.614  0.00  0.00    +0.000 C 
BRANCH   8   9
ATOM      9  C   UNL     1       5.894   5.253  15.351  0.00  0.00    +0.000 C 
BRANCH   9  12
ATOM     10  N   UNL     1       7.897   4.495  17.829  0.00  0.00    +0.000 NA
ATOM     11  N   UNL     1       7.634   4.748  16.749  0.00  0.00    +0.000 NA
ATOM     12  N   UNL     1       7.329   5.028  15.575  0.00  0.00    +0.000 NA
ENDBRANCH   9  12
ENDBRANCH   8   9
ENDBRANCH   1   8
TORSDOF 3
ENDMDL
MODEL 8
REMARK VINA RESULT:      -5.8      1.425      1.793
REMARK  Name = 
REMARK  3 active torsions:
REMARK  status: ('A' for Active; 'I' for Inactive)
REMARK    1  A    between atoms: N_3  and  C_4
REMARK    2  A    between atoms: C_4  and  C_5
REMARK    3  A    between atoms: C_5  and  C_6
REMARK                            x       y       z     vdW  Elec       q    Type
REMARK                         _______ _______ _______ _____ _____    ______ ____
ROOT
ATOM      1  C   UNL     1       4.006   3.840  17.469  0.00  0.00    +0.000 A 
ATOM      2  C   UNL     1       4.441   3.526  18.766  0.00  0.00    +0.000 A 
ATOM      3  C   UNL     1       3.524   3.304  19.797  0.00  0.00    +0.000 A 
ATOM      4  C   UNL     1       2.160   3.413  19.547  0.00  0.00    +0.000 A 
ATOM      5 CL   UNL     1       1.036   3.151  20.821  0.00  0.00    +0.000 Cl
ATOM      6  C   UNL     1       1.707   3.743  18.273  0.00  0.00    +0.000 A 
ATOM      7  C   UNL     1       2.625   3.960  17.240  0.00  0.00    +0.000 A 
ENDROOT
BRANCH   1   8
ATOM      8  C   UNL     1       4.972   4.118  16.334  0.00  0.00    +0.000 C 
BRANCH   8   9
ATOM      9  C   UNL     1       5.926   5.293  16.576  0.00  0.00    +0.000 C 
BRANCH   9  12
ATOM     10  N   UNL     1       7.782   5.510  13.887  0.00  0.00    +0.000 NA
ATOM     11  N   UNL     1       7.553   5.232  14.969  0.00  0.00    +0.000 NA
ATOM     12  N   UNL     1       7.285   4.934  16.147  0.00  0.00    +0.000 NA
ENDBRANCH   9  12
ENDBRANCH   8   9
ENDBRANCH   1   8
TORSDOF 3
ENDMDL
MODEL 9
REMARK VINA RESULT:      -5.8      1.289      1.553
REMARK  Name = 
REMARK  3 active torsions:
REMARK  status: ('A' for Active; 'I' for Inactive)
REMARK    1  A    between atoms: N_3  and  C_4
REMARK    2  A    between atoms: C_4  and  C_5
REMARK    3  A    between atoms: C_5  and  C_6
REMARK                            x       y       z     vdW  Elec       q    Type
REMARK                         _______ _______ _______ _____ _____    ______ ____
ROOT
ATOM      1  C   UNL     1       4.043   5.386  17.366  0.00  0.00    +0.000 A 
ATOM      2  C   UNL     1       3.488   6.165  18.394  0.00  0.00    +0.000 A 
ATOM      3  C   UNL     1       2.493   5.650  19.228  0.00  0.00    +0.000 A 
ATOM      4  C   UNL     1       2.026   4.354  19.031  0.00  0.00    +0.000 A 
ATOM      5 CL   UNL     1       0.792   3.728  20.052  0.00  0.00    +0.000 Cl
ATOM      6  C   UNL     1       2.547   3.571  18.005  0.00  0.00    +0.000 A 
ATOM      7  C   UNL     1       3.547   4.086  17.174  0.00  0.00    +0.000 A 
ENDROOT
BRANCH   1   8
ATOM      8  C   UNL     1       5.102   5.923  16.424  0.00  0.00    +0.000 C 
BRANCH   8   9
ATOM      9  C   UNL     1       6.532   5.884  16.975  0.00  0.00    +0.000 C 
BRANCH   9  12
ATOM     10  N   UNL     1       7.781   5.491  13.974  0.00  0.00    +0.000 NA
ATOM     11  N   UNL     1       7.570   5.199  15.055  0.00  0.00    +0.000 NA
ATOM     12  N   UNL     1       7.328   4.894  16.238  0.00  0.00    +0.000 NA
ENDBRANCH   9  12
ENDBRANCH   8   9
ENDBRANCH   1   8
TORSDOF 3
ENDMDL
