MODEL 1
REMARK VINA RESULT:      -7.4      0.000      0.000
REMARK  Name = 
REMARK  5 active torsions:
REMARK  status: ('A' for Active; 'I' for Inactive)
REMARK    1  A    between atoms: C_1  and  C_2
REMARK    2  A    between atoms: C_2  and  O_3
REMARK    3  A    between atoms: O_3  and  C_4
REMARK    4  A    between atoms: C_4  and  C_6
REMARK    5  A    between atoms: C_9  and  C_10
REMARK                            x       y       z     vdW  Elec       q    Type
REMARK                         _______ _______ _______ _____ _____    ______ ____
ROOT
ATOM      1  C   UNL     1       6.188   4.392  15.840  0.00  0.00    +0.000 A 
ATOM      2  C   UNL     1       4.855   3.973  15.962  0.00  0.00    +0.000 A 
ATOM      3  C   UNL     1       4.254   3.885  17.213  0.00  0.00    +0.000 A 
ATOM      4  C   UNL     1       4.982   4.192  18.374  0.00  0.00    +0.000 A 
ATOM      5  C   UNL     1       6.313   4.629  18.254  0.00  0.00    +0.000 A 
ATOM      6  C   UNL     1       6.909   4.738  16.994  0.00  0.00    +0.000 A 
ENDROOT
BRANCH   4   7
ATOM      7  C   UNL     1       4.344   4.053  19.737  0.00  0.00    +0.000 C 
ATOM      8  C   UNL     1       3.732   2.631  19.882  0.00  0.00    +0.000 C 
ATOM      9  C   UNL     1       2.882   2.563  21.148  0.00  0.00    +0.000 C 
ATOM     10  C   UNL     1       1.675   3.520  21.041  0.00  0.00    +0.000 C 
ATOM     11  C   UNL     1       2.108   4.854  20.510  0.00  0.00    +0.000 A 
ATOM     12  C   UNL     1       1.399   6.034  20.493  0.00  0.00    +0.000 A 
ATOM     13  N   UNL     1       2.175   6.999  19.951  0.00  0.00    +0.000 NA
ATOM     14  C   UNL     1       3.333   6.383  19.635  0.00  0.00    +0.000 A 
ATOM     15  N   UNL     1       3.306   5.069  19.942  0.00  0.00    +0.000 N 
ENDBRANCH   4   7
BRANCH   1  16
ATOM     16  C   UNL     1       6.797   4.459  14.499  0.00  0.00    +0.000 C 
ATOM     17  O   UNL     1       7.601   5.339  14.219  0.00  0.00    +0.000 OA
BRANCH  16  18
ATOM     18  O   UNL     1       6.475   3.499  13.595  0.00  0.00    +0.000 OA
BRANCH  18  20
ATOM     19  C   UNL     1       4.961   3.316  11.800  0.00  0.00    +0.000 C 
ATOM     20  C   UNL     1       6.371   3.683  12.237  0.00  0.00    +0.000 C 
ENDBRANCH  18  20
ENDBRANCH  16  18
ENDBRANCH   1  16
TORSDOF 4
ENDMDL
MODEL 2
REMARK VINA RESULT:      -7.2      0.330      1.127
REMARK  Name = 
REMARK  5 active torsions:
REMARK  status: ('A' for Active; 'I' for Inactive)
REMARK    1  A    between atoms: C_1  and  C_2
REMARK    2  A    between atoms: C_2  and  O_3
REMARK    3  A    between atoms: O_3  and  C_4
REMARK    4  A    between atoms: C_4  and  C_6
REMARK    5  A    between atoms: C_9  and  C_10
REMARK                            x       y       z     vdW  Elec       q    Type
REMARK                         _______ _______ _______ _____ _____    ______ ____
ROOT
ATOM      1  C   UNL     1       6.103   4.535  15.811  0.00  0.00    +0.000 A 
ATOM      2  C   UNL     1       6.791   4.979  16.950  0.00  0.00    +0.000 A 
ATOM      3  C   UNL     1       6.257   4.784  18.219  0.00  0.00    +0.000 A 
ATOM      4  C   UNL     1       5.010   4.158  18.377  0.00  0.00    +0.000 A 
ATOM      5  C   UNL     1       4.326   3.696  17.239  0.00  0.00    +0.000 A 
ATOM      6  C   UNL     1       4.873   3.874  15.965  0.00  0.00    +0.000 A 
ENDROOT
BRANCH   4   7
ATOM      7  C   UNL     1       4.408   3.986  19.753  0.00  0.00    +0.000 C 
ATOM      8  C   UNL     1       3.889   2.529  19.914  0.00  0.00    +0.000 C 
ATOM      9  C   UNL     1       3.069   2.415  21.197  0.00  0.00    +0.000 C 
ATOM     10  C   UNL     1       1.803   3.293  21.110  0.00  0.00    +0.000 C 
ATOM     11  C   UNL     1       2.142   4.650  20.566  0.00  0.00    +0.000 A 
ATOM     12  C   UNL     1       1.360   5.783  20.559  0.00  0.00    +0.000 A 
ATOM     13  N   UNL     1       2.064   6.792  19.999  0.00  0.00    +0.000 NA
ATOM     14  C   UNL     1       3.252   6.248  19.663  0.00  0.00    +0.000 A 
ATOM     15  N   UNL     1       3.312   4.937  19.974  0.00  0.00    +0.000 N 
ENDBRANCH   4   7
BRANCH   1  16
ATOM     16  C   UNL     1       6.691   4.772  14.481  0.00  0.00    +0.000 C 
ATOM     17  O   UNL     1       7.794   5.292  14.366  0.00  0.00    +0.000 OA
BRANCH  16  18
ATOM     18  O   UNL     1       5.999   4.363  13.387  0.00  0.00    +0.000 OA
BRANCH  18  20
ATOM     19  C   UNL     1       5.298   2.838  11.735  0.00  0.00    +0.000 C 
ATOM     20  C   UNL     1       6.476   3.527  12.406  0.00  0.00    +0.000 C 
ENDBRANCH  18  20
ENDBRANCH  16  18
ENDBRANCH   1  16
TORSDOF 4
ENDMDL
MODEL 3
REMARK VINA RESULT:      -7.2      1.619      2.458
REMARK  Name = 
REMARK  5 active torsions:
REMARK  status: ('A' for Active; 'I' for Inactive)
REMARK    1  A    between atoms: C_1  and  C_2
REMARK    2  A    between atoms: C_2  and  O_3
REMARK    3  A    between atoms: O_3  and  C_4
REMARK    4  A    between atoms: C_4  and  C_6
REMARK    5  A    between atoms: C_9  and  C_10
REMARK                            x       y       z     vdW  Elec       q    Type
REMARK                         _______ _______ _______ _____ _____    ______ ____
ROOT
ATOM      1  C   UNL     1       5.790   4.938  15.466  0.00  0.00    +0.000 A 
ATOM      2  C   UNL     1       5.290   6.229  15.691  0.00  0.00    +0.000 A 
ATOM      3  C   UNL     1       4.292   6.446  16.634  0.00  0.00    +0.000 A 
ATOM      4  C   UNL     1       3.756   5.371  17.361  0.00  0.00    +0.000 A 
ATOM      5  C   UNL     1       4.267   4.079  17.152  0.00  0.00    +0.000 A 
ATOM      6  C   UNL     1       5.285   3.864  16.218  0.00  0.00    +0.000 A 
ENDROOT
BRANCH   4   7
ATOM      7  C   UNL     1       2.640   5.600  18.356  0.00  0.00    +0.000 C 
ATOM      8  C   UNL     1       3.235   6.131  19.690  0.00  0.00    +0.000 C 
ATOM      9  C   UNL     1       2.155   6.134  20.770  0.00  0.00    +0.000 C 
ATOM     10  C   UNL     1       1.690   4.693  21.073  0.00  0.00    +0.000 C 
ATOM     11  C   UNL     1       1.462   3.936  19.798  0.00  0.00    +0.000 A 
ATOM     12  C   UNL     1       0.825   2.727  19.629  0.00  0.00    +0.000 A 
ATOM     13  N   UNL     1       0.815   2.422  18.312  0.00  0.00    +0.000 NA
ATOM     14  C   UNL     1       1.460   3.444  17.710  0.00  0.00    +0.000 A 
ATOM     15  N   UNL     1       1.886   4.365  18.599  0.00  0.00    +0.000 N 
ENDBRANCH   4   7
BRANCH   1  16
ATOM     16  C   UNL     1       6.836   4.742  14.447  0.00  0.00    +0.000 C 
ATOM     17  O   UNL     1       7.789   5.508  14.371  0.00  0.00    +0.000 OA
BRANCH  16  18
ATOM     18  O   UNL     1       6.739   3.670  13.620  0.00  0.00    +0.000 OA
BRANCH  18  20
ATOM     19  C   UNL     1       5.198   3.125  11.925  0.00  0.00    +0.000 C 
ATOM     20  C   UNL     1       6.555   3.725  12.259  0.00  0.00    +0.000 C 
ENDBRANCH  18  20
ENDBRANCH  16  18
ENDBRANCH   1  16
TORSDOF 4
ENDMDL
MODEL 4
REMARK VINA RESULT:      -6.8      1.676      2.452
REMARK  Name = 
REMARK  5 active torsions:
REMARK  status: ('A' for Active; 'I' for Inactive)
REMARK    1  A    between atoms: C_1  and  C_2
REMARK    2  A    between atoms: C_2  and  O_3
REMARK    3  A    between atoms: O_3  and  C_4
REMARK    4  A    between atoms: C_4  and  C_6
REMARK    5  A    between atoms: C_9  and  C_10
REMARK                            x       y       z     vdW  Elec       q    Type
REMARK                         _______ _______ _______ _____ _____    ______ ____
ROOT
ATOM      1  C   UNL     1       5.701   5.012  15.578  0.00  0.00    +0.000 A 
ATOM      2  C   UNL     1       5.017   3.903  16.098  0.00  0.00    +0.000 A 
ATOM      3  C   UNL     1       3.963   4.076  16.988  0.00  0.00    +0.000 A 
ATOM      4  C   UNL     1       3.583   5.365  17.396  0.00  0.00    +0.000 A 
ATOM      5  C   UNL     1       4.254   6.479  16.863  0.00  0.00    +0.000 A 
ATOM      6  C   UNL     1       5.300   6.305  15.952  0.00  0.00    +0.000 A 
ENDROOT
BRANCH   4   7
ATOM      7  C   UNL     1       2.467   5.553  18.399  0.00  0.00    +0.000 C 
ATOM      8  C   UNL     1       3.048   6.126  19.722  0.00  0.00    +0.000 C 
ATOM      9  C   UNL     1       1.978   6.091  20.811  0.00  0.00    +0.000 C 
ATOM     10  C   UNL     1       1.584   4.634  21.134  0.00  0.00    +0.000 C 
ATOM     11  C   UNL     1       1.379   3.853  19.870  0.00  0.00    +0.000 A 
ATOM     12  C   UNL     1       0.798   2.614  19.719  0.00  0.00    +0.000 A 
ATOM     13  N   UNL     1       0.791   2.294  18.406  0.00  0.00    +0.000 NA
ATOM     14  C   UNL     1       1.382   3.338  17.787  0.00  0.00    +0.000 A 
ATOM     15  N   UNL     1       1.773   4.287  18.662  0.00  0.00    +0.000 N 
ENDBRANCH   4   7
BRANCH   1  16
ATOM     16  C   UNL     1       6.823   4.790  14.649  0.00  0.00    +0.000 C 
ATOM     17  O   UNL     1       7.833   5.479  14.709  0.00  0.00    +0.000 OA
BRANCH  16  18
ATOM     18  O   UNL     1       6.726   3.777  13.750  0.00  0.00    +0.000 OA
BRANCH  18  20
ATOM     19  C   UNL     1       5.979   2.568  11.872  0.00  0.00    +0.000 C 
ATOM     20  C   UNL     1       6.421   3.917  12.418  0.00  0.00    +0.000 C 
ENDBRANCH  18  20
ENDBRANCH  16  18
ENDBRANCH   1  16
TORSDOF 4
ENDMDL
MODEL 5
REMARK VINA RESULT:      -6.7      3.001      4.565
REMARK  Name = 
REMARK  5 active torsions:
REMARK  status: ('A' for Active; 'I' for Inactive)
REMARK    1  A    between atoms: C_1  and  C_2
REMARK    2  A    between atoms: C_2  and  O_3
REMARK    3  A    between atoms: O_3  and  C_4
REMARK    4  A    between atoms: C_4  and  C_6
REMARK    5  A    between atoms: C_9  and  C_10
REMARK                            x       y       z     vdW  Elec       q    Type
REMARK                         _______ _______ _______ _____ _____    ______ ____
ROOT
ATOM      1  C   UNL     1       6.269   6.740  17.745  0.00  0.00    +0.000 A 
ATOM      2  C   UNL     1       6.150   5.765  18.747  0.00  0.00    +0.000 A 
ATOM      3  C   UNL     1       4.901   5.272  19.108  0.00  0.00    +0.000 A 
ATOM      4  C   UNL     1       3.739   5.759  18.488  0.00  0.00    +0.000 A 
ATOM      5  C   UNL     1       3.856   6.722  17.471  0.00  0.00    +0.000 A 
ATOM      6  C   UNL     1       5.114   7.202  17.094  0.00  0.00    +0.000 A 
ENDROOT
BRANCH   4   7
ATOM      7  C   UNL     1       2.377   5.255  18.911  0.00  0.00    +0.000 C 
ATOM      8  C   UNL     1       2.227   5.396  20.452  0.00  0.00    +0.000 C 
ATOM      9  C   UNL     1       0.964   4.673  20.914  0.00  0.00    +0.000 C 
ATOM     10  C   UNL     1       1.083   3.156  20.651  0.00  0.00    +0.000 C 
ATOM     11  C   UNL     1       1.620   2.903  19.273  0.00  0.00    +0.000 A 
ATOM     12  C   UNL     1       1.647   1.717  18.576  0.00  0.00    +0.000 A 
ATOM     13  N   UNL     1       2.191   1.941  17.358  0.00  0.00    +0.000 NA
ATOM     14  C   UNL     1       2.498   3.255  17.348  0.00  0.00    +0.000 A 
ATOM     15  N   UNL     1       2.184   3.856  18.514  0.00  0.00    +0.000 N 
ENDBRANCH   4   7
BRANCH   1  16
ATOM     16  C   UNL     1       7.607   7.251  17.399  0.00  0.00    +0.000 C 
ATOM     17  O   UNL     1       8.153   6.925  16.352  0.00  0.00    +0.000 OA
BRANCH  16  18
ATOM     18  O   UNL     1       8.204   8.125  18.249  0.00  0.00    +0.000 OA
BRANCH  18  20
ATOM     19  C   UNL     1       9.192  10.064  19.149  0.00  0.00    +0.000 C 
ATOM     20  C   UNL     1       8.304   9.482  18.060  0.00  0.00    +0.000 C 
ENDBRANCH  18  20
ENDBRANCH  16  18
ENDBRANCH   1  16
TORSDOF 4
ENDMDL
MODEL 6
REMARK VINA RESULT:      -6.7      4.678      7.104
REMARK  Name = 
REMARK  5 active torsions:
REMARK  status: ('A' for Active; 'I' for Inactive)
REMARK    1  A    between atoms: C_1  and  C_2
REMARK    2  A    between atoms: C_2  and  O_3
REMARK    3  A    between atoms: O_3  and  C_4
REMARK    4  A    between atoms: C_4  and  C_6
REMARK    5  A    between atoms: C_9  and  C_10
REMARK                            x       y       z     vdW  Elec       q    Type
REMARK                         _______ _______ _______ _____ _____    ______ ____
ROOT
ATOM      1  C   UNL     1       0.917   9.621  19.223  0.00  0.00    +0.000 A 
ATOM      2  C   UNL     1       1.149   8.851  20.373  0.00  0.00    +0.000 A 
ATOM      3  C   UNL     1       1.902   7.685  20.302  0.00  0.00    +0.000 A 
ATOM      4  C   UNL     1       2.423   7.249  19.073  0.00  0.00    +0.000 A 
ATOM      5  C   UNL     1       2.208   8.027  17.922  0.00  0.00    +0.000 A 
ATOM      6  C   UNL     1       1.468   9.211  17.998  0.00  0.00    +0.000 A 
ENDROOT
BRANCH   4   7
ATOM      7  C   UNL     1       3.204   5.957  18.987  0.00  0.00    +0.000 C 
ATOM      8  C   UNL     1       3.930   5.879  17.614  0.00  0.00    +0.000 C 
ATOM      9  C   UNL     1       4.518   4.483  17.422  0.00  0.00    +0.000 C 
ATOM     10  C   UNL     1       3.393   3.428  17.351  0.00  0.00    +0.000 C 
ATOM     11  C   UNL     1       2.383   3.664  18.435  0.00  0.00    +0.000 A 
ATOM     12  C   UNL     1       1.380   2.823  18.860  0.00  0.00    +0.000 A 
ATOM     13  N   UNL     1       0.719   3.416  19.880  0.00  0.00    +0.000 NA
ATOM     14  C   UNL     1       1.325   4.610  20.043  0.00  0.00    +0.000 A 
ATOM     15  N   UNL     1       2.325   4.795  19.156  0.00  0.00    +0.000 N 
ENDBRANCH   4   7
BRANCH   1  16
ATOM     16  C   UNL     1       0.101  10.844  19.332  0.00  0.00    +0.000 C 
ATOM     17  O   UNL     1       0.629  11.941  19.458  0.00  0.00    +0.000 OA
BRANCH  16  18
ATOM     18  O   UNL     1      -1.248  10.728  19.248  0.00  0.00    +0.000 OA
BRANCH  18  20
ATOM     19  C   UNL     1      -2.292   9.915  17.300  0.00  0.00    +0.000 C 
ATOM     20  C   UNL     1      -2.020  11.124  18.182  0.00  0.00    +0.000 C 
ENDBRANCH  18  20
ENDBRANCH  16  18
ENDBRANCH   1  16
TORSDOF 4
ENDMDL
MODEL 7
REMARK VINA RESULT:      -6.6      4.650      7.127
REMARK  Name = 
REMARK  5 active torsions:
REMARK  status: ('A' for Active; 'I' for Inactive)
REMARK    1  A    between atoms: C_1  and  C_2
REMARK    2  A    between atoms: C_2  and  O_3
REMARK    3  A    between atoms: O_3  and  C_4
REMARK    4  A    between atoms: C_4  and  C_6
REMARK    5  A    between atoms: C_9  and  C_10
REMARK                            x       y       z     vdW  Elec       q    Type
REMARK                         _______ _______ _______ _____ _____    ______ ____
ROOT
ATOM      1  C   UNL     1       0.948   9.570  19.419  0.00  0.00    +0.000 A 
ATOM      2  C   UNL     1       1.477   9.208  18.172  0.00  0.00    +0.000 A 
ATOM      3  C   UNL     1       2.210   8.035  18.030  0.00  0.00    +0.000 A 
ATOM      4  C   UNL     1       2.449   7.207  19.139  0.00  0.00    +0.000 A 
ATOM      5  C   UNL     1       1.904   7.558  20.386  0.00  0.00    +0.000 A 
ATOM      6  C   UNL     1       1.150   8.727  20.524  0.00  0.00    +0.000 A 
ENDROOT
BRANCH   4   7
ATOM      7  C   UNL     1       3.283   5.955  18.994  0.00  0.00    +0.000 C 
ATOM      8  C   UNL     1       4.051   5.996  17.643  0.00  0.00    +0.000 C 
ATOM      9  C   UNL     1       4.700   4.639  17.379  0.00  0.00    +0.000 C 
ATOM     10  C   UNL     1       3.621   3.548  17.204  0.00  0.00    +0.000 C 
ATOM     11  C   UNL     1       2.571   3.673  18.269  0.00  0.00    +0.000 A 
ATOM     12  C   UNL     1       1.591   2.769  18.606  0.00  0.00    +0.000 A 
ATOM     13  N   UNL     1       0.878   3.267  19.642  0.00  0.00    +0.000 NA
ATOM     14  C   UNL     1       1.430   4.470  19.901  0.00  0.00    +0.000 A 
ATOM     15  N   UNL     1       2.447   4.751  19.060  0.00  0.00    +0.000 N 
ENDBRANCH   4   7
BRANCH   1  16
ATOM     16  C   UNL     1       0.189  10.829  19.537  0.00  0.00    +0.000 C 
ATOM     17  O   UNL     1       0.138  11.434  20.600  0.00  0.00    +0.000 OA
BRANCH  16  18
ATOM     18  O   UNL     1      -0.419  11.321  18.428  0.00  0.00    +0.000 OA
BRANCH  18  20
ATOM     19  C   UNL     1      -2.186  10.058  17.518  0.00  0.00    +0.000 C 
ATOM     20  C   UNL     1      -1.775  11.351  18.207  0.00  0.00    +0.000 C 
ENDBRANCH  18  20
ENDBRANCH  16  18
ENDBRANCH   1  16
TORSDOF 4
ENDMDL
MODEL 8
REMARK VINA RESULT:      -6.6      4.539      7.529
REMARK  Name = 
REMARK  5 active torsions:
REMARK  status: ('A' for Active; 'I' for Inactive)
REMARK    1  A    between atoms: C_1  and  C_2
REMARK    2  A    between atoms: C_2  and  O_3
REMARK    3  A    between atoms: O_3  and  C_4
REMARK    4  A    between atoms: C_4  and  C_6
REMARK    5  A    between atoms: C_9  and  C_10
REMARK                            x       y       z     vdW  Elec       q    Type
REMARK                         _______ _______ _______ _____ _____    ______ ____
ROOT
ATOM      1  C   UNL     1       1.101   9.387  19.642  0.00  0.00    +0.000 A 
ATOM      2  C   UNL     1       1.555   9.046  18.359  0.00  0.00    +0.000 A 
ATOM      3  C   UNL     1       2.203   7.836  18.138  0.00  0.00    +0.000 A 
ATOM      4  C   UNL     1       2.432   6.948  19.201  0.00  0.00    +0.000 A 
ATOM      5  C   UNL     1       1.963   7.278  20.484  0.00  0.00    +0.000 A 
ATOM      6  C   UNL     1       1.293   8.486  20.702  0.00  0.00    +0.000 A 
ENDROOT
BRANCH   4   7
ATOM      7  C   UNL     1       3.176   5.652  18.969  0.00  0.00    +0.000 C 
ATOM      8  C   UNL     1       3.825   5.671  17.556  0.00  0.00    +0.000 C 
ATOM      9  C   UNL     1       4.368   4.284  17.220  0.00  0.00    +0.000 C 
ATOM     10  C   UNL     1       3.216   3.260  17.129  0.00  0.00    +0.000 C 
ATOM     11  C   UNL     1       2.272   3.427  18.283  0.00  0.00    +0.000 A 
ATOM     12  C   UNL     1       1.273   2.575  18.694  0.00  0.00    +0.000 A 
ATOM     13  N   UNL     1       0.683   3.096  19.794  0.00  0.00    +0.000 NA
ATOM     14  C   UNL     1       1.326   4.261  20.018  0.00  0.00    +0.000 A 
ATOM     15  N   UNL     1       2.280   4.497  19.094  0.00  0.00    +0.000 N 
ENDBRANCH   4   7
BRANCH   1  16
ATOM     16  C   UNL     1       0.432  10.685  19.844  0.00  0.00    +0.000 C 
ATOM     17  O   UNL     1      -0.080  11.279  18.904  0.00  0.00    +0.000 OA
BRANCH  16  18
ATOM     18  O   UNL     1       0.363  11.186  21.103  0.00  0.00    +0.000 OA
BRANCH  18  20
ATOM     19  C   UNL     1      -0.867  10.563  23.013  0.00  0.00    +0.000 C 
ATOM     20  C   UNL     1      -0.795  11.464  21.790  0.00  0.00    +0.000 C 
ENDBRANCH  18  20
ENDBRANCH  16  18
ENDBRANCH   1  16
TORSDOF 4
ENDMDL
MODEL 9
REMARK VINA RESULT:      -6.6      4.622      7.107
REMARK  Name = 
REMARK  5 active torsions:
REMARK  status: ('A' for Active; 'I' for Inactive)
REMARK    1  A    between atoms: C_1  and  C_2
REMARK    2  A    between atoms: C_2  and  O_3
REMARK    3  A    between atoms: O_3  and  C_4
REMARK    4  A    between atoms: C_4  and  C_6
REMARK    5  A    between atoms: C_9  and  C_10
REMARK                            x       y       z     vdW  Elec       q    Type
REMARK                         _______ _______ _______ _____ _____    ______ ____
ROOT
ATOM      1  C   UNL     1       1.113   9.386  19.005  0.00  0.00    +0.000 A 
ATOM      2  C   UNL     1       1.286   8.560  20.125  0.00  0.00    +0.000 A 
ATOM      3  C   UNL     1       2.124   7.452  20.064  0.00  0.00    +0.000 A 
ATOM      4  C   UNL     1       2.794   7.133  18.871  0.00  0.00    +0.000 A 
ATOM      5  C   UNL     1       2.638   7.968  17.752  0.00  0.00    +0.000 A 
ATOM      6  C   UNL     1       1.810   9.094  17.821  0.00  0.00    +0.000 A 
ENDROOT
BRANCH   4   7
ATOM      7  C   UNL     1       3.671   5.904  18.791  0.00  0.00    +0.000 C 
ATOM      8  C   UNL     1       4.851   6.171  17.815  0.00  0.00    +0.000 C 
ATOM      9  C   UNL     1       5.598   4.867  17.542  0.00  0.00    +0.000 C 
ATOM     10  C   UNL     1       4.682   3.862  16.811  0.00  0.00    +0.000 C 
ATOM     11  C   UNL     1       3.328   3.820  17.458  0.00  0.00    +0.000 A 
ATOM     12  C   UNL     1       2.323   2.899  17.267  0.00  0.00    +0.000 A 
ATOM     13  N   UNL     1       1.284   3.218  18.070  0.00  0.00    +0.000 NA
ATOM     14  C   UNL     1       1.673   4.335  18.720  0.00  0.00    +0.000 A 
ATOM     15  N   UNL     1       2.904   4.735  18.343  0.00  0.00    +0.000 N 
ENDBRANCH   4   7
BRANCH   1  16
ATOM     16  C   UNL     1       0.205  10.542  19.100  0.00  0.00    +0.000 C 
ATOM     17  O   UNL     1      -0.993  10.419  18.878  0.00  0.00    +0.000 OA
BRANCH  16  18
ATOM     18  O   UNL     1       0.721  11.739  19.480  0.00  0.00    +0.000 OA
BRANCH  18  20
ATOM     19  C   UNL     1       2.380  12.820  18.206  0.00  0.00    +0.000 C 
ATOM     20  C   UNL     1       0.927  12.818  18.654  0.00  0.00    +0.000 C 
ENDBRANCH  18  20
ENDBRANCH  16  18
ENDBRANCH   1  16
TORSDOF 4
ENDMDL
