MODEL 1
REMARK VINA RESULT:      -6.9      0.000      0.000
REMARK  Name = 
REMARK  9 active torsions:
REMARK  status: ('A' for Active; 'I' for Inactive)
REMARK    1  A    between atoms: C_1  and  C_2
REMARK    2  A    between atoms: C_2  and  C_3
REMARK    3  A    between atoms: C_2  and  C_4
REMARK    4  A    between atoms: C_4  and  O_5
REMARK    5  A    between atoms: C_4  and  C_13
REMARK    6  A    between atoms: O_5  and  C_6
REMARK    7  A    between atoms: N_15  and  C_16
REMARK    8  A    between atoms: N_15  and  C_17
REMARK    9  A    between atoms: C_17  and  C_18
REMARK                            x       y       z     vdW  Elec       q    Type
REMARK                         _______ _______ _______ _____ _____    ______ ____
ROOT
ATOM      1  C   UNL     1       5.790   5.560  16.859  0.00  0.00    +0.000 C 
ENDROOT
BRANCH   1   2
ATOM      2  C   UNL     1       4.387   5.765  17.506  0.00  0.00    +0.000 C 
ATOM      3  O   UNL     1       3.995   6.889  17.820  0.00  0.00    +0.000 OA
ATOM      4  N   UNL     1       3.560   4.643  17.626  0.00  0.00    +0.000 N 
ATOM      5  C   UNL     1       3.983   3.249  17.521  0.00  0.00    +0.000 C 
BRANCH   4   6
ATOM      6  C   UNL     1       2.160   4.857  17.983  0.00  0.00    +0.000 C 
BRANCH   6   7
ATOM      7  C   UNL     1       1.866   4.224  19.297  0.00  0.00    +0.000 A 
ATOM      8  C   UNL     1       0.913   3.271  19.591  0.00  0.00    +0.000 A 
ATOM      9  N   UNL     1       1.022   3.056  20.935  0.00  0.00    +0.000 N 
ATOM     10  C   UNL     1       2.029   3.852  21.401  0.00  0.00    +0.000 A 
ATOM     11  N   UNL     1       2.564   4.569  20.437  0.00  0.00    +0.000 NA
ATOM     12  H   UNL     1       0.454   2.432  21.490  0.00  0.00    +0.000 HD
ENDBRANCH   6   7
ENDBRANCH   4   6
ENDBRANCH   1   2
BRANCH   1  14
ATOM     13  C   UNL     1       6.958   5.593  19.188  0.00  0.00    +0.000 C 
ATOM     14  C   UNL     1       7.054   5.938  17.699  0.00  0.00    +0.000 C 
ATOM     15  C   UNL     1       7.542   7.382  17.556  0.00  0.00    +0.000 C 
ENDBRANCH   1  14
BRANCH   1  16
ATOM     16  O   UNL     1       5.947   6.065  15.521  0.00  0.00    +0.000 OA
BRANCH  16  17
ATOM     17  C   UNL     1       6.150   5.188  14.487  0.00  0.00    +0.000 A 
ATOM     18  C   UNL     1       5.267   4.186  14.080  0.00  0.00    +0.000 A 
ATOM     19  C   UNL     1       5.580   3.341  13.016  0.00  0.00    +0.000 A 
ATOM     20  C   UNL     1       6.788   3.495  12.351  0.00  0.00    +0.000 A 
ATOM     21 CL   UNL     1       7.176   2.448  11.046  0.00  0.00    +0.000 Cl
ATOM     22  C   UNL     1       7.681   4.491  12.742  0.00  0.00    +0.000 A 
ATOM     23  C   UNL     1       7.355   5.344  13.802  0.00  0.00    +0.000 A 
ENDBRANCH  16  17
ENDBRANCH   1  16
TORSDOF 6
ENDMDL
MODEL 2
REMARK VINA RESULT:      -6.9      0.393      1.303
REMARK  Name = 
REMARK  9 active torsions:
REMARK  status: ('A' for Active; 'I' for Inactive)
REMARK    1  A    between atoms: C_1  and  C_2
REMARK    2  A    between atoms: C_2  and  C_3
REMARK    3  A    between atoms: C_2  and  C_4
REMARK    4  A    between atoms: C_4  and  O_5
REMARK    5  A    between atoms: C_4  and  C_13
REMARK    6  A    between atoms: O_5  and  C_6
REMARK    7  A    between atoms: N_15  and  C_16
REMARK    8  A    between atoms: N_15  and  C_17
REMARK    9  A    between atoms: C_17  and  C_18
REMARK                            x       y       z     vdW  Elec       q    Type
REMARK                         _______ _______ _______ _____ _____    ______ ____
ROOT
ATOM      1  C   UNL     1       5.569   5.448  16.902  0.00  0.00    +0.000 C 
ENDROOT
BRANCH   1   2
ATOM      2  C   UNL     1       4.145   5.583  17.522  0.00  0.00    +0.000 C 
ATOM      3  O   UNL     1       3.685   6.687  17.814  0.00  0.00    +0.000 OA
ATOM      4  N   UNL     1       3.379   4.418  17.641  0.00  0.00    +0.000 N 
ATOM      5  C   UNL     1       3.881   3.048  17.561  0.00  0.00    +0.000 C 
BRANCH   4   6
ATOM      6  C   UNL     1       1.963   4.558  17.970  0.00  0.00    +0.000 C 
BRANCH   6   7
ATOM      7  C   UNL     1       1.695   3.992  19.320  0.00  0.00    +0.000 A 
ATOM      8  C   UNL     1       0.788   3.014  19.671  0.00  0.00    +0.000 A 
ATOM      9  N   UNL     1       0.902   2.887  21.025  0.00  0.00    +0.000 N 
ATOM     10  C   UNL     1       1.868   3.757  21.443  0.00  0.00    +0.000 A 
ATOM     11  N   UNL     1       2.371   4.439  20.437  0.00  0.00    +0.000 NA
ATOM     12  H   UNL     1       0.363   2.271  21.616  0.00  0.00    +0.000 HD
ENDBRANCH   6   7
ENDBRANCH   4   6
ENDBRANCH   1   2
BRANCH   1  14
ATOM     13  C   UNL     1       7.498   7.114  17.445  0.00  0.00    +0.000 C 
ATOM     14  C   UNL     1       6.801   5.797  17.800  0.00  0.00    +0.000 C 
ATOM     15  C   UNL     1       7.858   4.699  17.938  0.00  0.00    +0.000 C 
ENDBRANCH   1  14
BRANCH   1  16
ATOM     16  O   UNL     1       5.750   6.042  15.603  0.00  0.00    +0.000 OA
BRANCH  16  17
ATOM     17  C   UNL     1       6.160   5.261  14.554  0.00  0.00    +0.000 A 
ATOM     18  C   UNL     1       7.366   5.388  13.864  0.00  0.00    +0.000 A 
ATOM     19  C   UNL     1       7.679   4.541  12.802  0.00  0.00    +0.000 A 
ATOM     20  C   UNL     1       6.778   3.558  12.421  0.00  0.00    +0.000 A 
ATOM     21 CL   UNL     1       7.161   2.520  11.106  0.00  0.00    +0.000 Cl
ATOM     22  C   UNL     1       5.569   3.415  13.099  0.00  0.00    +0.000 A 
ATOM     23  C   UNL     1       5.266   4.259  14.173  0.00  0.00    +0.000 A 
ENDBRANCH  16  17
ENDBRANCH   1  16
TORSDOF 6
ENDMDL
MODEL 3
REMARK VINA RESULT:      -6.8      0.596      1.307
REMARK  Name = 
REMARK  9 active torsions:
REMARK  status: ('A' for Active; 'I' for Inactive)
REMARK    1  A    between atoms: C_1  and  C_2
REMARK    2  A    between atoms: C_2  and  C_3
REMARK    3  A    between atoms: C_2  and  C_4
REMARK    4  A    between atoms: C_4  and  O_5
REMARK    5  A    between atoms: C_4  and  C_13
REMARK    6  A    between atoms: O_5  and  C_6
REMARK    7  A    between atoms: N_15  and  C_16
REMARK    8  A    between atoms: N_15  and  C_17
REMARK    9  A    between atoms: C_17  and  C_18
REMARK                            x       y       z     vdW  Elec       q    Type
REMARK                         _______ _______ _______ _____ _____    ______ ____
ROOT
ATOM      1  C   UNL     1       5.882   5.652  16.788  0.00  0.00    +0.000 C 
ENDROOT
BRANCH   1   2
ATOM      2  C   UNL     1       4.481   5.846  17.443  0.00  0.00    +0.000 C 
ATOM      3  O   UNL     1       4.071   6.969  17.737  0.00  0.00    +0.000 OA
ATOM      4  N   UNL     1       3.674   4.712  17.593  0.00  0.00    +0.000 N 
ATOM      5  C   UNL     1       4.122   3.324  17.514  0.00  0.00    +0.000 C 
BRANCH   4   6
ATOM      6  C   UNL     1       2.275   4.909  17.958  0.00  0.00    +0.000 C 
BRANCH   6   7
ATOM      7  C   UNL     1       2.025   4.380  19.326  0.00  0.00    +0.000 A 
ATOM      8  C   UNL     1       2.590   4.788  20.516  0.00  0.00    +0.000 A 
ATOM      9  N   UNL     1       2.062   3.963  21.467  0.00  0.00    +0.000 N 
ATOM     10  C   UNL     1       1.195   3.113  20.842  0.00  0.00    +0.000 A 
ATOM     11  N   UNL     1       1.145   3.339  19.548  0.00  0.00    +0.000 NA
ATOM     12  H   UNL     1       2.279   3.970  22.453  0.00  0.00    +0.000 HD
ENDBRANCH   6   7
ENDBRANCH   4   6
ENDBRANCH   1   2
BRANCH   1  14
ATOM     13  C   UNL     1       7.090   5.639  19.096  0.00  0.00    +0.000 C 
ATOM     14  C   UNL     1       7.147   6.043  17.620  0.00  0.00    +0.000 C 
ATOM     15  C   UNL     1       7.583   7.506  17.522  0.00  0.00    +0.000 C 
ENDBRANCH   1  14
BRANCH   1  16
ATOM     16  O   UNL     1       6.026   6.157  15.447  0.00  0.00    +0.000 OA
BRANCH  16  17
ATOM     17  C   UNL     1       6.306   5.289  14.424  0.00  0.00    +0.000 A 
ATOM     18  C   UNL     1       7.447   5.314  13.621  0.00  0.00    +0.000 A 
ATOM     19  C   UNL     1       7.627   4.383  12.598  0.00  0.00    +0.000 A 
ATOM     20  C   UNL     1       6.656   3.418  12.372  0.00  0.00    +0.000 A 
ATOM     21 CL   UNL     1       6.875   2.278  11.106  0.00  0.00    +0.000 Cl
ATOM     22  C   UNL     1       5.511   3.376  13.165  0.00  0.00    +0.000 A 
ATOM     23  C   UNL     1       5.343   4.304  14.198  0.00  0.00    +0.000 A 
ENDBRANCH  16  17
ENDBRANCH   1  16
TORSDOF 6
ENDMDL
MODEL 4
REMARK VINA RESULT:      -6.7      4.387      7.489
REMARK  Name = 
REMARK  9 active torsions:
REMARK  status: ('A' for Active; 'I' for Inactive)
REMARK    1  A    between atoms: C_1  and  C_2
REMARK    2  A    between atoms: C_2  and  C_3
REMARK    3  A    between atoms: C_2  and  C_4
REMARK    4  A    between atoms: C_4  and  O_5
REMARK    5  A    between atoms: C_4  and  C_13
REMARK    6  A    between atoms: O_5  and  C_6
REMARK    7  A    between atoms: N_15  and  C_16
REMARK    8  A    between atoms: N_15  and  C_17
REMARK    9  A    between atoms: C_17  and  C_18
REMARK                            x       y       z     vdW  Elec       q    Type
REMARK                         _______ _______ _______ _____ _____    ______ ____
ROOT
ATOM      1  C   UNL     1       3.366   5.655  18.980  0.00  0.00    +0.000 C 
ENDROOT
BRANCH   1   2
ATOM      2  C   UNL     1       4.785   5.051  18.755  0.00  0.00    +0.000 C 
ATOM      3  O   UNL     1       5.154   4.056  19.379  0.00  0.00    +0.000 OA
ATOM      4  N   UNL     1       5.579   5.621  17.754  0.00  0.00    +0.000 N 
ATOM      5  C   UNL     1       5.365   6.922  17.125  0.00  0.00    +0.000 C 
BRANCH   4   6
ATOM      6  C   UNL     1       6.792   4.914  17.353  0.00  0.00    +0.000 C 
BRANCH   6   7
ATOM      7  C   UNL     1       6.734   4.582  15.904  0.00  0.00    +0.000 A 
ATOM      8  C   UNL     1       5.974   3.615  15.279  0.00  0.00    +0.000 A 
ATOM      9  N   UNL     1       6.313   3.689  13.959  0.00  0.00    +0.000 N 
ATOM     10  C   UNL     1       7.232   4.689  13.823  0.00  0.00    +0.000 A 
ATOM     11  N   UNL     1       7.508   5.253  14.979  0.00  0.00    +0.000 NA
ATOM     12  H   UNL     1       5.959   3.102  13.216  0.00  0.00    +0.000 HD
ENDBRANCH   6   7
ENDBRANCH   4   6
ENDBRANCH   1   2
BRANCH   1  14
ATOM     13  C   UNL     1       1.579   4.005  19.915  0.00  0.00    +0.000 C 
ATOM     14  C   UNL     1       2.124   4.750  18.693  0.00  0.00    +0.000 C 
ATOM     15  C   UNL     1       2.274   3.760  17.535  0.00  0.00    +0.000 C 
ENDBRANCH   1  14
BRANCH   1  16
ATOM     16  O   UNL     1       3.139   6.959  18.415  0.00  0.00    +0.000 OA
BRANCH  16  17
ATOM     17  C   UNL     1       2.261   7.817  19.024  0.00  0.00    +0.000 A 
ATOM     18  C   UNL     1       1.844   7.751  20.355  0.00  0.00    +0.000 A 
ATOM     19  C   UNL     1       0.937   8.675  20.871  0.00  0.00    +0.000 A 
ATOM     20  C   UNL     1       0.436   9.675  20.050  0.00  0.00    +0.000 A 
ATOM     21 CL   UNL     1      -0.689  10.808  20.685  0.00  0.00    +0.000 Cl
ATOM     22  C   UNL     1       0.841   9.758  18.720  0.00  0.00    +0.000 A 
ATOM     23  C   UNL     1       1.763   8.836  18.211  0.00  0.00    +0.000 A 
ENDBRANCH  16  17
ENDBRANCH   1  16
TORSDOF 6
ENDMDL
MODEL 5
REMARK VINA RESULT:      -6.6      1.230      1.506
REMARK  Name = 
REMARK  9 active torsions:
REMARK  status: ('A' for Active; 'I' for Inactive)
REMARK    1  A    between atoms: C_1  and  C_2
REMARK    2  A    between atoms: C_2  and  C_3
REMARK    3  A    between atoms: C_2  and  C_4
REMARK    4  A    between atoms: C_4  and  O_5
REMARK    5  A    between atoms: C_4  and  C_13
REMARK    6  A    between atoms: O_5  and  C_6
REMARK    7  A    between atoms: N_15  and  C_16
REMARK    8  A    between atoms: N_15  and  C_17
REMARK    9  A    between atoms: C_17  and  C_18
REMARK                            x       y       z     vdW  Elec       q    Type
REMARK                         _______ _______ _______ _____ _____    ______ ____
ROOT
ATOM      1  C   UNL     1       6.869   5.815  16.754  0.00  0.00    +0.000 C 
ENDROOT
BRANCH   1   2
ATOM      2  C   UNL     1       5.330   5.996  16.920  0.00  0.00    +0.000 C 
ATOM      3  O   UNL     1       4.743   6.937  16.385  0.00  0.00    +0.000 OA
ATOM      4  N   UNL     1       4.633   5.000  17.614  0.00  0.00    +0.000 N 
ATOM      5  C   UNL     1       5.224   3.986  18.484  0.00  0.00    +0.000 C 
BRANCH   4   6
ATOM      6  C   UNL     1       3.174   5.015  17.555  0.00  0.00    +0.000 C 
BRANCH   6   7
ATOM      7  C   UNL     1       2.612   5.305  18.902  0.00  0.00    +0.000 A 
ATOM      8  C   UNL     1       2.663   6.486  19.613  0.00  0.00    +0.000 A 
ATOM      9  N   UNL     1       2.041   6.220  20.798  0.00  0.00    +0.000 N 
ATOM     10  C   UNL     1       1.621   4.921  20.763  0.00  0.00    +0.000 A 
ATOM     11  N   UNL     1       1.947   4.339  19.630  0.00  0.00    +0.000 NA
ATOM     12  H   UNL     1       1.921   6.861  21.569  0.00  0.00    +0.000 HD
ENDBRANCH   6   7
ENDBRANCH   4   6
ENDBRANCH   1   2
BRANCH   1  14
ATOM     13  C   UNL     1       7.814   6.149  19.159  0.00  0.00    +0.000 C 
ATOM     14  C   UNL     1       7.814   6.623  17.703  0.00  0.00    +0.000 C 
ATOM     15  C   UNL     1       7.643   8.144  17.677  0.00  0.00    +0.000 C 
ENDBRANCH   1  14
BRANCH   1  16
ATOM     16  O   UNL     1       7.371   5.897  15.408  0.00  0.00    +0.000 OA
BRANCH  16  17
ATOM     17  C   UNL     1       6.926   5.008  14.465  0.00  0.00    +0.000 A 
ATOM     18  C   UNL     1       5.907   4.072  14.642  0.00  0.00    +0.000 A 
ATOM     19  C   UNL     1       5.539   3.207  13.612  0.00  0.00    +0.000 A 
ATOM     20  C   UNL     1       6.197   3.274  12.393  0.00  0.00    +0.000 A 
ATOM     21 CL   UNL     1       5.748   2.201  11.128  0.00  0.00    +0.000 Cl
ATOM     22  C   UNL     1       7.216   4.204  12.197  0.00  0.00    +0.000 A 
ATOM     23  C   UNL     1       7.571   5.078  13.229  0.00  0.00    +0.000 A 
ENDBRANCH  16  17
ENDBRANCH   1  16
TORSDOF 6
ENDMDL
MODEL 6
REMARK VINA RESULT:      -6.6      1.314      1.574
REMARK  Name = 
REMARK  9 active torsions:
REMARK  status: ('A' for Active; 'I' for Inactive)
REMARK    1  A    between atoms: C_1  and  C_2
REMARK    2  A    between atoms: C_2  and  C_3
REMARK    3  A    between atoms: C_2  and  C_4
REMARK    4  A    between atoms: C_4  and  O_5
REMARK    5  A    between atoms: C_4  and  C_13
REMARK    6  A    between atoms: O_5  and  C_6
REMARK    7  A    between atoms: N_15  and  C_16
REMARK    8  A    between atoms: N_15  and  C_17
REMARK    9  A    between atoms: C_17  and  C_18
REMARK                            x       y       z     vdW  Elec       q    Type
REMARK                         _______ _______ _______ _____ _____    ______ ____
ROOT
ATOM      1  C   UNL     1       6.812   5.889  16.799  0.00  0.00    +0.000 C 
ENDROOT
BRANCH   1   2
ATOM      2  C   UNL     1       5.292   6.165  17.000  0.00  0.00    +0.000 C 
ATOM      3  O   UNL     1       4.725   7.063  16.376  0.00  0.00    +0.000 OA
ATOM      4  N   UNL     1       4.581   5.297  17.836  0.00  0.00    +0.000 N 
ATOM      5  C   UNL     1       5.163   4.367  18.801  0.00  0.00    +0.000 C 
BRANCH   4   6
ATOM      6  C   UNL     1       3.123   5.379  17.832  0.00  0.00    +0.000 C 
BRANCH   6   7
ATOM      7  C   UNL     1       2.536   4.038  18.098  0.00  0.00    +0.000 A 
ATOM      8  C   UNL     1       2.689   2.878  17.368  0.00  0.00    +0.000 A 
ATOM      9  N   UNL     1       1.920   1.948  18.004  0.00  0.00    +0.000 N 
ATOM     10  C   UNL     1       1.352   2.552  19.089  0.00  0.00    +0.000 A 
ATOM     11  N   UNL     1       1.706   3.815  19.179  0.00  0.00    +0.000 NA
ATOM     12  H   UNL     1       1.782   0.988  17.719  0.00  0.00    +0.000 HD
ENDBRANCH   6   7
ENDBRANCH   4   6
ENDBRANCH   1   2
BRANCH   1  14
ATOM     13  C   UNL     1       7.887   6.135  19.159  0.00  0.00    +0.000 C 
ATOM     14  C   UNL     1       7.828   6.645  17.716  0.00  0.00    +0.000 C 
ATOM     15  C   UNL     1       7.703   8.170  17.734  0.00  0.00    +0.000 C 
ENDBRANCH   1  14
BRANCH   1  16
ATOM     16  O   UNL     1       7.286   5.928  15.440  0.00  0.00    +0.000 OA
BRANCH  16  17
ATOM     17  C   UNL     1       6.788   5.038  14.524  0.00  0.00    +0.000 A 
ATOM     18  C   UNL     1       5.688   4.199  14.714  0.00  0.00    +0.000 A 
ATOM     19  C   UNL     1       5.271   3.323  13.714  0.00  0.00    +0.000 A 
ATOM     20  C   UNL     1       5.961   3.278  12.511  0.00  0.00    +0.000 A 
ATOM     21 CL   UNL     1       5.452   2.191  11.282  0.00  0.00    +0.000 Cl
ATOM     22  C   UNL     1       7.060   4.109  12.303  0.00  0.00    +0.000 A 
ATOM     23  C   UNL     1       7.466   4.996  13.305  0.00  0.00    +0.000 A 
ENDBRANCH  16  17
ENDBRANCH   1  16
TORSDOF 6
ENDMDL
MODEL 7
REMARK VINA RESULT:      -6.5      4.478      7.614
REMARK  Name = 
REMARK  9 active torsions:
REMARK  status: ('A' for Active; 'I' for Inactive)
REMARK    1  A    between atoms: C_1  and  C_2
REMARK    2  A    between atoms: C_2  and  C_3
REMARK    3  A    between atoms: C_2  and  C_4
REMARK    4  A    between atoms: C_4  and  O_5
REMARK    5  A    between atoms: C_4  and  C_13
REMARK    6  A    between atoms: O_5  and  C_6
REMARK    7  A    between atoms: N_15  and  C_16
REMARK    8  A    between atoms: N_15  and  C_17
REMARK    9  A    between atoms: C_17  and  C_18
REMARK                            x       y       z     vdW  Elec       q    Type
REMARK                         _______ _______ _______ _____ _____    ______ ____
ROOT
ATOM      1  C   UNL     1       3.157   5.871  18.876  0.00  0.00    +0.000 C 
ENDROOT
BRANCH   1   2
ATOM      2  C   UNL     1       4.627   5.376  18.727  0.00  0.00    +0.000 C 
ATOM      3  O   UNL     1       5.115   4.593  19.543  0.00  0.00    +0.000 OA
ATOM      4  N   UNL     1       5.334   5.777  17.588  0.00  0.00    +0.000 N 
ATOM      5  C   UNL     1       4.967   6.871  16.691  0.00  0.00    +0.000 C 
BRANCH   4   6
ATOM      6  C   UNL     1       6.606   5.121  17.302  0.00  0.00    +0.000 C 
BRANCH   6   7
ATOM      7  C   UNL     1       6.643   4.675  15.882  0.00  0.00    +0.000 A 
ATOM      8  C   UNL     1       5.939   3.648  15.291  0.00  0.00    +0.000 A 
ATOM      9  N   UNL     1       6.357   3.625  13.993  0.00  0.00    +0.000 N 
ATOM     10  C   UNL     1       7.267   4.630  13.833  0.00  0.00    +0.000 A 
ATOM     11  N   UNL     1       7.462   5.288  14.955  0.00  0.00    +0.000 NA
ATOM     12  H   UNL     1       6.060   2.975  13.279  0.00  0.00    +0.000 HD
ENDBRANCH   6   7
ENDBRANCH   4   6
ENDBRANCH   1   2
BRANCH   1  14
ATOM     13  C   UNL     1       1.437   4.119  19.746  0.00  0.00    +0.000 C 
ATOM     14  C   UNL     1       2.003   4.871  18.539  0.00  0.00    +0.000 C 
ATOM     15  C   UNL     1       2.297   3.866  17.422  0.00  0.00    +0.000 C 
ENDBRANCH   1  14
BRANCH   1  16
ATOM     16  O   UNL     1       2.860   7.149  18.284  0.00  0.00    +0.000 OA
BRANCH  16  17
ATOM     17  C   UNL     1       2.033   8.023  18.941  0.00  0.00    +0.000 A 
ATOM     18  C   UNL     1       1.372   9.110  18.368  0.00  0.00    +0.000 A 
ATOM     19  C   UNL     1       0.558   9.942  19.135  0.00  0.00    +0.000 A 
ATOM     20  C   UNL     1       0.404   9.690  20.491  0.00  0.00    +0.000 A 
ATOM     21 CL   UNL     1      -0.592  10.722  21.437  0.00  0.00    +0.000 Cl
ATOM     22  C   UNL     1       1.055   8.608  21.080  0.00  0.00    +0.000 A 
ATOM     23  C   UNL     1       1.860   7.769  20.302  0.00  0.00    +0.000 A 
ENDBRANCH  16  17
ENDBRANCH   1  16
TORSDOF 6
ENDMDL
MODEL 8
REMARK VINA RESULT:      -6.4      3.854      5.271
REMARK  Name = 
REMARK  9 active torsions:
REMARK  status: ('A' for Active; 'I' for Inactive)
REMARK    1  A    between atoms: C_1  and  C_2
REMARK    2  A    between atoms: C_2  and  C_3
REMARK    3  A    between atoms: C_2  and  C_4
REMARK    4  A    between atoms: C_4  and  O_5
REMARK    5  A    between atoms: C_4  and  C_13
REMARK    6  A    between atoms: O_5  and  C_6
REMARK    7  A    between atoms: N_15  and  C_16
REMARK    8  A    between atoms: N_15  and  C_17
REMARK    9  A    between atoms: C_17  and  C_18
REMARK                            x       y       z     vdW  Elec       q    Type
REMARK                         _______ _______ _______ _____ _____    ______ ____
ROOT
ATOM      1  C   UNL     1       5.264   5.173  17.644  0.00  0.00    +0.000 C 
ENDROOT
BRANCH   1   2
ATOM      2  C   UNL     1       4.990   3.879  18.468  0.00  0.00    +0.000 C 
ATOM      3  O   UNL     1       5.571   3.674  19.534  0.00  0.00    +0.000 OA
ATOM      4  N   UNL     1       3.995   3.013  18.001  0.00  0.00    +0.000 N 
ATOM      5  C   UNL     1       3.417   3.014  16.659  0.00  0.00    +0.000 C 
BRANCH   4   6
ATOM      6  C   UNL     1       3.545   1.942  18.886  0.00  0.00    +0.000 C 
BRANCH   6   7
ATOM      7  C   UNL     1       2.461   2.437  19.776  0.00  0.00    +0.000 A 
ATOM      8  C   UNL     1       1.155   2.733  19.446  0.00  0.00    +0.000 A 
ATOM      9  N   UNL     1       0.585   3.184  20.602  0.00  0.00    +0.000 N 
ATOM     10  C   UNL     1       1.536   3.128  21.581  0.00  0.00    +0.000 A 
ATOM     11  N   UNL     1       2.681   2.678  21.117  0.00  0.00    +0.000 NA
ATOM     12  H   UNL     1      -0.364   3.512  20.714  0.00  0.00    +0.000 HD
ENDBRANCH   6   7
ENDBRANCH   4   6
ENDBRANCH   1   2
BRANCH   1  14
ATOM     13  C   UNL     1       6.653   7.339  17.235  0.00  0.00    +0.000 C 
ATOM     14  C   UNL     1       6.335   6.178  18.181  0.00  0.00    +0.000 C 
ATOM     15  C   UNL     1       7.649   5.557  18.663  0.00  0.00    +0.000 C 
ENDBRANCH   1  14
BRANCH   1  16
ATOM     16  O   UNL     1       4.102   5.907  17.218  0.00  0.00    +0.000 OA
BRANCH  16  17
ATOM     17  C   UNL     1       3.331   6.552  18.150  0.00  0.00    +0.000 A 
ATOM     18  C   UNL     1       2.949   6.039  19.391  0.00  0.00    +0.000 A 
ATOM     19  C   UNL     1       2.153   6.782  20.261  0.00  0.00    +0.000 A 
ATOM     20  C   UNL     1       1.728   8.049  19.888  0.00  0.00    +0.000 A 
ATOM     21 CL   UNL     1       0.739   8.960  20.958  0.00  0.00    +0.000 Cl
ATOM     22  C   UNL     1       2.100   8.578  18.654  0.00  0.00    +0.000 A 
ATOM     23  C   UNL     1       2.911   7.833  17.791  0.00  0.00    +0.000 A 
ENDBRANCH  16  17
ENDBRANCH   1  16
TORSDOF 6
ENDMDL
MODEL 9
REMARK VINA RESULT:      -6.3      3.428      5.204
REMARK  Name = 
REMARK  9 active torsions:
REMARK  status: ('A' for Active; 'I' for Inactive)
REMARK    1  A    between atoms: C_1  and  C_2
REMARK    2  A    between atoms: C_2  and  C_3
REMARK    3  A    between atoms: C_2  and  C_4
REMARK    4  A    between atoms: C_4  and  O_5
REMARK    5  A    between atoms: C_4  and  C_13
REMARK    6  A    between atoms: O_5  and  C_6
REMARK    7  A    between atoms: N_15  and  C_16
REMARK    8  A    between atoms: N_15  and  C_17
REMARK    9  A    between atoms: C_17  and  C_18
REMARK                            x       y       z     vdW  Elec       q    Type
REMARK                         _______ _______ _______ _____ _____    ______ ____
ROOT
ATOM      1  C   UNL     1       4.447   4.935  16.604  0.00  0.00    +0.000 C 
ENDROOT
BRANCH   1   2
ATOM      2  C   UNL     1       3.559   3.838  17.266  0.00  0.00    +0.000 C 
ATOM      3  O   UNL     1       2.476   3.519  16.774  0.00  0.00    +0.000 OA
ATOM      4  N   UNL     1       4.081   3.167  18.377  0.00  0.00    +0.000 N 
ATOM      5  C   UNL     1       5.216   3.602  19.188  0.00  0.00    +0.000 C 
BRANCH   4   6
ATOM      6  C   UNL     1       3.387   1.971  18.847  0.00  0.00    +0.000 C 
BRANCH   6   7
ATOM      7  C   UNL     1       2.393   2.336  19.893  0.00  0.00    +0.000 A 
ATOM      8  C   UNL     1       1.059   2.645  19.732  0.00  0.00    +0.000 A 
ATOM      9  N   UNL     1       0.605   2.944  20.984  0.00  0.00    +0.000 N 
ATOM     10  C   UNL     1       1.650   2.790  21.850  0.00  0.00    +0.000 A 
ATOM     11  N   UNL     1       2.746   2.420  21.225  0.00  0.00    +0.000 NA
ATOM     12  H   UNL     1      -0.329   3.238  21.229  0.00  0.00    +0.000 HD
ENDBRANCH   6   7
ENDBRANCH   4   6
ENDBRANCH   1   2
BRANCH   1  14
ATOM     13  C   UNL     1       6.964   5.331  16.062  0.00  0.00    +0.000 C 
ATOM     14  C   UNL     1       5.717   4.479  15.813  0.00  0.00    +0.000 C 
ATOM     15  C   UNL     1       5.533   4.297  14.305  0.00  0.00    +0.000 C 
ENDBRANCH   1  14
BRANCH   1  16
ATOM     16  O   UNL     1       4.788   6.057  17.437  0.00  0.00    +0.000 OA
BRANCH  16  17
ATOM     17  C   UNL     1       3.791   6.790  18.027  0.00  0.00    +0.000 A 
ATOM     18  C   UNL     1       3.211   6.529  19.269  0.00  0.00    +0.000 A 
ATOM     19  C   UNL     1       2.193   7.338  19.771  0.00  0.00    +0.000 A 
ATOM     20  C   UNL     1       1.746   8.419  19.025  0.00  0.00    +0.000 A 
ATOM     21 CL   UNL     1       0.485   9.410  19.641  0.00  0.00    +0.000 Cl
ATOM     22  C   UNL     1       2.314   8.696  17.783  0.00  0.00    +0.000 A 
ATOM     23  C   UNL     1       3.344   7.888  17.291  0.00  0.00    +0.000 A 
ENDBRANCH  16  17
ENDBRANCH   1  16
TORSDOF 6
ENDMDL
