MODEL 1
REMARK VINA RESULT:      -7.1      0.000      0.000
REMARK  Name = 
REMARK  14 active torsions:
REMARK  status: ('A' for Active; 'I' for Inactive)
REMARK    1  A    between atoms: C_1  and  O_2
REMARK    2  A    between atoms: O_2  and  C_3
REMARK    3  A    between atoms: C_5  and  C_6
REMARK    4  A    between atoms: C_6  and  N_7
REMARK    5  A    between atoms: N_10  and  C_11
REMARK    6  A    between atoms: C_11  and  C_12
REMARK    7  A    between atoms: C_12  and  C_13
REMARK    8  A    between atoms: C_13  and  C_14
REMARK    9  A    between atoms: C_20  and  C_21
REMARK   10  A    between atoms: C_21  and  C_22
REMARK   11  A    between atoms: C_22  and  O_23
REMARK   12  A    between atoms: C_26  and  O_27
REMARK   13  A    between atoms: O_27  and  C_28
REMARK   14  A    between atoms: C_29  and  O_30
REMARK                            x       y       z     vdW  Elec       q    Type
REMARK                         _______ _______ _______ _____ _____    ______ ____
ROOT
ATOM      1  N   UNL     1       1.672   8.207  18.621  0.00  0.00    +0.000 NA
ATOM      2  C   UNL     1       1.113   9.409  17.969  0.00  0.00    +0.000 C 
ATOM      3  C   UNL     1      -0.078  10.015  18.744  0.00  0.00    +0.000 C 
ATOM      4  N   UNL     1       0.234  10.349  20.153  0.00  0.00    +0.000 NA
ATOM      5  C   UNL     1       0.666   9.073  20.795  0.00  0.00    +0.000 C 
ATOM      6  C   UNL     1       1.894   8.423  20.072  0.00  0.00    +0.000 C 
ENDROOT
BRANCH   1   7
ATOM      7  C   UNL     1       2.915   7.777  17.952  0.00  0.00    +0.000 C 
BRANCH   7  10
ATOM      8  C   UNL     1       2.613   3.943  17.955  0.00  0.00    +0.000 A 
ATOM      9  C   UNL     1       2.289   5.314  17.904  0.00  0.00    +0.000 A 
ATOM     10  C   UNL     1       3.264   6.308  18.130  0.00  0.00    +0.000 A 
ATOM     11  C   UNL     1       4.578   5.898  18.404  0.00  0.00    +0.000 A 
ATOM     12  C   UNL     1       4.917   4.542  18.409  0.00  0.00    +0.000 A 
ATOM     13  C   UNL     1       3.934   3.567  18.192  0.00  0.00    +0.000 A 
BRANCH   8  15
ATOM     14  C   UNL     1       0.857   2.636  18.895  0.00  0.00    +0.000 C 
ATOM     15  O   UNL     1       1.535   3.121  17.742  0.00  0.00    +0.000 OA
ENDBRANCH   8  15
BRANCH  12  16
ATOM     16  O   UNL     1       6.219   4.238  18.722  0.00  0.00    +0.000 OA
ATOM     17  C   UNL     1       7.159   4.621  17.715  0.00  0.00    +0.000 C 
ENDBRANCH  12  16
BRANCH  13  18
ATOM     18  O   UNL     1       4.279   2.243  18.234  0.00  0.00    +0.000 OA
ATOM     19  H   UNL     1       4.300   1.944  17.311  0.00  0.00    +0.000 HD
ENDBRANCH  13  18
ENDBRANCH   7  10
ENDBRANCH   1   7
BRANCH   4  20
ATOM     20  C   UNL     1       1.240  11.427  20.275  0.00  0.00    +0.000 C 
BRANCH  20  21
ATOM     21  C   UNL     1       0.676  12.855  20.297  0.00  0.00    +0.000 C 
BRANCH  21  22
ATOM     22  C   UNL     1       0.535  13.463  18.902  0.00  0.00    +0.000 C 
BRANCH  22  23
ATOM     23  C   UNL     1       1.618  14.484  18.651  0.00  0.00    +0.000 A 
ATOM     24  C   UNL     1       2.875  14.077  18.185  0.00  0.00    +0.000 A 
ATOM     25  C   UNL     1       3.895  15.010  17.990  0.00  0.00    +0.000 A 
ATOM     26  C   UNL     1       3.669  16.354  18.266  0.00  0.00    +0.000 A 
ATOM     27  C   UNL     1       2.422  16.771  18.730  0.00  0.00    +0.000 A 
ATOM     28  C   UNL     1       1.400  15.840  18.925  0.00  0.00    +0.000 A 
ENDBRANCH  22  23
ENDBRANCH  21  22
ENDBRANCH  20  21
ENDBRANCH   4  20
BRANCH   5  29
ATOM     29  C   UNL     1       0.867   9.187  22.320  0.00  0.00    +0.000 C 
BRANCH  29  30
ATOM     30  C   UNL     1      -0.423   9.557  23.049  0.00  0.00    +0.000 C 
BRANCH  30  31
ATOM     31  O   UNL     1      -0.479  10.966  23.259  0.00  0.00    +0.000 OA
ATOM     32  H   UNL     1      -1.377  11.185  23.559  0.00  0.00    +0.000 HD
ENDBRANCH  30  31
ENDBRANCH  29  30
ENDBRANCH   5  29
TORSDOF 12
ENDMDL
MODEL 2
REMARK VINA RESULT:      -6.8      2.408      8.501
REMARK  Name = 
REMARK  14 active torsions:
REMARK  status: ('A' for Active; 'I' for Inactive)
REMARK    1  A    between atoms: C_1  and  O_2
REMARK    2  A    between atoms: O_2  and  C_3
REMARK    3  A    between atoms: C_5  and  C_6
REMARK    4  A    between atoms: C_6  and  N_7
REMARK    5  A    between atoms: N_10  and  C_11
REMARK    6  A    between atoms: C_11  and  C_12
REMARK    7  A    between atoms: C_12  and  C_13
REMARK    8  A    between atoms: C_13  and  C_14
REMARK    9  A    between atoms: C_20  and  C_21
REMARK   10  A    between atoms: C_21  and  C_22
REMARK   11  A    between atoms: C_22  and  O_23
REMARK   12  A    between atoms: C_26  and  O_27
REMARK   13  A    between atoms: O_27  and  C_28
REMARK   14  A    between atoms: C_29  and  O_30
REMARK                            x       y       z     vdW  Elec       q    Type
REMARK                         _______ _______ _______ _____ _____    ______ ____
ROOT
ATOM      1  N   UNL     1       2.336   6.957  18.718  0.00  0.00    +0.000 NA
ATOM      2  C   UNL     1       3.804   6.844  18.592  0.00  0.00    +0.000 C 
ATOM      3  C   UNL     1       4.345   5.476  19.062  0.00  0.00    +0.000 C 
ATOM      4  N   UNL     1       3.726   4.320  18.373  0.00  0.00    +0.000 NA
ATOM      5  C   UNL     1       2.262   4.411  18.646  0.00  0.00    +0.000 C 
ATOM      6  C   UNL     1       1.644   5.767  18.162  0.00  0.00    +0.000 C 
ENDROOT
BRANCH   1   7
ATOM      7  C   UNL     1       1.847   8.198  18.086  0.00  0.00    +0.000 C 
BRANCH   7  10
ATOM      8  C   UNL     1       1.006  11.704  19.423  0.00  0.00    +0.000 A 
ATOM      9  C   UNL     1       1.376  10.650  18.565  0.00  0.00    +0.000 A 
ATOM     10  C   UNL     1       1.564   9.339  19.050  0.00  0.00    +0.000 A 
ATOM     11  C   UNL     1       1.366   9.104  20.420  0.00  0.00    +0.000 A 
ATOM     12  C   UNL     1       0.952  10.134  21.269  0.00  0.00    +0.000 A 
ATOM     13  C   UNL     1       0.779  11.434  20.771  0.00  0.00    +0.000 A 
BRANCH   8  15
ATOM     14  C   UNL     1      -0.390  13.283  18.311  0.00  0.00    +0.000 C 
ATOM     15  O   UNL     1       0.900  12.914  18.784  0.00  0.00    +0.000 OA
ENDBRANCH   8  15
BRANCH  12  16
ATOM     16  O   UNL     1       0.819   9.817  22.598  0.00  0.00    +0.000 OA
ATOM     17  C   UNL     1      -0.502   9.409  22.964  0.00  0.00    +0.000 C 
ENDBRANCH  12  16
BRANCH  13  18
ATOM     18  O   UNL     1       0.406  12.436  21.625  0.00  0.00    +0.000 OA
ATOM     19  H   UNL     1       0.668  13.265  21.193  0.00  0.00    +0.000 HD
ENDBRANCH  13  18
ENDBRANCH   7  10
ENDBRANCH   1   7
BRANCH   4  20
ATOM     20  C   UNL     1       4.043   4.278  16.929  0.00  0.00    +0.000 C 
BRANCH  20  21
ATOM     21  C   UNL     1       5.284   3.455  16.551  0.00  0.00    +0.000 C 
BRANCH  21  22
ATOM     22  C   UNL     1       6.366   4.288  15.864  0.00  0.00    +0.000 C 
BRANCH  22  23
ATOM     23  C   UNL     1       7.007   5.242  16.843  0.00  0.00    +0.000 A 
ATOM     24  C   UNL     1       7.554   4.760  18.040  0.00  0.00    +0.000 A 
ATOM     25  C   UNL     1       8.112   5.640  18.969  0.00  0.00    +0.000 A 
ATOM     26  C   UNL     1       8.122   7.007  18.712  0.00  0.00    +0.000 A 
ATOM     27  C   UNL     1       7.582   7.498  17.524  0.00  0.00    +0.000 A 
ATOM     28  C   UNL     1       7.024   6.620  16.593  0.00  0.00    +0.000 A 
ENDBRANCH  22  23
ENDBRANCH  21  22
ENDBRANCH  20  21
ENDBRANCH   4  20
BRANCH   5  29
ATOM     29  C   UNL     1       1.465   3.186  18.153  0.00  0.00    +0.000 C 
BRANCH  29  30
ATOM     30  C   UNL     1       1.818   1.915  18.922  0.00  0.00    +0.000 C 
BRANCH  30  31
ATOM     31  O   UNL     1       2.375   2.251  20.191  0.00  0.00    +0.000 OA
ATOM     32  H   UNL     1       3.294   2.531  20.045  0.00  0.00    +0.000 HD
ENDBRANCH  30  31
ENDBRANCH  29  30
ENDBRANCH   5  29
TORSDOF 12
ENDMDL
MODEL 3
REMARK VINA RESULT:      -6.8      0.838      1.302
REMARK  Name = 
REMARK  14 active torsions:
REMARK  status: ('A' for Active; 'I' for Inactive)
REMARK    1  A    between atoms: C_1  and  O_2
REMARK    2  A    between atoms: O_2  and  C_3
REMARK    3  A    between atoms: C_5  and  C_6
REMARK    4  A    between atoms: C_6  and  N_7
REMARK    5  A    between atoms: N_10  and  C_11
REMARK    6  A    between atoms: C_11  and  C_12
REMARK    7  A    between atoms: C_12  and  C_13
REMARK    8  A    between atoms: C_13  and  C_14
REMARK    9  A    between atoms: C_20  and  C_21
REMARK   10  A    between atoms: C_21  and  C_22
REMARK   11  A    between atoms: C_22  and  O_23
REMARK   12  A    between atoms: C_26  and  O_27
REMARK   13  A    between atoms: O_27  and  C_28
REMARK   14  A    between atoms: C_29  and  O_30
REMARK                            x       y       z     vdW  Elec       q    Type
REMARK                         _______ _______ _______ _____ _____    ______ ____
ROOT
ATOM      1  N   UNL     1       1.727   8.142  18.571  0.00  0.00    +0.000 NA
ATOM      2  C   UNL     1       1.180   9.336  17.894  0.00  0.00    +0.000 C 
ATOM      3  C   UNL     1       0.005   9.979  18.665  0.00  0.00    +0.000 C 
ATOM      4  N   UNL     1       0.336  10.343  20.063  0.00  0.00    +0.000 NA
ATOM      5  C   UNL     1       0.754   9.077  20.732  0.00  0.00    +0.000 C 
ATOM      6  C   UNL     1       1.966   8.391  20.015  0.00  0.00    +0.000 C 
ENDROOT
BRANCH   1   7
ATOM      7  C   UNL     1       2.957   7.677  17.902  0.00  0.00    +0.000 C 
BRANCH   7  10
ATOM      8  C   UNL     1       3.073   3.985  18.974  0.00  0.00    +0.000 A 
ATOM      9  C   UNL     1       2.600   5.265  18.625  0.00  0.00    +0.000 A 
ATOM     10  C   UNL     1       3.486   6.337  18.392  0.00  0.00    +0.000 A 
ATOM     11  C   UNL     1       4.864   6.097  18.511  0.00  0.00    +0.000 A 
ATOM     12  C   UNL     1       5.343   4.819  18.809  0.00  0.00    +0.000 A 
ATOM     13  C   UNL     1       4.447   3.766  19.047  0.00  0.00    +0.000 A 
BRANCH   8  15
ATOM     14  C   UNL     1       0.959   3.514  19.968  0.00  0.00    +0.000 C 
ATOM     15  O   UNL     1       2.069   3.075  19.194  0.00  0.00    +0.000 OA
ENDBRANCH   8  15
BRANCH  12  16
ATOM     16  O   UNL     1       6.704   4.689  18.939  0.00  0.00    +0.000 OA
ATOM     17  C   UNL     1       7.401   4.649  17.691  0.00  0.00    +0.000 C 
ENDBRANCH  12  16
BRANCH  13  18
ATOM     18  O   UNL     1       4.935   2.529  19.371  0.00  0.00    +0.000 OA
ATOM     19  H   UNL     1       4.512   2.289  20.212  0.00  0.00    +0.000 HD
ENDBRANCH  13  18
ENDBRANCH   7  10
ENDBRANCH   1   7
BRANCH   4  20
ATOM     20  C   UNL     1       1.359  11.408  20.148  0.00  0.00    +0.000 C 
BRANCH  20  21
ATOM     21  C   UNL     1       0.842  12.783  20.597  0.00  0.00    +0.000 C 
BRANCH  21  22
ATOM     22  C   UNL     1      -0.071  13.443  19.565  0.00  0.00    +0.000 C 
BRANCH  22  23
ATOM     23  C   UNL     1       0.520  14.746  19.082  0.00  0.00    +0.000 A 
ATOM     24  C   UNL     1      -0.315  15.830  18.785  0.00  0.00    +0.000 A 
ATOM     25  C   UNL     1       0.219  17.025  18.299  0.00  0.00    +0.000 A 
ATOM     26  C   UNL     1       1.590  17.141  18.099  0.00  0.00    +0.000 A 
ATOM     27  C   UNL     1       2.433  16.068  18.392  0.00  0.00    +0.000 A 
ATOM     28  C   UNL     1       1.900  14.874  18.879  0.00  0.00    +0.000 A 
ENDBRANCH  22  23
ENDBRANCH  21  22
ENDBRANCH  20  21
ENDBRANCH   4  20
BRANCH   5  29
ATOM     29  C   UNL     1       0.971   9.226  22.252  0.00  0.00    +0.000 C 
BRANCH  29  30
ATOM     30  C   UNL     1      -0.327   9.530  22.996  0.00  0.00    +0.000 C 
BRANCH  30  31
ATOM     31  O   UNL     1      -0.446  10.934  23.216  0.00  0.00    +0.000 OA
ATOM     32  H   UNL     1       0.266  11.372  22.722  0.00  0.00    +0.000 HD
ENDBRANCH  30  31
ENDBRANCH  29  30
ENDBRANCH   5  29
TORSDOF 12
ENDMDL
MODEL 4
REMARK VINA RESULT:      -6.8      0.955      2.659
REMARK  Name = 
REMARK  14 active torsions:
REMARK  status: ('A' for Active; 'I' for Inactive)
REMARK    1  A    between atoms: C_1  and  O_2
REMARK    2  A    between atoms: O_2  and  C_3
REMARK    3  A    between atoms: C_5  and  C_6
REMARK    4  A    between atoms: C_6  and  N_7
REMARK    5  A    between atoms: N_10  and  C_11
REMARK    6  A    between atoms: C_11  and  C_12
REMARK    7  A    between atoms: C_12  and  C_13
REMARK    8  A    between atoms: C_13  and  C_14
REMARK    9  A    between atoms: C_20  and  C_21
REMARK   10  A    between atoms: C_21  and  C_22
REMARK   11  A    between atoms: C_22  and  O_23
REMARK   12  A    between atoms: C_26  and  O_27
REMARK   13  A    between atoms: O_27  and  C_28
REMARK   14  A    between atoms: C_29  and  O_30
REMARK                            x       y       z     vdW  Elec       q    Type
REMARK                         _______ _______ _______ _____ _____    ______ ____
ROOT
ATOM      1  N   UNL     1       1.902   8.016  18.464  0.00  0.00    +0.000 NA
ATOM      2  C   UNL     1       1.345   9.174  17.735  0.00  0.00    +0.000 C 
ATOM      3  C   UNL     1       0.094   9.770  18.420  0.00  0.00    +0.000 C 
ATOM      4  N   UNL     1       0.317  10.167  19.829  0.00  0.00    +0.000 NA
ATOM      5  C   UNL     1       0.750   8.931  20.544  0.00  0.00    +0.000 C 
ATOM      6  C   UNL     1       2.036   8.294  19.916  0.00  0.00    +0.000 C 
ENDROOT
BRANCH   1   7
ATOM      7  C   UNL     1       3.194   7.602  17.883  0.00  0.00    +0.000 C 
BRANCH   7  10
ATOM      8  C   UNL     1       5.458   4.608  18.720  0.00  0.00    +0.000 A 
ATOM      9  C   UNL     1       5.012   5.870  18.279  0.00  0.00    +0.000 A 
ATOM     10  C   UNL     1       3.640   6.195  18.250  0.00  0.00    +0.000 A 
ATOM     11  C   UNL     1       2.719   5.228  18.681  0.00  0.00    +0.000 A 
ATOM     12  C   UNL     1       3.156   3.991  19.165  0.00  0.00    +0.000 A 
ATOM     13  C   UNL     1       4.524   3.680  19.177  0.00  0.00    +0.000 A 
BRANCH   8  15
ATOM     14  C   UNL     1       7.424   4.646  17.375  0.00  0.00    +0.000 C 
ATOM     15  O   UNL     1       6.820   4.456  18.649  0.00  0.00    +0.000 OA
ENDBRANCH   8  15
BRANCH  12  16
ATOM     16  O   UNL     1       2.180   3.097  19.530  0.00  0.00    +0.000 OA
ATOM     17  C   UNL     1       1.563   2.434  18.423  0.00  0.00    +0.000 C 
ENDBRANCH  12  16
BRANCH  13  18
ATOM     18  O   UNL     1       4.929   2.452  19.624  0.00  0.00    +0.000 OA
ATOM     19  H   UNL     1       4.177   1.855  19.477  0.00  0.00    +0.000 HD
ENDBRANCH  13  18
ENDBRANCH   7  10
ENDBRANCH   1   7
BRANCH   4  20
ATOM     20  C   UNL     1       1.281  11.281  19.964  0.00  0.00    +0.000 C 
BRANCH  20  21
ATOM     21  C   UNL     1       0.985  12.516  19.100  0.00  0.00    +0.000 C 
BRANCH  21  22
ATOM     22  C   UNL     1       2.087  13.572  19.173  0.00  0.00    +0.000 C 
BRANCH  22  23
ATOM     23  C   UNL     1       1.547  14.935  18.811  0.00  0.00    +0.000 A 
ATOM     24  C   UNL     1       0.172  15.190  18.889  0.00  0.00    +0.000 A 
ATOM     25  C   UNL     1      -0.341  16.434  18.517  0.00  0.00    +0.000 A 
ATOM     26  C   UNL     1       0.515  17.429  18.058  0.00  0.00    +0.000 A 
ATOM     27  C   UNL     1       1.887  17.187  17.977  0.00  0.00    +0.000 A 
ATOM     28  C   UNL     1       2.401  15.944  18.350  0.00  0.00    +0.000 A 
ENDBRANCH  22  23
ENDBRANCH  21  22
ENDBRANCH  20  21
ENDBRANCH   4  20
BRANCH   5  29
ATOM     29  C   UNL     1       0.861   9.109  22.072  0.00  0.00    +0.000 C 
BRANCH  29  30
ATOM     30  C   UNL     1      -0.477   9.468  22.714  0.00  0.00    +0.000 C 
BRANCH  30  31
ATOM     31  O   UNL     1      -0.392  10.745  23.341  0.00  0.00    +0.000 OA
ATOM     32  H   UNL     1       0.375  10.730  23.938  0.00  0.00    +0.000 HD
ENDBRANCH  30  31
ENDBRANCH  29  30
ENDBRANCH   5  29
TORSDOF 12
ENDMDL
MODEL 5
REMARK VINA RESULT:      -6.8      1.938      8.416
REMARK  Name = 
REMARK  14 active torsions:
REMARK  status: ('A' for Active; 'I' for Inactive)
REMARK    1  A    between atoms: C_1  and  O_2
REMARK    2  A    between atoms: O_2  and  C_3
REMARK    3  A    between atoms: C_5  and  C_6
REMARK    4  A    between atoms: C_6  and  N_7
REMARK    5  A    between atoms: N_10  and  C_11
REMARK    6  A    between atoms: C_11  and  C_12
REMARK    7  A    between atoms: C_12  and  C_13
REMARK    8  A    between atoms: C_13  and  C_14
REMARK    9  A    between atoms: C_20  and  C_21
REMARK   10  A    between atoms: C_21  and  C_22
REMARK   11  A    between atoms: C_22  and  O_23
REMARK   12  A    between atoms: C_26  and  O_27
REMARK   13  A    between atoms: O_27  and  C_28
REMARK   14  A    between atoms: C_29  and  O_30
REMARK                            x       y       z     vdW  Elec       q    Type
REMARK                         _______ _______ _______ _____ _____    ______ ____
ROOT
ATOM      1  N   UNL     1       2.347   7.254  18.480  0.00  0.00    +0.000 NA
ATOM      2  C   UNL     1       3.813   7.069  18.458  0.00  0.00    +0.000 C 
ATOM      3  C   UNL     1       4.254   5.693  19.006  0.00  0.00    +0.000 C 
ATOM      4  N   UNL     1       3.626   4.545  18.311  0.00  0.00    +0.000 NA
ATOM      5  C   UNL     1       2.153   4.714  18.481  0.00  0.00    +0.000 C 
ATOM      6  C   UNL     1       1.637   6.080  17.914  0.00  0.00    +0.000 C 
ENDROOT
BRANCH   1   7
ATOM      7  C   UNL     1       1.964   8.495  17.779  0.00  0.00    +0.000 C 
BRANCH   7  10
ATOM      8  C   UNL     1       0.272  10.247  20.756  0.00  0.00    +0.000 A 
ATOM      9  C   UNL     1       0.710   9.254  19.856  0.00  0.00    +0.000 A 
ATOM     10  C   UNL     1       1.400   9.588  18.673  0.00  0.00    +0.000 A 
ATOM     11  C   UNL     1       1.651  10.945  18.411  0.00  0.00    +0.000 A 
ATOM     12  C   UNL     1       1.263  11.931  19.322  0.00  0.00    +0.000 A 
ATOM     13  C   UNL     1       0.568  11.582  20.489  0.00  0.00    +0.000 A 
BRANCH   8  15
ATOM     14  C   UNL     1       0.355   9.438  22.995  0.00  0.00    +0.000 C 
ATOM     15  O   UNL     1      -0.409   9.741  21.835  0.00  0.00    +0.000 OA
ENDBRANCH   8  15
BRANCH  12  16
ATOM     16  O   UNL     1       1.519  13.232  18.962  0.00  0.00    +0.000 OA
ATOM     17  C   UNL     1       2.807  13.423  18.372  0.00  0.00    +0.000 C 
ENDBRANCH  12  16
BRANCH  13  18
ATOM     18  O   UNL     1       0.167  12.566  21.351  0.00  0.00    +0.000 OA
ATOM     19  H   UNL     1       0.812  12.561  22.078  0.00  0.00    +0.000 HD
ENDBRANCH  13  18
ENDBRANCH   7  10
ENDBRANCH   1   7
BRANCH   4  20
ATOM     20  C   UNL     1       4.037   4.440  16.895  0.00  0.00    +0.000 C 
BRANCH  20  21
ATOM     21  C   UNL     1       5.208   3.485  16.617  0.00  0.00    +0.000 C 
BRANCH  21  22
ATOM     22  C   UNL     1       6.416   4.187  15.998  0.00  0.00    +0.000 C 
BRANCH  22  23
ATOM     23  C   UNL     1       6.987   5.209  16.951  0.00  0.00    +0.000 A 
ATOM     24  C   UNL     1       7.011   6.564  16.596  0.00  0.00    +0.000 A 
ATOM     25  C   UNL     1       7.575   7.511  17.454  0.00  0.00    +0.000 A 
ATOM     26  C   UNL     1       8.125   7.110  18.666  0.00  0.00    +0.000 A 
ATOM     27  C   UNL     1       8.106   5.764  19.030  0.00  0.00    +0.000 A 
ATOM     28  C   UNL     1       7.542   4.816  18.175  0.00  0.00    +0.000 A 
ENDBRANCH  22  23
ENDBRANCH  21  22
ENDBRANCH  20  21
ENDBRANCH   4  20
BRANCH   5  29
ATOM     29  C   UNL     1       1.332   3.512  17.971  0.00  0.00    +0.000 C 
BRANCH  29  30
ATOM     30  C   UNL     1       1.558   2.257  18.810  0.00  0.00    +0.000 C 
BRANCH  30  31
ATOM     31  O   UNL     1       2.650   1.507  18.284  0.00  0.00    +0.000 OA
ATOM     32  H   UNL     1       3.467   1.998  18.477  0.00  0.00    +0.000 HD
ENDBRANCH  30  31
ENDBRANCH  29  30
ENDBRANCH   5  29
TORSDOF 12
ENDMDL
MODEL 6
REMARK VINA RESULT:      -6.8      0.835      2.381
REMARK  Name = 
REMARK  14 active torsions:
REMARK  status: ('A' for Active; 'I' for Inactive)
REMARK    1  A    between atoms: C_1  and  O_2
REMARK    2  A    between atoms: O_2  and  C_3
REMARK    3  A    between atoms: C_5  and  C_6
REMARK    4  A    between atoms: C_6  and  N_7
REMARK    5  A    between atoms: N_10  and  C_11
REMARK    6  A    between atoms: C_11  and  C_12
REMARK    7  A    between atoms: C_12  and  C_13
REMARK    8  A    between atoms: C_13  and  C_14
REMARK    9  A    between atoms: C_20  and  C_21
REMARK   10  A    between atoms: C_21  and  C_22
REMARK   11  A    between atoms: C_22  and  O_23
REMARK   12  A    between atoms: C_26  and  O_27
REMARK   13  A    between atoms: O_27  and  C_28
REMARK   14  A    between atoms: C_29  and  O_30
REMARK                            x       y       z     vdW  Elec       q    Type
REMARK                         _______ _______ _______ _____ _____    ______ ____
ROOT
ATOM      1  N   UNL     1       1.768   8.291  18.558  0.00  0.00    +0.000 NA
ATOM      2  C   UNL     1       1.221   9.525  17.956  0.00  0.00    +0.000 C 
ATOM      3  C   UNL     1      -0.008  10.071  18.717  0.00  0.00    +0.000 C 
ATOM      4  N   UNL     1       0.244  10.324  20.155  0.00  0.00    +0.000 NA
ATOM      5  C   UNL     1       0.664   9.016  20.737  0.00  0.00    +0.000 C 
ATOM      6  C   UNL     1       1.929   8.422  20.028  0.00  0.00    +0.000 C 
ENDROOT
BRANCH   1   7
ATOM      7  C   UNL     1       3.042   7.914  17.917  0.00  0.00    +0.000 C 
BRANCH   7  10
ATOM      8  C   UNL     1       4.747   4.553  17.151  0.00  0.00    +0.000 A 
ATOM      9  C   UNL     1       4.457   5.931  17.189  0.00  0.00    +0.000 A 
ATOM     10  C   UNL     1       3.275   6.417  17.784  0.00  0.00    +0.000 A 
ATOM     11  C   UNL     1       2.386   5.489  18.348  0.00  0.00    +0.000 A 
ATOM     12  C   UNL     1       2.689   4.124  18.357  0.00  0.00    +0.000 A 
ATOM     13  C   UNL     1       3.865   3.658  17.753  0.00  0.00    +0.000 A 
BRANCH   8  15
ATOM     14  C   UNL     1       7.129   4.573  17.193  0.00  0.00    +0.000 C 
ATOM     15  O   UNL     1       5.923   4.262  16.506  0.00  0.00    +0.000 OA
ENDBRANCH   8  15
BRANCH  12  16
ATOM     16  O   UNL     1       1.742   3.290  18.900  0.00  0.00    +0.000 OA
ATOM     17  C   UNL     1       1.023   3.869  19.992  0.00  0.00    +0.000 C 
ENDBRANCH  12  16
BRANCH  13  18
ATOM     18  O   UNL     1       4.127   2.315  17.743  0.00  0.00    +0.000 OA
ATOM     19  H   UNL     1       3.357   1.897  17.325  0.00  0.00    +0.000 HD
ENDBRANCH  13  18
ENDBRANCH   7  10
ENDBRANCH   1   7
BRANCH   4  20
ATOM     20  C   UNL     1       1.230  11.402  20.382  0.00  0.00    +0.000 C 
BRANCH  20  21
ATOM     21  C   UNL     1       1.017  12.676  19.550  0.00  0.00    +0.000 C 
BRANCH  21  22
ATOM     22  C   UNL     1       2.288  13.146  18.844  0.00  0.00    +0.000 C 
BRANCH  22  23
ATOM     23  C   UNL     1       2.176  14.601  18.455  0.00  0.00    +0.000 A 
ATOM     24  C   UNL     1       3.209  15.219  17.738  0.00  0.00    +0.000 A 
ATOM     25  C   UNL     1       3.133  16.574  17.410  0.00  0.00    +0.000 A 
ATOM     26  C   UNL     1       2.029  17.322  17.803  0.00  0.00    +0.000 A 
ATOM     27  C   UNL     1       0.993  16.718  18.517  0.00  0.00    +0.000 A 
ATOM     28  C   UNL     1       1.068  15.363  18.844  0.00  0.00    +0.000 A 
ENDBRANCH  22  23
ENDBRANCH  21  22
ENDBRANCH  20  21
ENDBRANCH   4  20
BRANCH   5  29
ATOM     29  C   UNL     1       0.802   9.040  22.273  0.00  0.00    +0.000 C 
BRANCH  29  30
ATOM     30  C   UNL     1      -0.498   9.443  22.966  0.00  0.00    +0.000 C 
BRANCH  30  31
ATOM     31  O   UNL     1      -0.463  10.827  23.304  0.00  0.00    +0.000 OA
ATOM     32  H   UNL     1      -0.841  10.924  24.194  0.00  0.00    +0.000 HD
ENDBRANCH  30  31
ENDBRANCH  29  30
ENDBRANCH   5  29
TORSDOF 12
ENDMDL
MODEL 7
REMARK VINA RESULT:      -6.8      1.979      3.989
REMARK  Name = 
REMARK  14 active torsions:
REMARK  status: ('A' for Active; 'I' for Inactive)
REMARK    1  A    between atoms: C_1  and  O_2
REMARK    2  A    between atoms: O_2  and  C_3
REMARK    3  A    between atoms: C_5  and  C_6
REMARK    4  A    between atoms: C_6  and  N_7
REMARK    5  A    between atoms: N_10  and  C_11
REMARK    6  A    between atoms: C_11  and  C_12
REMARK    7  A    between atoms: C_12  and  C_13
REMARK    8  A    between atoms: C_13  and  C_14
REMARK    9  A    between atoms: C_20  and  C_21
REMARK   10  A    between atoms: C_21  and  C_22
REMARK   11  A    between atoms: C_22  and  O_23
REMARK   12  A    between atoms: C_26  and  O_27
REMARK   13  A    between atoms: O_27  and  C_28
REMARK   14  A    between atoms: C_29  and  O_30
REMARK                            x       y       z     vdW  Elec       q    Type
REMARK                         _______ _______ _______ _____ _____    ______ ____
ROOT
ATOM      1  N   UNL     1       1.975   8.047  18.405  0.00  0.00    +0.000 NA
ATOM      2  C   UNL     1       1.387   9.097  17.547  0.00  0.00    +0.000 C 
ATOM      3  C   UNL     1       0.122   9.737  18.160  0.00  0.00    +0.000 C 
ATOM      4  N   UNL     1       0.334  10.303  19.513  0.00  0.00    +0.000 NA
ATOM      5  C   UNL     1       0.799   9.170  20.366  0.00  0.00    +0.000 C 
ATOM      6  C   UNL     1       2.101   8.498  19.814  0.00  0.00    +0.000 C 
ENDROOT
BRANCH   1   7
ATOM      7  C   UNL     1       3.276   7.601  17.873  0.00  0.00    +0.000 C 
BRANCH   7  10
ATOM      8  C   UNL     1       5.462   4.524  18.613  0.00  0.00    +0.000 A 
ATOM      9  C   UNL     1       5.029   5.779  18.140  0.00  0.00    +0.000 A 
ATOM     10  C   UNL     1       3.691   6.197  18.286  0.00  0.00    +0.000 A 
ATOM     11  C   UNL     1       2.790   5.331  18.925  0.00  0.00    +0.000 A 
ATOM     12  C   UNL     1       3.223   4.105  19.441  0.00  0.00    +0.000 A 
ATOM     13  C   UNL     1       4.556   3.701  19.278  0.00  0.00    +0.000 A 
BRANCH   8  15
ATOM     14  C   UNL     1       7.290   4.697  17.096  0.00  0.00    +0.000 C 
ATOM     15  O   UNL     1       6.787   4.273  18.356  0.00  0.00    +0.000 OA
ENDBRANCH   8  15
BRANCH  12  16
ATOM     16  O   UNL     1       2.263   3.310  20.018  0.00  0.00    +0.000 OA
ATOM     17  C   UNL     1       2.000   3.626  21.388  0.00  0.00    +0.000 C 
ENDBRANCH  12  16
BRANCH  13  18
ATOM     18  O   UNL     1       4.951   2.483  19.760  0.00  0.00    +0.000 OA
ATOM     19  H   UNL     1       5.270   2.645  20.663  0.00  0.00    +0.000 HD
ENDBRANCH  13  18
ENDBRANCH   7  10
ENDBRANCH   1   7
BRANCH   4  20
ATOM     20  C   UNL     1       1.269  11.448  19.513  0.00  0.00    +0.000 C 
BRANCH  20  21
ATOM     21  C   UNL     1       0.621  12.828  19.702  0.00  0.00    +0.000 C 
BRANCH  21  22
ATOM     22  C   UNL     1       0.436  13.204  21.171  0.00  0.00    +0.000 C 
BRANCH  22  23
ATOM     23  C   UNL     1      -0.995  12.987  21.603  0.00  0.00    +0.000 A 
ATOM     24  C   UNL     1      -2.044  13.229  20.707  0.00  0.00    +0.000 A 
ATOM     25  C   UNL     1      -3.372  13.071  21.111  0.00  0.00    +0.000 A 
ATOM     26  C   UNL     1      -3.659  12.676  22.412  0.00  0.00    +0.000 A 
ATOM     27  C   UNL     1      -2.623  12.431  23.313  0.00  0.00    +0.000 A 
ATOM     28  C   UNL     1      -1.295  12.588  22.911  0.00  0.00    +0.000 A 
ENDBRANCH  22  23
ENDBRANCH  21  22
ENDBRANCH  20  21
ENDBRANCH   4  20
BRANCH   5  29
ATOM     29  C   UNL     1       0.905   9.530  21.863  0.00  0.00    +0.000 C 
BRANCH  29  30
ATOM     30  C   UNL     1      -0.358   9.164  22.639  0.00  0.00    +0.000 C 
BRANCH  30  31
ATOM     31  O   UNL     1      -0.167   9.416  24.029  0.00  0.00    +0.000 OA
ATOM     32  H   UNL     1       0.639   8.949  24.306  0.00  0.00    +0.000 HD
ENDBRANCH  30  31
ENDBRANCH  29  30
ENDBRANCH   5  29
TORSDOF 12
ENDMDL
MODEL 8
REMARK VINA RESULT:      -6.7      2.860      8.896
REMARK  Name = 
REMARK  14 active torsions:
REMARK  status: ('A' for Active; 'I' for Inactive)
REMARK    1  A    between atoms: C_1  and  O_2
REMARK    2  A    between atoms: O_2  and  C_3
REMARK    3  A    between atoms: C_5  and  C_6
REMARK    4  A    between atoms: C_6  and  N_7
REMARK    5  A    between atoms: N_10  and  C_11
REMARK    6  A    between atoms: C_11  and  C_12
REMARK    7  A    between atoms: C_12  and  C_13
REMARK    8  A    between atoms: C_13  and  C_14
REMARK    9  A    between atoms: C_20  and  C_21
REMARK   10  A    between atoms: C_21  and  C_22
REMARK   11  A    between atoms: C_22  and  O_23
REMARK   12  A    between atoms: C_26  and  O_27
REMARK   13  A    between atoms: O_27  and  C_28
REMARK   14  A    between atoms: C_29  and  O_30
REMARK                            x       y       z     vdW  Elec       q    Type
REMARK                         _______ _______ _______ _____ _____    ______ ____
ROOT
ATOM      1  N   UNL     1       2.773   6.665  18.930  0.00  0.00    +0.000 NA
ATOM      2  C   UNL     1       4.127   6.560  18.349  0.00  0.00    +0.000 C 
ATOM      3  C   UNL     1       4.943   5.384  18.933  0.00  0.00    +0.000 C 
ATOM      4  N   UNL     1       4.273   4.069  18.801  0.00  0.00    +0.000 NA
ATOM      5  C   UNL     1       2.971   4.195  19.519  0.00  0.00    +0.000 C 
ATOM      6  C   UNL     1       2.081   5.352  18.951  0.00  0.00    +0.000 C 
ENDROOT
BRANCH   1   7
ATOM      7  C   UNL     1       1.971   7.675  18.213  0.00  0.00    +0.000 C 
BRANCH   7  10
ATOM      8  C   UNL     1       1.117   9.852  21.267  0.00  0.00    +0.000 A 
ATOM      9  C   UNL     1       1.409   8.740  20.453  0.00  0.00    +0.000 A 
ATOM     10  C   UNL     1       1.540   8.866  19.054  0.00  0.00    +0.000 A 
ATOM     11  C   UNL     1       1.376  10.139  18.485  0.00  0.00    +0.000 A 
ATOM     12  C   UNL     1       1.133  11.256  19.291  0.00  0.00    +0.000 A 
ATOM     13  C   UNL     1       0.998  11.110  20.679  0.00  0.00    +0.000 A 
BRANCH   8  15
ATOM     14  C   UNL     1      -0.323   9.479  23.128  0.00  0.00    +0.000 C 
ATOM     15  O   UNL     1       0.995   9.536  22.597  0.00  0.00    +0.000 OA
ENDBRANCH   8  15
BRANCH  12  16
ATOM     16  O   UNL     1       0.952  12.452  18.641  0.00  0.00    +0.000 OA
ATOM     17  C   UNL     1       2.174  13.098  18.272  0.00  0.00    +0.000 C 
ENDBRANCH  12  16
BRANCH  13  18
ATOM     18  O   UNL     1       0.727  12.210  21.446  0.00  0.00    +0.000 OA
ATOM     19  H   UNL     1       1.492  12.319  22.034  0.00  0.00    +0.000 HD
ENDBRANCH  13  18
ENDBRANCH   7  10
ENDBRANCH   1   7
BRANCH   4  20
ATOM     20  C   UNL     1       4.118   3.646  17.393  0.00  0.00    +0.000 C 
BRANCH  20  21
ATOM     21  C   UNL     1       4.809   4.544  16.355  0.00  0.00    +0.000 C 
BRANCH  21  22
ATOM     22  C   UNL     1       6.253   4.130  16.075  0.00  0.00    +0.000 C 
BRANCH  22  23
ATOM     23  C   UNL     1       6.547   4.183  14.595  0.00  0.00    +0.000 A 
ATOM     24  C   UNL     1       7.518   5.065  14.103  0.00  0.00    +0.000 A 
ATOM     25  C   UNL     1       7.767   5.150  12.732  0.00  0.00    +0.000 A 
ATOM     26  C   UNL     1       7.045   4.362  11.844  0.00  0.00    +0.000 A 
ATOM     27  C   UNL     1       6.077   3.479  12.322  0.00  0.00    +0.000 A 
ATOM     28  C   UNL     1       5.826   3.391  13.693  0.00  0.00    +0.000 A 
ENDBRANCH  22  23
ENDBRANCH  21  22
ENDBRANCH  20  21
ENDBRANCH   4  20
BRANCH   5  29
ATOM     29  C   UNL     1       2.204   2.862  19.642  0.00  0.00    +0.000 C 
BRANCH  29  30
ATOM     30  C   UNL     1       1.604   2.663  21.032  0.00  0.00    +0.000 C 
BRANCH  30  31
ATOM     31  O   UNL     1       2.599   2.881  22.029  0.00  0.00    +0.000 OA
ATOM     32  H   UNL     1       3.075   2.044  22.161  0.00  0.00    +0.000 HD
ENDBRANCH  30  31
ENDBRANCH  29  30
ENDBRANCH   5  29
TORSDOF 12
ENDMDL
MODEL 9
REMARK VINA RESULT:      -6.6      0.867      1.078
REMARK  Name = 
REMARK  14 active torsions:
REMARK  status: ('A' for Active; 'I' for Inactive)
REMARK    1  A    between atoms: C_1  and  O_2
REMARK    2  A    between atoms: O_2  and  C_3
REMARK    3  A    between atoms: C_5  and  C_6
REMARK    4  A    between atoms: C_6  and  N_7
REMARK    5  A    between atoms: N_10  and  C_11
REMARK    6  A    between atoms: C_11  and  C_12
REMARK    7  A    between atoms: C_12  and  C_13
REMARK    8  A    between atoms: C_13  and  C_14
REMARK    9  A    between atoms: C_20  and  C_21
REMARK   10  A    between atoms: C_21  and  C_22
REMARK   11  A    between atoms: C_22  and  O_23
REMARK   12  A    between atoms: C_26  and  O_27
REMARK   13  A    between atoms: O_27  and  C_28
REMARK   14  A    between atoms: C_29  and  O_30
REMARK                            x       y       z     vdW  Elec       q    Type
REMARK                         _______ _______ _______ _____ _____    ______ ____
ROOT
ATOM      1  N   UNL     1       1.781   8.169  18.380  0.00  0.00    +0.000 NA
ATOM      2  C   UNL     1       1.201   9.292  17.614  0.00  0.00    +0.000 C 
ATOM      3  C   UNL     1      -0.003   9.948  18.326  0.00  0.00    +0.000 C 
ATOM      4  N   UNL     1       0.300  10.423  19.696  0.00  0.00    +0.000 NA
ATOM      5  C   UNL     1       0.753   9.224  20.459  0.00  0.00    +0.000 C 
ATOM      6  C   UNL     1       1.995   8.529  19.804  0.00  0.00    +0.000 C 
ENDROOT
BRANCH   1   7
ATOM      7  C   UNL     1       3.033   7.699  17.757  0.00  0.00    +0.000 C 
BRANCH   7  10
ATOM      8  C   UNL     1       2.677   3.875  17.954  0.00  0.00    +0.000 A 
ATOM      9  C   UNL     1       2.372   5.246  17.837  0.00  0.00    +0.000 A 
ATOM     10  C   UNL     1       3.362   6.235  18.005  0.00  0.00    +0.000 A 
ATOM     11  C   UNL     1       4.673   5.821  18.288  0.00  0.00    +0.000 A 
ATOM     12  C   UNL     1       4.994   4.463  18.358  0.00  0.00    +0.000 A 
ATOM     13  C   UNL     1       3.994   3.492  18.198  0.00  0.00    +0.000 A 
BRANCH   8  15
ATOM     14  C   UNL     1       0.914   2.638  18.973  0.00  0.00    +0.000 C 
ATOM     15  O   UNL     1       1.586   3.059  17.792  0.00  0.00    +0.000 OA
ENDBRANCH   8  15
BRANCH  12  16
ATOM     16  O   UNL     1       6.294   4.155  18.675  0.00  0.00    +0.000 OA
ATOM     17  C   UNL     1       7.253   4.691  17.759  0.00  0.00    +0.000 C 
ENDBRANCH  12  16
BRANCH  13  18
ATOM     18  O   UNL     1       4.322   2.167  18.304  0.00  0.00    +0.000 OA
ATOM     19  H   UNL     1       4.709   2.059  19.187  0.00  0.00    +0.000 HD
ENDBRANCH  13  18
ENDBRANCH   7  10
ENDBRANCH   1   7
BRANCH   4  20
ATOM     20  C   UNL     1       1.285  11.526  19.713  0.00  0.00    +0.000 C 
BRANCH  20  21
ATOM     21  C   UNL     1       0.826  12.831  19.046  0.00  0.00    +0.000 C 
BRANCH  21  22
ATOM     22  C   UNL     1       1.264  14.079  19.811  0.00  0.00    +0.000 C 
BRANCH  22  23
ATOM     23  C   UNL     1       2.655  14.498  19.398  0.00  0.00    +0.000 A 
ATOM     24  C   UNL     1       3.668  14.617  20.358  0.00  0.00    +0.000 A 
ATOM     25  C   UNL     1       4.945  15.044  19.992  0.00  0.00    +0.000 A 
ATOM     26  C   UNL     1       5.217  15.363  18.666  0.00  0.00    +0.000 A 
ATOM     27  C   UNL     1       4.216  15.248  17.701  0.00  0.00    +0.000 A 
ATOM     28  C   UNL     1       2.939  14.820  18.065  0.00  0.00    +0.000 A 
ENDBRANCH  22  23
ENDBRANCH  21  22
ENDBRANCH  20  21
ENDBRANCH   4  20
BRANCH   5  29
ATOM     29  C   UNL     1       0.947   9.489  21.966  0.00  0.00    +0.000 C 
BRANCH  29  30
ATOM     30  C   UNL     1      -0.375   9.493  22.730  0.00  0.00    +0.000 C 
BRANCH  30  31
ATOM     31  O   UNL     1      -0.128   9.466  24.134  0.00  0.00    +0.000 OA
ATOM     32  H   UNL     1      -0.980   9.579  24.586  0.00  0.00    +0.000 HD
ENDBRANCH  30  31
ENDBRANCH  29  30
ENDBRANCH   5  29
TORSDOF 12
ENDMDL
