MODEL 1
REMARK VINA RESULT:      -7.5      0.000      0.000
REMARK  Name = 
REMARK  12 active torsions:
REMARK  status: ('A' for Active; 'I' for Inactive)
REMARK    1  A    between atoms: C_1  and  C_2
REMARK    2  A    between atoms: C_2  and  C_3
REMARK    3  A    between atoms: C_2  and  C_4
REMARK    4  A    between atoms: C_4  and  C_5
REMARK    5  A    between atoms: C_8  and  C_9
REMARK    6  A    between atoms: C_9  and  C_10
REMARK    7  A    between atoms: C_9  and  C_11
REMARK    8  A    between atoms: N_13  and  C_14
REMARK    9  A    between atoms: C_14  and  C_15
REMARK   10  A    between atoms: C_15  and  C_16
REMARK   11  A    between atoms: C_16  and  SE_17
REMARK   12  A    between atoms: SE_17  and  C_18
REMARK                            x       y       z     vdW  Elec       q    Type
REMARK                         _______ _______ _______ _____ _____    ______ ____
ROOT
ATOM      1  C   UNL     1       6.463   6.442  17.124  0.00  0.00    +0.000 C 
ATOM      2  C   UNL     1       7.648   6.691  18.072  0.00  0.00    +0.000 C 
ENDROOT
BRANCH   1   6
ATOM      3  C   UNL     1       2.901   5.192  19.332  0.00  0.00    +0.000 A 
ATOM      4  C   UNL     1       2.811   6.073  18.244  0.00  0.00    +0.000 A 
ATOM      5  C   UNL     1       3.963   6.446  17.544  0.00  0.00    +0.000 A 
ATOM      6  C   UNL     1       5.237   5.965  17.921  0.00  0.00    +0.000 A 
ATOM      7  C   UNL     1       5.306   5.068  19.015  0.00  0.00    +0.000 A 
ATOM      8  C   UNL     1       4.152   4.696  19.705  0.00  0.00    +0.000 A 
BRANCH   3   9
ATOM      9  C   UNL     1       1.672   4.721  20.074  0.00  0.00    +0.000 C 
BRANCH   9  11
ATOM     10  C   UNL     1       1.298   2.743  21.593  0.00  0.00    +0.000 C 
ATOM     11  C   UNL     1       1.664   3.179  20.167  0.00  0.00    +0.000 C 
ATOM     12  C   UNL     1       0.689   2.560  19.159  0.00  0.00    +0.000 C 
ENDBRANCH   9  11
ENDBRANCH   3   9
ENDBRANCH   1   6
BRANCH   1  13
ATOM     13  C   UNL     1       6.920   5.538  15.984  0.00  0.00    +0.000 C 
ATOM     14  O   UNL     1       7.848   4.769  16.200  0.00  0.00    +0.000 OA
ATOM     15  N   UNL     1       6.318   5.527  14.759  0.00  0.00    +0.000 N 
ATOM     16  H   UNL     1       5.526   6.160  14.565  0.00  0.00    +0.000 HD
BRANCH  15  17
ATOM     17  C   UNL     1       6.810   4.622  13.730  0.00  0.00    +0.000 C 
BRANCH  17  18
ATOM     18  C   UNL     1       5.848   3.477  13.434  0.00  0.00    +0.000 C 
BRANCH  18  19
ATOM     19  C   UNL     1       5.618   3.314  11.917  0.00  0.00    +0.000 C 
BRANCH  19  20
ATOM     20 SE   UNL     1       7.112   2.213  11.254  0.00  0.00    +0.000 Se
BRANCH  20  21
ATOM     21  C   UNL     1       6.376   0.447  11.216  0.00  0.00    +0.000 C 
ATOM     22  N   UNL     1       5.950  -0.632  11.194  0.00  0.00    +0.000 NA
ENDBRANCH  20  21
ENDBRANCH  19  20
ENDBRANCH  18  19
ENDBRANCH  17  18
ENDBRANCH  15  17
ENDBRANCH   1  13
TORSDOF 9
ENDMDL
MODEL 2
REMARK VINA RESULT:      -7.3      3.521      7.258
REMARK  Name = 
REMARK  12 active torsions:
REMARK  status: ('A' for Active; 'I' for Inactive)
REMARK    1  A    between atoms: C_1  and  C_2
REMARK    2  A    between atoms: C_2  and  C_3
REMARK    3  A    between atoms: C_2  and  C_4
REMARK    4  A    between atoms: C_4  and  C_5
REMARK    5  A    between atoms: C_8  and  C_9
REMARK    6  A    between atoms: C_9  and  C_10
REMARK    7  A    between atoms: C_9  and  C_11
REMARK    8  A    between atoms: N_13  and  C_14
REMARK    9  A    between atoms: C_14  and  C_15
REMARK   10  A    between atoms: C_15  and  C_16
REMARK   11  A    between atoms: C_16  and  SE_17
REMARK   12  A    between atoms: SE_17  and  C_18
REMARK                            x       y       z     vdW  Elec       q    Type
REMARK                         _______ _______ _______ _____ _____    ______ ____
ROOT
ATOM      1  C   UNL     1       6.160   5.454  17.705  0.00  0.00    +0.000 C 
ATOM      2  C   UNL     1       5.722   6.927  17.748  0.00  0.00    +0.000 C 
ENDROOT
BRANCH   1   6
ATOM      3  C   UNL     1       6.375   4.124  13.544  0.00  0.00    +0.000 A 
ATOM      4  C   UNL     1       7.412   4.868  14.125  0.00  0.00    +0.000 A 
ATOM      5  C   UNL     1       7.328   5.269  15.463  0.00  0.00    +0.000 A 
ATOM      6  C   UNL     1       6.197   4.954  16.251  0.00  0.00    +0.000 A 
ATOM      7  C   UNL     1       5.165   4.193  15.649  0.00  0.00    +0.000 A 
ATOM      8  C   UNL     1       5.261   3.792  14.317  0.00  0.00    +0.000 A 
BRANCH   3   9
ATOM      9  C   UNL     1       6.460   3.624  12.122  0.00  0.00    +0.000 C 
BRANCH   9  11
ATOM     10  C   UNL     1       4.215   3.122  11.085  0.00  0.00    +0.000 C 
ATOM     11  C   UNL     1       5.393   2.534  11.876  0.00  0.00    +0.000 C 
ATOM     12  C   UNL     1       5.980   1.330  11.129  0.00  0.00    +0.000 C 
ENDBRANCH   9  11
ENDBRANCH   3   9
ENDBRANCH   1   6
BRANCH   1  13
ATOM     13  C   UNL     1       5.297   4.651  18.673  0.00  0.00    +0.000 C 
ATOM     14  O   UNL     1       4.473   5.259  19.344  0.00  0.00    +0.000 OA
ATOM     15  N   UNL     1       5.382   3.294  18.791  0.00  0.00    +0.000 N 
ATOM     16  H   UNL     1       6.062   2.765  18.222  0.00  0.00    +0.000 HD
BRANCH  15  17
ATOM     17  C   UNL     1       4.510   2.604  19.731  0.00  0.00    +0.000 C 
BRANCH  17  18
ATOM     18  C   UNL     1       3.497   1.693  19.046  0.00  0.00    +0.000 C 
BRANCH  18  19
ATOM     19  C   UNL     1       2.519   2.501  18.168  0.00  0.00    +0.000 C 
BRANCH  19  20
ATOM     20 SE   UNL     1       0.792   2.487  19.120  0.00  0.00    +0.000 Se
BRANCH  20  21
ATOM     21  C   UNL     1       1.293   2.764  20.946  0.00  0.00    +0.000 C 
ATOM     22  N   UNL     1       1.604   2.911  22.054  0.00  0.00    +0.000 NA
ENDBRANCH  20  21
ENDBRANCH  19  20
ENDBRANCH  18  19
ENDBRANCH  17  18
ENDBRANCH  15  17
ENDBRANCH   1  13
TORSDOF 9
ENDMDL
MODEL 3
REMARK VINA RESULT:      -7.2      4.600      6.910
REMARK  Name = 
REMARK  12 active torsions:
REMARK  status: ('A' for Active; 'I' for Inactive)
REMARK    1  A    between atoms: C_1  and  C_2
REMARK    2  A    between atoms: C_2  and  C_3
REMARK    3  A    between atoms: C_2  and  C_4
REMARK    4  A    between atoms: C_4  and  C_5
REMARK    5  A    between atoms: C_8  and  C_9
REMARK    6  A    between atoms: C_9  and  C_10
REMARK    7  A    between atoms: C_9  and  C_11
REMARK    8  A    between atoms: N_13  and  C_14
REMARK    9  A    between atoms: C_14  and  C_15
REMARK   10  A    between atoms: C_15  and  C_16
REMARK   11  A    between atoms: C_16  and  SE_17
REMARK   12  A    between atoms: SE_17  and  C_18
REMARK                            x       y       z     vdW  Elec       q    Type
REMARK                         _______ _______ _______ _____ _____    ______ ____
ROOT
ATOM      1  C   UNL     1       7.075   5.517  18.310  0.00  0.00    +0.000 C 
ATOM      2  C   UNL     1       7.975   4.478  17.618  0.00  0.00    +0.000 C 
ENDROOT
BRANCH   1   6
ATOM      3  C   UNL     1       2.858   4.376  18.112  0.00  0.00    +0.000 A 
ATOM      4  C   UNL     1       3.350   5.166  19.162  0.00  0.00    +0.000 A 
ATOM      5  C   UNL     1       4.701   5.531  19.195  0.00  0.00    +0.000 A 
ATOM      6  C   UNL     1       5.599   5.102  18.192  0.00  0.00    +0.000 A 
ATOM      7  C   UNL     1       5.081   4.315  17.135  0.00  0.00    +0.000 A 
ATOM      8  C   UNL     1       3.732   3.960  17.106  0.00  0.00    +0.000 A 
BRANCH   3   9
ATOM      9  C   UNL     1       1.395   4.013  18.013  0.00  0.00    +0.000 C 
BRANCH   9  11
ATOM     10  C   UNL     1       2.151   1.850  19.068  0.00  0.00    +0.000 C 
ATOM     11  C   UNL     1       1.047   2.918  19.045  0.00  0.00    +0.000 C 
ATOM     12  C   UNL     1       0.855   3.507  20.447  0.00  0.00    +0.000 C 
ENDBRANCH   9  11
ENDBRANCH   3   9
ENDBRANCH   1   6
BRANCH   1  13
ATOM     13  C   UNL     1       7.430   6.906  17.789  0.00  0.00    +0.000 C 
ATOM     14  O   UNL     1       7.065   7.204  16.658  0.00  0.00    +0.000 OA
ATOM     15  N   UNL     1       8.098   7.830  18.537  0.00  0.00    +0.000 N 
ATOM     16  H   UNL     1       8.401   7.600  19.497  0.00  0.00    +0.000 HD
BRANCH  15  17
ATOM     17  C   UNL     1       8.385   9.139  17.967  0.00  0.00    +0.000 C 
BRANCH  17  18
ATOM     18  C   UNL     1       9.112  10.065  18.936  0.00  0.00    +0.000 C 
BRANCH  18  19
ATOM     19  C   UNL     1       9.250  11.488  18.356  0.00  0.00    +0.000 C 
BRANCH  19  20
ATOM     20 SE   UNL     1      11.176  11.763  18.037  0.00  0.00    +0.000 Se
BRANCH  20  21
ATOM     21  C   UNL     1      11.250  13.510  17.260  0.00  0.00    +0.000 C 
ATOM     22  N   UNL     1      11.315  14.565  16.781  0.00  0.00    +0.000 NA
ENDBRANCH  20  21
ENDBRANCH  19  20
ENDBRANCH  18  19
ENDBRANCH  17  18
ENDBRANCH  15  17
ENDBRANCH   1  13
TORSDOF 9
ENDMDL
MODEL 4
REMARK VINA RESULT:      -7.2      3.520      7.181
REMARK  Name = 
REMARK  12 active torsions:
REMARK  status: ('A' for Active; 'I' for Inactive)
REMARK    1  A    between atoms: C_1  and  C_2
REMARK    2  A    between atoms: C_2  and  C_3
REMARK    3  A    between atoms: C_2  and  C_4
REMARK    4  A    between atoms: C_4  and  C_5
REMARK    5  A    between atoms: C_8  and  C_9
REMARK    6  A    between atoms: C_9  and  C_10
REMARK    7  A    between atoms: C_9  and  C_11
REMARK    8  A    between atoms: N_13  and  C_14
REMARK    9  A    between atoms: C_14  and  C_15
REMARK   10  A    between atoms: C_15  and  C_16
REMARK   11  A    between atoms: C_16  and  SE_17
REMARK   12  A    between atoms: SE_17  and  C_18
REMARK                            x       y       z     vdW  Elec       q    Type
REMARK                         _______ _______ _______ _____ _____    ______ ____
ROOT
ATOM      1  C   UNL     1       5.885   5.809  17.496  0.00  0.00    +0.000 C 
ATOM      2  C   UNL     1       6.797   7.041  17.619  0.00  0.00    +0.000 C 
ENDROOT
BRANCH   1   6
ATOM      3  C   UNL     1       6.380   4.133  13.487  0.00  0.00    +0.000 A 
ATOM      4  C   UNL     1       7.340   4.992  14.040  0.00  0.00    +0.000 A 
ATOM      5  C   UNL     1       7.167   5.503  15.331  0.00  0.00    +0.000 A 
ATOM      6  C   UNL     1       6.022   5.186  16.096  0.00  0.00    +0.000 A 
ATOM      7  C   UNL     1       5.069   4.309  15.524  0.00  0.00    +0.000 A 
ATOM      8  C   UNL     1       5.252   3.798  14.239  0.00  0.00    +0.000 A 
BRANCH   3   9
ATOM      9  C   UNL     1       6.563   3.515  12.120  0.00  0.00    +0.000 C 
BRANCH   9  11
ATOM     10  C   UNL     1       4.305   3.059  11.093  0.00  0.00    +0.000 C 
ATOM     11  C   UNL     1       5.478   2.444  11.870  0.00  0.00    +0.000 C 
ATOM     12  C   UNL     1       6.042   1.240  11.107  0.00  0.00    +0.000 C 
ENDBRANCH   9  11
ENDBRANCH   3   9
ENDBRANCH   1   6
BRANCH   1  13
ATOM     13  C   UNL     1       4.474   6.190  17.929  0.00  0.00    +0.000 C 
ATOM     14  O   UNL     1       4.039   7.278  17.572  0.00  0.00    +0.000 OA
ATOM     15  N   UNL     1       3.673   5.361  18.659  0.00  0.00    +0.000 N 
ATOM     16  H   UNL     1       4.019   4.435  18.957  0.00  0.00    +0.000 HD
BRANCH  15  17
ATOM     17  C   UNL     1       2.332   5.799  19.020  0.00  0.00    +0.000 C 
BRANCH  17  18
ATOM     18  C   UNL     1       1.972   5.485  20.468  0.00  0.00    +0.000 C 
BRANCH  18  19
ATOM     19  C   UNL     1       1.017   4.276  20.560  0.00  0.00    +0.000 C 
BRANCH  19  20
ATOM     20 SE   UNL     1       2.126   2.748  21.129  0.00  0.00    +0.000 Se
BRANCH  20  21
ATOM     21  C   UNL     1       2.852   2.093  19.485  0.00  0.00    +0.000 C 
ATOM     22  N   UNL     1       3.273   1.687  18.482  0.00  0.00    +0.000 NA
ENDBRANCH  20  21
ENDBRANCH  19  20
ENDBRANCH  18  19
ENDBRANCH  17  18
ENDBRANCH  15  17
ENDBRANCH   1  13
TORSDOF 9
ENDMDL
MODEL 5
REMARK VINA RESULT:      -7.1      1.894      2.058
REMARK  Name = 
REMARK  12 active torsions:
REMARK  status: ('A' for Active; 'I' for Inactive)
REMARK    1  A    between atoms: C_1  and  C_2
REMARK    2  A    between atoms: C_2  and  C_3
REMARK    3  A    between atoms: C_2  and  C_4
REMARK    4  A    between atoms: C_4  and  C_5
REMARK    5  A    between atoms: C_8  and  C_9
REMARK    6  A    between atoms: C_9  and  C_10
REMARK    7  A    between atoms: C_9  and  C_11
REMARK    8  A    between atoms: N_13  and  C_14
REMARK    9  A    between atoms: C_14  and  C_15
REMARK   10  A    between atoms: C_15  and  C_16
REMARK   11  A    between atoms: C_16  and  SE_17
REMARK   12  A    between atoms: SE_17  and  C_18
REMARK                            x       y       z     vdW  Elec       q    Type
REMARK                         _______ _______ _______ _____ _____    ______ ____
ROOT
ATOM      1  C   UNL     1       6.235   6.582  16.953  0.00  0.00    +0.000 C 
ATOM      2  C   UNL     1       7.544   6.764  17.739  0.00  0.00    +0.000 C 
ENDROOT
BRANCH   1   6
ATOM      3  C   UNL     1       2.988   5.281  19.578  0.00  0.00    +0.000 A 
ATOM      4  C   UNL     1       2.790   6.284  18.617  0.00  0.00    +0.000 A 
ATOM      5  C   UNL     1       3.840   6.672  17.778  0.00  0.00    +0.000 A 
ATOM      6  C   UNL     1       5.120   6.084  17.889  0.00  0.00    +0.000 A 
ATOM      7  C   UNL     1       5.297   5.067  18.858  0.00  0.00    +0.000 A 
ATOM      8  C   UNL     1       4.243   4.681  19.686  0.00  0.00    +0.000 A 
BRANCH   3   9
ATOM      9  C   UNL     1       1.861   4.795  20.460  0.00  0.00    +0.000 C 
BRANCH   9  11
ATOM     10  C   UNL     1       1.342   2.692  21.752  0.00  0.00    +0.000 C 
ATOM     11  C   UNL     1       1.751   3.257  20.383  0.00  0.00    +0.000 C 
ATOM     12  C   UNL     1       0.748   2.817  19.311  0.00  0.00    +0.000 C 
ENDBRANCH   9  11
ENDBRANCH   3   9
ENDBRANCH   1   6
BRANCH   1  13
ATOM     13  C   UNL     1       6.510   5.731  15.719  0.00  0.00    +0.000 C 
ATOM     14  O   UNL     1       7.622   5.802  15.211  0.00  0.00    +0.000 OA
ATOM     15  N   UNL     1       5.589   4.877  15.186  0.00  0.00    +0.000 N 
ATOM     16  H   UNL     1       4.651   4.796  15.610  0.00  0.00    +0.000 HD
BRANCH  15  17
ATOM     17  C   UNL     1       5.939   4.091  14.012  0.00  0.00    +0.000 C 
BRANCH  17  18
ATOM     18  C   UNL     1       4.781   3.932  13.033  0.00  0.00    +0.000 C 
BRANCH  18  19
ATOM     19  C   UNL     1       5.249   3.298  11.707  0.00  0.00    +0.000 C 
BRANCH  19  20
ATOM     20 SE   UNL     1       3.635   2.541  10.865  0.00  0.00    +0.000 Se
BRANCH  20  21
ATOM     21  C   UNL     1       3.102   3.901   9.629  0.00  0.00    +0.000 C 
ATOM     22  N   UNL     1       2.798   4.737   8.884  0.00  0.00    +0.000 NA
ENDBRANCH  20  21
ENDBRANCH  19  20
ENDBRANCH  18  19
ENDBRANCH  17  18
ENDBRANCH  15  17
ENDBRANCH   1  13
TORSDOF 9
ENDMDL
MODEL 6
REMARK VINA RESULT:      -7.0      3.700      7.338
REMARK  Name = 
REMARK  12 active torsions:
REMARK  status: ('A' for Active; 'I' for Inactive)
REMARK    1  A    between atoms: C_1  and  C_2
REMARK    2  A    between atoms: C_2  and  C_3
REMARK    3  A    between atoms: C_2  and  C_4
REMARK    4  A    between atoms: C_4  and  C_5
REMARK    5  A    between atoms: C_8  and  C_9
REMARK    6  A    between atoms: C_9  and  C_10
REMARK    7  A    between atoms: C_9  and  C_11
REMARK    8  A    between atoms: N_13  and  C_14
REMARK    9  A    between atoms: C_14  and  C_15
REMARK   10  A    between atoms: C_15  and  C_16
REMARK   11  A    between atoms: C_16  and  SE_17
REMARK   12  A    between atoms: SE_17  and  C_18
REMARK                            x       y       z     vdW  Elec       q    Type
REMARK                         _______ _______ _______ _____ _____    ______ ____
ROOT
ATOM      1  C   UNL     1       5.952   5.739  17.343  0.00  0.00    +0.000 C 
ATOM      2  C   UNL     1       6.825   6.994  17.516  0.00  0.00    +0.000 C 
ENDROOT
BRANCH   1   6
ATOM      3  C   UNL     1       6.392   3.969  13.368  0.00  0.00    +0.000 A 
ATOM      4  C   UNL     1       5.380   3.549  14.244  0.00  0.00    +0.000 A 
ATOM      5  C   UNL     1       5.250   4.142  15.504  0.00  0.00    +0.000 A 
ATOM      6  C   UNL     1       6.138   5.155  15.932  0.00  0.00    +0.000 A 
ATOM      7  C   UNL     1       7.146   5.572  15.029  0.00  0.00    +0.000 A 
ATOM      8  C   UNL     1       7.265   4.981  13.772  0.00  0.00    +0.000 A 
BRANCH   3   9
ATOM      9  C   UNL     1       6.525   3.394  11.977  0.00  0.00    +0.000 C 
BRANCH   9  11
ATOM     10  C   UNL     1       4.275   2.936  10.934  0.00  0.00    +0.000 C 
ATOM     11  C   UNL     1       5.435   2.327  11.736  0.00  0.00    +0.000 C 
ATOM     12  C   UNL     1       5.997   1.104  11.003  0.00  0.00    +0.000 C 
ENDBRANCH   9  11
ENDBRANCH   3   9
ENDBRANCH   1   6
BRANCH   1  13
ATOM     13  C   UNL     1       4.522   6.068  17.754  0.00  0.00    +0.000 C 
ATOM     14  O   UNL     1       4.102   7.194  17.518  0.00  0.00    +0.000 OA
ATOM     15  N   UNL     1       3.689   5.156  18.336  0.00  0.00    +0.000 N 
ATOM     16  H   UNL     1       4.023   4.199  18.529  0.00  0.00    +0.000 HD
BRANCH  15  17
ATOM     17  C   UNL     1       2.332   5.550  18.686  0.00  0.00    +0.000 C 
BRANCH  17  18
ATOM     18  C   UNL     1       2.024   5.373  20.169  0.00  0.00    +0.000 C 
BRANCH  18  19
ATOM     19  C   UNL     1       1.075   4.180  20.407  0.00  0.00    +0.000 C 
BRANCH  19  20
ATOM     20 SE   UNL     1       2.048   2.936  21.587  0.00  0.00    +0.000 Se
BRANCH  20  21
ATOM     21  C   UNL     1       3.630   2.529  20.590  0.00  0.00    +0.000 C 
ATOM     22  N   UNL     1       4.587   2.260  19.990  0.00  0.00    +0.000 NA
ENDBRANCH  20  21
ENDBRANCH  19  20
ENDBRANCH  18  19
ENDBRANCH  17  18
ENDBRANCH  15  17
ENDBRANCH   1  13
TORSDOF 9
ENDMDL
MODEL 7
REMARK VINA RESULT:      -7.0      4.486      7.041
REMARK  Name = 
REMARK  12 active torsions:
REMARK  status: ('A' for Active; 'I' for Inactive)
REMARK    1  A    between atoms: C_1  and  C_2
REMARK    2  A    between atoms: C_2  and  C_3
REMARK    3  A    between atoms: C_2  and  C_4
REMARK    4  A    between atoms: C_4  and  C_5
REMARK    5  A    between atoms: C_8  and  C_9
REMARK    6  A    between atoms: C_9  and  C_10
REMARK    7  A    between atoms: C_9  and  C_11
REMARK    8  A    between atoms: N_13  and  C_14
REMARK    9  A    between atoms: C_14  and  C_15
REMARK   10  A    between atoms: C_15  and  C_16
REMARK   11  A    between atoms: C_16  and  SE_17
REMARK   12  A    between atoms: SE_17  and  C_18
REMARK                            x       y       z     vdW  Elec       q    Type
REMARK                         _______ _______ _______ _____ _____    ______ ____
ROOT
ATOM      1  C   UNL     1       6.751   5.143  16.610  0.00  0.00    +0.000 C 
ATOM      2  C   UNL     1       6.725   4.814  15.107  0.00  0.00    +0.000 C 
ENDROOT
BRANCH   1   6
ATOM      3  C   UNL     1       3.562   3.082  18.779  0.00  0.00    +0.000 A 
ATOM      4  C   UNL     1       4.636   3.678  19.457  0.00  0.00    +0.000 A 
ATOM      5  C   UNL     1       5.636   4.346  18.741  0.00  0.00    +0.000 A 
ATOM      6  C   UNL     1       5.601   4.419  17.330  0.00  0.00    +0.000 A 
ATOM      7  C   UNL     1       4.504   3.820  16.666  0.00  0.00    +0.000 A 
ATOM      8  C   UNL     1       3.507   3.163  17.386  0.00  0.00    +0.000 A 
BRANCH   3   9
ATOM      9  C   UNL     1       2.434   2.406  19.522  0.00  0.00    +0.000 C 
BRANCH   9  11
ATOM     10  C   UNL     1       0.926   4.289  20.260  0.00  0.00    +0.000 C 
ATOM     11  C   UNL     1       1.986   3.276  20.717  0.00  0.00    +0.000 C 
ATOM     12  C   UNL     1       1.435   2.419  21.863  0.00  0.00    +0.000 C 
ENDBRANCH   9  11
ENDBRANCH   3   9
ENDBRANCH   1   6
BRANCH   1  13
ATOM     13  C   UNL     1       6.812   6.656  16.786  0.00  0.00    +0.000 C 
ATOM     14  O   UNL     1       5.879   7.321  16.354  0.00  0.00    +0.000 OA
ATOM     15  N   UNL     1       7.837   7.287  17.430  0.00  0.00    +0.000 N 
ATOM     16  H   UNL     1       8.625   6.740  17.811  0.00  0.00    +0.000 HD
BRANCH  15  17
ATOM     17  C   UNL     1       7.810   8.736  17.565  0.00  0.00    +0.000 C 
BRANCH  17  18
ATOM     18  C   UNL     1       8.711   9.247  18.684  0.00  0.00    +0.000 C 
BRANCH  18  19
ATOM     19  C   UNL     1       9.212  10.677  18.394  0.00  0.00    +0.000 C 
BRANCH  19  20
ATOM     20 SE   UNL     1       9.826  11.401  20.122  0.00  0.00    +0.000 Se
BRANCH  20  21
ATOM     21  C   UNL     1      10.666  13.051  19.636  0.00  0.00    +0.000 C 
ATOM     22  N   UNL     1      11.180  14.055  19.363  0.00  0.00    +0.000 NA
ENDBRANCH  20  21
ENDBRANCH  19  20
ENDBRANCH  18  19
ENDBRANCH  17  18
ENDBRANCH  15  17
ENDBRANCH   1  13
TORSDOF 9
ENDMDL
MODEL 8
REMARK VINA RESULT:      -7.0      0.955      1.602
REMARK  Name = 
REMARK  12 active torsions:
REMARK  status: ('A' for Active; 'I' for Inactive)
REMARK    1  A    between atoms: C_1  and  C_2
REMARK    2  A    between atoms: C_2  and  C_3
REMARK    3  A    between atoms: C_2  and  C_4
REMARK    4  A    between atoms: C_4  and  C_5
REMARK    5  A    between atoms: C_8  and  C_9
REMARK    6  A    between atoms: C_9  and  C_10
REMARK    7  A    between atoms: C_9  and  C_11
REMARK    8  A    between atoms: N_13  and  C_14
REMARK    9  A    between atoms: C_14  and  C_15
REMARK   10  A    between atoms: C_15  and  C_16
REMARK   11  A    between atoms: C_16  and  SE_17
REMARK   12  A    between atoms: SE_17  and  C_18
REMARK                            x       y       z     vdW  Elec       q    Type
REMARK                         _______ _______ _______ _____ _____    ______ ____
ROOT
ATOM      1  C   UNL     1       6.080   6.676  17.214  0.00  0.00    +0.000 C 
ATOM      2  C   UNL     1       7.365   6.235  17.934  0.00  0.00    +0.000 C 
ENDROOT
BRANCH   1   6
ATOM      3  C   UNL     1       2.643   5.486  19.643  0.00  0.00    +0.000 A 
ATOM      4  C   UNL     1       3.897   4.879  19.809  0.00  0.00    +0.000 A 
ATOM      5  C   UNL     1       4.985   5.288  19.031  0.00  0.00    +0.000 A 
ATOM      6  C   UNL     1       4.847   6.299  18.054  0.00  0.00    +0.000 A 
ATOM      7  C   UNL     1       3.576   6.907  17.908  0.00  0.00    +0.000 A 
ATOM      8  C   UNL     1       2.497   6.498  18.693  0.00  0.00    +0.000 A 
BRANCH   3   9
ATOM      9  C   UNL     1       1.461   5.112  20.507  0.00  0.00    +0.000 C 
BRANCH   9  11
ATOM     10  C   UNL     1       1.277   3.378  18.684  0.00  0.00    +0.000 C 
ATOM     11  C   UNL     1       0.976   3.687  20.158  0.00  0.00    +0.000 C 
ATOM     12  C   UNL     1       1.629   2.634  21.061  0.00  0.00    +0.000 C 
ENDBRANCH   9  11
ENDBRANCH   3   9
ENDBRANCH   1   6
BRANCH   1  13
ATOM     13  C   UNL     1       6.107   6.151  15.783  0.00  0.00    +0.000 C 
ATOM     14  O   UNL     1       5.235   6.537  15.015  0.00  0.00    +0.000 OA
ATOM     15  N   UNL     1       7.075   5.307  15.321  0.00  0.00    +0.000 N 
ATOM     16  H   UNL     1       7.825   4.983  15.953  0.00  0.00    +0.000 HD
BRANCH  15  17
ATOM     17  C   UNL     1       7.034   4.864  13.935  0.00  0.00    +0.000 C 
BRANCH  17  18
ATOM     18  C   UNL     1       6.254   3.568  13.747  0.00  0.00    +0.000 C 
BRANCH  18  19
ATOM     19  C   UNL     1       5.757   3.417  12.293  0.00  0.00    +0.000 C 
BRANCH  19  20
ATOM     20 SE   UNL     1       7.151   2.399  11.342  0.00  0.00    +0.000 Se
BRANCH  20  21
ATOM     21  C   UNL     1       6.395   0.647  11.196  0.00  0.00    +0.000 C 
ATOM     22  N   UNL     1       5.958  -0.424  11.104  0.00  0.00    +0.000 NA
ENDBRANCH  20  21
ENDBRANCH  19  20
ENDBRANCH  18  19
ENDBRANCH  17  18
ENDBRANCH  15  17
ENDBRANCH   1  13
TORSDOF 9
ENDMDL
MODEL 9
REMARK VINA RESULT:      -7.0      3.497      7.220
REMARK  Name = 
REMARK  12 active torsions:
REMARK  status: ('A' for Active; 'I' for Inactive)
REMARK    1  A    between atoms: C_1  and  C_2
REMARK    2  A    between atoms: C_2  and  C_3
REMARK    3  A    between atoms: C_2  and  C_4
REMARK    4  A    between atoms: C_4  and  C_5
REMARK    5  A    between atoms: C_8  and  C_9
REMARK    6  A    between atoms: C_9  and  C_10
REMARK    7  A    between atoms: C_9  and  C_11
REMARK    8  A    between atoms: N_13  and  C_14
REMARK    9  A    between atoms: C_14  and  C_15
REMARK   10  A    between atoms: C_15  and  C_16
REMARK   11  A    between atoms: C_16  and  SE_17
REMARK   12  A    between atoms: SE_17  and  C_18
REMARK                            x       y       z     vdW  Elec       q    Type
REMARK                         _______ _______ _______ _____ _____    ______ ____
ROOT
ATOM      1  C   UNL     1       6.233   5.399  17.818  0.00  0.00    +0.000 C 
ATOM      2  C   UNL     1       7.340   6.420  18.133  0.00  0.00    +0.000 C 
ENDROOT
BRANCH   1   6
ATOM      3  C   UNL     1       6.333   4.104  13.642  0.00  0.00    +0.000 A 
ATOM      4  C   UNL     1       5.212   3.867  14.451  0.00  0.00    +0.000 A 
ATOM      5  C   UNL     1       5.197   4.305  15.780  0.00  0.00    +0.000 A 
ATOM      6  C   UNL     1       6.308   4.974  16.342  0.00  0.00    +0.000 A 
ATOM      7  C   UNL     1       7.426   5.213  15.506  0.00  0.00    +0.000 A 
ATOM      8  C   UNL     1       7.430   4.779  14.181  0.00  0.00    +0.000 A 
BRANCH   3   9
ATOM      9  C   UNL     1       6.360   3.699  12.187  0.00  0.00    +0.000 C 
BRANCH   9  11
ATOM     10  C   UNL     1       4.154   3.120  11.108  0.00  0.00    +0.000 C 
ATOM     11  C   UNL     1       5.333   2.575  11.928  0.00  0.00    +0.000 C 
ATOM     12  C   UNL     1       5.972   1.384  11.204  0.00  0.00    +0.000 C 
ENDBRANCH   9  11
ENDBRANCH   3   9
ENDBRANCH   1   6
BRANCH   1  13
ATOM     13  C   UNL     1       4.895   5.955  18.293  0.00  0.00    +0.000 C 
ATOM     14  O   UNL     1       4.468   6.965  17.747  0.00  0.00    +0.000 OA
ATOM     15  N   UNL     1       4.147   5.358  19.266  0.00  0.00    +0.000 N 
ATOM     16  H   UNL     1       4.486   4.498  19.726  0.00  0.00    +0.000 HD
BRANCH  15  17
ATOM     17  C   UNL     1       2.873   5.948  19.650  0.00  0.00    +0.000 C 
BRANCH  17  18
ATOM     18  C   UNL     1       1.706   4.974  19.535  0.00  0.00    +0.000 C 
BRANCH  18  19
ATOM     19  C   UNL     1       1.892   4.012  18.343  0.00  0.00    +0.000 C 
BRANCH  19  20
ATOM     20 SE   UNL     1       2.017   2.203  19.116  0.00  0.00    +0.000 Se
BRANCH  20  21
ATOM     21  C   UNL     1       1.948   2.523  21.001  0.00  0.00    +0.000 C 
ATOM     22  N   UNL     1       1.886   2.728  22.142  0.00  0.00    +0.000 NA
ENDBRANCH  20  21
ENDBRANCH  19  20
ENDBRANCH  18  19
ENDBRANCH  17  18
ENDBRANCH  15  17
ENDBRANCH   1  13
TORSDOF 9
ENDMDL
