MODEL 1
REMARK VINA RESULT:      -6.0      0.000      0.000
REMARK  Name = 
REMARK  11 active torsions:
REMARK  status: ('A' for Active; 'I' for Inactive)
REMARK    1  A    between atoms: C_1  and  C_2
REMARK    2  A    between atoms: C_2  and  O_3
REMARK    3  A    between atoms: O_3  and  C_4
REMARK    4  A    between atoms: C_4  and  C_6
REMARK    5  A    between atoms: C_7  and  N_8
REMARK    6  A    between atoms: C_15  and  C_16
REMARK    7  A    between atoms: C_15  and  C_17
REMARK    8  A    between atoms: C_19  and  C_20
REMARK    9  A    between atoms: C_21  and  C_22
REMARK   10  A    between atoms: N_24  and  C_25
REMARK   11  A    between atoms: C_31  and  N_32
REMARK                            x       y       z     vdW  Elec       q    Type
REMARK                         _______ _______ _______ _____ _____    ______ ____
ROOT
ATOM      1  C   UNL     1      -0.193  15.921  22.711  0.00  0.00    +0.000 C 
ATOM      2  C   UNL     1       0.379  17.075  23.116  0.00  0.00    +0.000 C 
ATOM      3  O   UNL     1       1.728  17.321  22.922  0.00  0.00    +0.000 OA
ATOM      4  C   UNL     1       2.531  16.404  22.269  0.00  0.00    +0.000 C 
ATOM      5  C   UNL     1       2.070  15.205  21.877  0.00  0.00    +0.000 C 
ATOM      6  C   UNL     1       3.029  14.262  21.228  0.00  0.00    +0.000 C 
ATOM      7  O   UNL     1       2.724  13.090  21.026  0.00  0.00    +0.000 OA
ATOM      8  C   UNL     1       4.381  14.799  20.793  0.00  0.00    +0.000 C 
ATOM      9  C   UNL     1       4.963  15.772  21.828  0.00  0.00    +0.000 C 
ATOM     10  C   UNL     1       5.304  15.023  23.133  0.00  0.00    +0.000 C 
ATOM     11  C   UNL     1       6.258  16.400  21.283  0.00  0.00    +0.000 C 
ATOM     12  C   UNL     1       3.940  16.892  22.090  0.00  0.00    +0.000 C 
ATOM     13  C   UNL     1       0.632  14.784  22.125  0.00  0.00    +0.000 C 
ENDROOT
BRANCH  13  14
ATOM     14  C   UNL     1      -0.011  14.175  20.891  0.00  0.00    +0.000 A 
ATOM     15  C   UNL     1      -0.134  14.758  19.594  0.00  0.00    +0.000 A 
ATOM     16  C   UNL     1       0.212  16.133  19.145  0.00  0.00    +0.000 C 
ATOM     17  N   UNL     1      -0.593  13.888  18.690  0.00  0.00    +0.000 NA
ATOM     18  N   UNL     1      -0.907  12.770  19.391  0.00  0.00    +0.000 N 
ATOM     19  C   UNL     1      -0.491  12.876  20.710  0.00  0.00    +0.000 A 
BRANCH  18  20
ATOM     20  C   UNL     1      -1.646  11.730  18.752  0.00  0.00    +0.000 A 
ATOM     21  C   UNL     1      -3.045  11.780  18.744  0.00  0.00    +0.000 A 
ATOM     22  C   UNL     1      -3.766  10.868  17.967  0.00  0.00    +0.000 A 
ATOM     23  C   UNL     1      -3.100   9.894  17.222  0.00  0.00    +0.000 A 
ATOM     24  C   UNL     1      -1.714   9.789  17.298  0.00  0.00    +0.000 A 
ATOM     25  C   UNL     1      -0.992  10.682  18.084  0.00  0.00    +0.000 A 
ENDBRANCH  18  20
BRANCH  19  26
ATOM     26  N   UNL     1      -0.490  11.811  21.621  0.00  0.00    +0.000 N 
ATOM     27  C   UNL     1       0.306  10.681  21.595  0.00  0.00    +0.000 A 
ATOM     28  C   UNL     1      -0.174   9.841  22.569  0.00  0.00    +0.000 A 
ATOM     29  N   UNL     1      -1.174  10.444  23.273  0.00  0.00    +0.000 NA
ATOM     30  C   UNL     1      -1.318  11.624  22.708  0.00  0.00    +0.000 A 
ENDBRANCH  19  26
ENDBRANCH  13  14
BRANCH   2  31
ATOM     31  N   UNL     1      -0.250  18.131  23.733  0.00  0.00    +0.000 N 
ATOM     32  H   UNL     1      -0.809  17.852  24.539  0.00  0.00    +0.000 HD
ATOM     33  H   UNL     1      -0.763  18.707  23.072  0.00  0.00    +0.000 HD
ENDBRANCH   2  31
BRANCH   1  34
ATOM     34  C   UNL     1      -1.646  15.671  22.881  0.00  0.00    +0.000 C 
ATOM     35  O   UNL     1      -2.511  16.253  22.249  0.00  0.00    +0.000 OA
BRANCH  34  36
ATOM     36  O   UNL     1      -1.873  14.794  23.896  0.00  0.00    +0.000 OA
BRANCH  36  38
ATOM     37  C   UNL     1      -1.465  15.598  26.127  0.00  0.00    +0.000 C 
ATOM     38  C   UNL     1      -2.512  15.329  25.065  0.00  0.00    +0.000 C 
ENDBRANCH  36  38
ENDBRANCH  34  36
ENDBRANCH   1  34
TORSDOF 7
ENDMDL
MODEL 2
REMARK VINA RESULT:      -5.9      4.466      6.539
REMARK  Name = 
REMARK  11 active torsions:
REMARK  status: ('A' for Active; 'I' for Inactive)
REMARK    1  A    between atoms: C_1  and  C_2
REMARK    2  A    between atoms: C_2  and  O_3
REMARK    3  A    between atoms: O_3  and  C_4
REMARK    4  A    between atoms: C_4  and  C_6
REMARK    5  A    between atoms: C_7  and  N_8
REMARK    6  A    between atoms: C_15  and  C_16
REMARK    7  A    between atoms: C_15  and  C_17
REMARK    8  A    between atoms: C_19  and  C_20
REMARK    9  A    between atoms: C_21  and  C_22
REMARK   10  A    between atoms: N_24  and  C_25
REMARK   11  A    between atoms: C_31  and  N_32
REMARK                            x       y       z     vdW  Elec       q    Type
REMARK                         _______ _______ _______ _____ _____    ______ ____
ROOT
ATOM      1  C   UNL     1      -4.661  13.026  23.366  0.00  0.00    +0.000 C 
ATOM      2  C   UNL     1      -3.659  13.343  24.212  0.00  0.00    +0.000 C 
ATOM      3  O   UNL     1      -2.346  13.429  23.780  0.00  0.00    +0.000 OA
ATOM      4  C   UNL     1      -2.020  13.228  22.452  0.00  0.00    +0.000 C 
ATOM      5  C   UNL     1      -2.935  12.854  21.542  0.00  0.00    +0.000 C 
ATOM      6  C   UNL     1      -2.475  12.608  20.143  0.00  0.00    +0.000 C 
ATOM      7  O   UNL     1      -3.216  12.082  19.318  0.00  0.00    +0.000 OA
ATOM      8  C   UNL     1      -1.078  13.059  19.758  0.00  0.00    +0.000 C 
ATOM      9  C   UNL     1      -0.064  12.781  20.876  0.00  0.00    +0.000 C 
ATOM     10  C   UNL     1       0.115  11.260  21.069  0.00  0.00    +0.000 C 
ATOM     11  C   UNL     1       1.302  13.381  20.503  0.00  0.00    +0.000 C 
ATOM     12  C   UNL     1      -0.559  13.443  22.175  0.00  0.00    +0.000 C 
ATOM     13  C   UNL     1      -4.390  12.633  21.921  0.00  0.00    +0.000 C 
ENDROOT
BRANCH  13  14
ATOM     14  C   UNL     1      -5.345  13.300  20.946  0.00  0.00    +0.000 A 
ATOM     15  C   UNL     1      -6.505  12.733  20.336  0.00  0.00    +0.000 A 
ATOM     16  C   UNL     1      -7.007  11.335  20.391  0.00  0.00    +0.000 C 
ATOM     17  N   UNL     1      -7.220  13.642  19.668  0.00  0.00    +0.000 NA
ATOM     18  N   UNL     1      -6.484  14.782  19.708  0.00  0.00    +0.000 N 
ATOM     19  C   UNL     1      -5.386  14.636  20.543  0.00  0.00    +0.000 A 
BRANCH  18  20
ATOM     20  C   UNL     1      -6.860  15.884  18.884  0.00  0.00    +0.000 A 
ATOM     21  C   UNL     1      -7.200  17.107  19.476  0.00  0.00    +0.000 A 
ATOM     22  C   UNL     1      -7.391  18.236  18.673  0.00  0.00    +0.000 A 
ATOM     23  C   UNL     1      -7.271  18.143  17.286  0.00  0.00    +0.000 A 
ATOM     24  C   UNL     1      -7.020  16.910  16.691  0.00  0.00    +0.000 A 
ATOM     25  C   UNL     1      -6.847  15.779  17.485  0.00  0.00    +0.000 A 
ENDBRANCH  18  20
BRANCH  19  26
ATOM     26  N   UNL     1      -4.560  15.694  20.945  0.00  0.00    +0.000 N 
ATOM     27  C   UNL     1      -4.592  16.379  22.146  0.00  0.00    +0.000 A 
ATOM     28  C   UNL     1      -3.733  17.441  22.015  0.00  0.00    +0.000 A 
ATOM     29  N   UNL     1      -3.087  17.390  20.816  0.00  0.00    +0.000 NA
ATOM     30  C   UNL     1      -3.574  16.326  20.216  0.00  0.00    +0.000 A 
ENDBRANCH  19  26
ENDBRANCH  13  14
BRANCH   2  31
ATOM     31  N   UNL     1      -3.777  13.631  25.552  0.00  0.00    +0.000 N 
ATOM     32  H   UNL     1      -3.904  12.803  26.133  0.00  0.00    +0.000 HD
ATOM     33  H   UNL     1      -4.471  14.351  25.727  0.00  0.00    +0.000 HD
ENDBRANCH   2  31
BRANCH   1  34
ATOM     34  C   UNL     1      -6.074  12.973  23.816  0.00  0.00    +0.000 C 
ATOM     35  O   UNL     1      -6.743  11.954  23.828  0.00  0.00    +0.000 OA
BRANCH  34  36
ATOM     36  O   UNL     1      -6.539  14.219  24.108  0.00  0.00    +0.000 OA
BRANCH  36  38
ATOM     37  C   UNL     1      -7.914  15.832  22.969  0.00  0.00    +0.000 C 
ATOM     38  C   UNL     1      -7.884  14.504  23.699  0.00  0.00    +0.000 C 
ENDBRANCH  36  38
ENDBRANCH  34  36
ENDBRANCH   1  34
TORSDOF 7
ENDMDL
MODEL 3
REMARK VINA RESULT:      -5.9      3.146      5.882
REMARK  Name = 
REMARK  11 active torsions:
REMARK  status: ('A' for Active; 'I' for Inactive)
REMARK    1  A    between atoms: C_1  and  C_2
REMARK    2  A    between atoms: C_2  and  O_3
REMARK    3  A    between atoms: O_3  and  C_4
REMARK    4  A    between atoms: C_4  and  C_6
REMARK    5  A    between atoms: C_7  and  N_8
REMARK    6  A    between atoms: C_15  and  C_16
REMARK    7  A    between atoms: C_15  and  C_17
REMARK    8  A    between atoms: C_19  and  C_20
REMARK    9  A    between atoms: C_21  and  C_22
REMARK   10  A    between atoms: N_24  and  C_25
REMARK   11  A    between atoms: C_31  and  N_32
REMARK                            x       y       z     vdW  Elec       q    Type
REMARK                         _______ _______ _______ _____ _____    ______ ____
ROOT
ATOM      1  C   UNL     1       0.655  13.111  19.322  0.00  0.00    +0.000 C 
ATOM      2  C   UNL     1       1.544  12.423  18.576  0.00  0.00    +0.000 C 
ATOM      3  O   UNL     1       1.786  11.077  18.796  0.00  0.00    +0.000 OA
ATOM      4  C   UNL     1       1.095  10.380  19.769  0.00  0.00    +0.000 C 
ATOM      5  C   UNL     1       0.231  10.985  20.600  0.00  0.00    +0.000 C 
ATOM      6  C   UNL     1      -0.427  10.157  21.655  0.00  0.00    +0.000 C 
ATOM      7  O   UNL     1      -1.070  10.681  22.560  0.00  0.00    +0.000 OA
ATOM      8  C   UNL     1      -0.308   8.647  21.559  0.00  0.00    +0.000 C 
ATOM      9  C   UNL     1       1.098   8.216  21.120  0.00  0.00    +0.000 C 
ATOM     10  C   UNL     1       2.129   8.565  22.214  0.00  0.00    +0.000 C 
ATOM     11  C   UNL     1       1.131   6.694  20.897  0.00  0.00    +0.000 C 
ATOM     12  C   UNL     1       1.445   8.920  19.796  0.00  0.00    +0.000 C 
ATOM     13  C   UNL     1      -0.042  12.478  20.518  0.00  0.00    +0.000 C 
ENDROOT
BRANCH  13  14
ATOM     14  C   UNL     1      -1.527  12.794  20.561  0.00  0.00    +0.000 A 
ATOM     15  C   UNL     1      -2.191  13.750  21.388  0.00  0.00    +0.000 A 
ATOM     16  C   UNL     1      -1.640  14.583  22.490  0.00  0.00    +0.000 C 
ATOM     17  N   UNL     1      -3.475  13.903  21.054  0.00  0.00    +0.000 NA
ATOM     18  N   UNL     1      -3.715  12.964  20.103  0.00  0.00    +0.000 N 
ATOM     19  C   UNL     1      -2.541  12.332  19.720  0.00  0.00    +0.000 A 
BRANCH  18  20
ATOM     20  C   UNL     1      -5.060  12.707  19.702  0.00  0.00    +0.000 A 
ATOM     21  C   UNL     1      -5.992  12.268  20.651  0.00  0.00    +0.000 A 
ATOM     22  C   UNL     1      -7.345  12.189  20.306  0.00  0.00    +0.000 A 
ATOM     23  C   UNL     1      -7.766  12.520  19.017  0.00  0.00    +0.000 A 
ATOM     24  C   UNL     1      -6.828  12.871  18.050  0.00  0.00    +0.000 A 
ATOM     25  C   UNL     1      -5.478  12.933  18.382  0.00  0.00    +0.000 A 
ENDBRANCH  18  20
BRANCH  19  26
ATOM     26  N   UNL     1      -2.438  11.469  18.621  0.00  0.00    +0.000 N 
ATOM     27  C   UNL     1      -2.040  11.785  17.336  0.00  0.00    +0.000 A 
ATOM     28  C   UNL     1      -2.273  10.671  16.568  0.00  0.00    +0.000 A 
ATOM     29  N   UNL     1      -2.705   9.637  17.342  0.00  0.00    +0.000 NA
ATOM     30  C   UNL     1      -2.762  10.130  18.561  0.00  0.00    +0.000 A 
ENDBRANCH  19  26
ENDBRANCH  13  14
BRANCH   2  31
ATOM     31  N   UNL     1       2.292  12.913  17.531  0.00  0.00    +0.000 N 
ATOM     32  H   UNL     1       1.797  12.901  16.640  0.00  0.00    +0.000 HD
ATOM     33  H   UNL     1       3.210  12.479  17.483  0.00  0.00    +0.000 HD
ENDBRANCH   2  31
BRANCH   1  34
ATOM     34  C   UNL     1       0.363  14.543  19.063  0.00  0.00    +0.000 C 
ATOM     35  O   UNL     1      -0.563  14.930  18.371  0.00  0.00    +0.000 OA
BRANCH  34  36
ATOM     36  O   UNL     1       1.320  15.341  19.610  0.00  0.00    +0.000 OA
BRANCH  36  38
ATOM     37  C   UNL     1       2.691  16.449  17.971  0.00  0.00    +0.000 C 
ATOM     38  C   UNL     1       1.547  16.597  18.954  0.00  0.00    +0.000 C 
ENDBRANCH  36  38
ENDBRANCH  34  36
ENDBRANCH   1  34
TORSDOF 7
ENDMDL
MODEL 4
REMARK VINA RESULT:      -5.9      0.890      1.053
REMARK  Name = 
REMARK  11 active torsions:
REMARK  status: ('A' for Active; 'I' for Inactive)
REMARK    1  A    between atoms: C_1  and  C_2
REMARK    2  A    between atoms: C_2  and  O_3
REMARK    3  A    between atoms: O_3  and  C_4
REMARK    4  A    between atoms: C_4  and  C_6
REMARK    5  A    between atoms: C_7  and  N_8
REMARK    6  A    between atoms: C_15  and  C_16
REMARK    7  A    between atoms: C_15  and  C_17
REMARK    8  A    between atoms: C_19  and  C_20
REMARK    9  A    between atoms: C_21  and  C_22
REMARK   10  A    between atoms: N_24  and  C_25
REMARK   11  A    between atoms: C_31  and  N_32
REMARK                            x       y       z     vdW  Elec       q    Type
REMARK                         _______ _______ _______ _____ _____    ______ ____
ROOT
ATOM      1  C   UNL     1       0.385  15.591  22.471  0.00  0.00    +0.000 C 
ATOM      2  C   UNL     1       0.935  16.757  22.870  0.00  0.00    +0.000 C 
ATOM      3  O   UNL     1       2.169  17.174  22.398  0.00  0.00    +0.000 OA
ATOM      4  C   UNL     1       2.865  16.423  21.469  0.00  0.00    +0.000 C 
ATOM      5  C   UNL     1       2.429  15.223  21.051  0.00  0.00    +0.000 C 
ATOM      6  C   UNL     1       3.280  14.464  20.087  0.00  0.00    +0.000 C 
ATOM      7  O   UNL     1       3.038  13.291  19.819  0.00  0.00    +0.000 OA
ATOM      8  C   UNL     1       4.432  15.192  19.418  0.00  0.00    +0.000 C 
ATOM      9  C   UNL     1       5.161  16.120  20.399  0.00  0.00    +0.000 C 
ATOM     10  C   UNL     1       5.875  15.291  21.487  0.00  0.00    +0.000 C 
ATOM     11  C   UNL     1       6.223  16.942  19.649  0.00  0.00    +0.000 C 
ATOM     12  C   UNL     1       4.140  17.085  21.028  0.00  0.00    +0.000 C 
ATOM     13  C   UNL     1       1.138  14.618  21.575  0.00  0.00    +0.000 C 
ENDROOT
BRANCH  13  14
ATOM     14  C   UNL     1       0.269  14.063  20.459  0.00  0.00    +0.000 A 
ATOM     15  C   UNL     1      -0.060  14.686  19.218  0.00  0.00    +0.000 A 
ATOM     16  C   UNL     1       0.248  16.062  18.747  0.00  0.00    +0.000 C 
ATOM     17  N   UNL     1      -0.698  13.856  18.389  0.00  0.00    +0.000 NA
ATOM     18  N   UNL     1      -0.922  12.727  19.109  0.00  0.00    +0.000 N 
ATOM     19  C   UNL     1      -0.278  12.784  20.336  0.00  0.00    +0.000 A 
BRANCH  18  20
ATOM     20  C   UNL     1      -1.796  11.728  18.585  0.00  0.00    +0.000 A 
ATOM     21  C   UNL     1      -3.181  11.873  18.735  0.00  0.00    +0.000 A 
ATOM     22  C   UNL     1      -4.044  10.996  18.069  0.00  0.00    +0.000 A 
ATOM     23  C   UNL     1      -3.533   9.966  17.280  0.00  0.00    +0.000 A 
ATOM     24  C   UNL     1      -2.157   9.768  17.202  0.00  0.00    +0.000 A 
ATOM     25  C   UNL     1      -1.293  10.626  17.877  0.00  0.00    +0.000 A 
ENDBRANCH  18  20
BRANCH  19  26
ATOM     26  N   UNL     1      -0.153  11.694  21.208  0.00  0.00    +0.000 N 
ATOM     27  C   UNL     1      -1.000  11.340  22.242  0.00  0.00    +0.000 A 
ATOM     28  C   UNL     1      -0.380  10.325  22.926  0.00  0.00    +0.000 A 
ATOM     29  N   UNL     1       0.773   9.958  22.300  0.00  0.00    +0.000 NA
ATOM     30  C   UNL     1       0.866  10.766  21.266  0.00  0.00    +0.000 A 
ENDBRANCH  19  26
ENDBRANCH  13  14
BRANCH   2  31
ATOM     31  N   UNL     1       0.386  17.669  23.741  0.00  0.00    +0.000 N 
ATOM     32  H   UNL     1       1.083  18.214  24.247  0.00  0.00    +0.000 HD
ATOM     33  H   UNL     1      -0.307  17.244  24.350  0.00  0.00    +0.000 HD
ENDBRANCH   2  31
BRANCH   1  34
ATOM     34  C   UNL     1      -0.955  15.160  22.943  0.00  0.00    +0.000 C 
ATOM     35  O   UNL     1      -1.982  15.328  22.309  0.00  0.00    +0.000 OA
BRANCH  34  36
ATOM     36  O   UNL     1      -0.887  14.657  24.206  0.00  0.00    +0.000 OA
BRANCH  36  38
ATOM     37  C   UNL     1      -1.105  15.764  26.331  0.00  0.00    +0.000 C 
ATOM     38  C   UNL     1      -1.841  15.173  25.145  0.00  0.00    +0.000 C 
ENDBRANCH  36  38
ENDBRANCH  34  36
ENDBRANCH   1  34
TORSDOF 7
ENDMDL
MODEL 5
REMARK VINA RESULT:      -5.8      4.007      6.534
REMARK  Name = 
REMARK  11 active torsions:
REMARK  status: ('A' for Active; 'I' for Inactive)
REMARK    1  A    between atoms: C_1  and  C_2
REMARK    2  A    between atoms: C_2  and  O_3
REMARK    3  A    between atoms: O_3  and  C_4
REMARK    4  A    between atoms: C_4  and  C_6
REMARK    5  A    between atoms: C_7  and  N_8
REMARK    6  A    between atoms: C_15  and  C_16
REMARK    7  A    between atoms: C_15  and  C_17
REMARK    8  A    between atoms: C_19  and  C_20
REMARK    9  A    between atoms: C_21  and  C_22
REMARK   10  A    between atoms: N_24  and  C_25
REMARK   11  A    between atoms: C_31  and  N_32
REMARK                            x       y       z     vdW  Elec       q    Type
REMARK                         _______ _______ _______ _____ _____    ______ ____
ROOT
ATOM      1  C   UNL     1       6.498  14.756  22.178  0.00  0.00    +0.000 C 
ATOM      2  C   UNL     1       7.763  14.668  22.642  0.00  0.00    +0.000 C 
ATOM      3  O   UNL     1       8.843  14.556  21.783  0.00  0.00    +0.000 OA
ATOM      4  C   UNL     1       8.665  14.568  20.412  0.00  0.00    +0.000 C 
ATOM      5  C   UNL     1       7.445  14.596  19.852  0.00  0.00    +0.000 C 
ATOM      6  C   UNL     1       7.354  14.550  18.362  0.00  0.00    +0.000 C 
ATOM      7  O   UNL     1       6.277  14.377  17.799  0.00  0.00    +0.000 OA
ATOM      8  C   UNL     1       8.626  14.759  17.559  0.00  0.00    +0.000 C 
ATOM      9  C   UNL     1       9.824  14.045  18.200  0.00  0.00    +0.000 C 
ATOM     10  C   UNL     1       9.631  12.515  18.133  0.00  0.00    +0.000 C 
ATOM     11  C   UNL     1      11.112  14.400  17.437  0.00  0.00    +0.000 C 
ATOM     12  C   UNL     1       9.964  14.515  19.658  0.00  0.00    +0.000 C 
ATOM     13  C   UNL     1       6.182  14.620  20.696  0.00  0.00    +0.000 C 
ENDROOT
BRANCH  13  14
ATOM     14  C   UNL     1       5.188  15.663  20.214  0.00  0.00    +0.000 A 
ATOM     15  C   UNL     1       5.417  17.058  20.015  0.00  0.00    +0.000 A 
ATOM     16  C   UNL     1       6.622  17.868  20.334  0.00  0.00    +0.000 C 
ATOM     17  N   UNL     1       4.384  17.660  19.418  0.00  0.00    +0.000 NA
ATOM     18  N   UNL     1       3.413  16.715  19.338  0.00  0.00    +0.000 N 
ATOM     19  C   UNL     1       3.891  15.474  19.733  0.00  0.00    +0.000 A 
BRANCH  18  20
ATOM     20  C   UNL     1       2.092  17.104  18.962  0.00  0.00    +0.000 A 
ATOM     21  C   UNL     1       1.856  17.591  17.671  0.00  0.00    +0.000 A 
ATOM     22  C   UNL     1       0.542  17.800  17.239  0.00  0.00    +0.000 A 
ATOM     23  C   UNL     1      -0.530  17.550  18.096  0.00  0.00    +0.000 A 
ATOM     24  C   UNL     1      -0.292  17.150  19.408  0.00  0.00    +0.000 A 
ATOM     25  C   UNL     1       1.014  16.958  19.849  0.00  0.00    +0.000 A 
ENDBRANCH  18  20
BRANCH  19  26
ATOM     26  N   UNL     1       3.188  14.274  19.566  0.00  0.00    +0.000 N 
ATOM     27  C   UNL     1       2.974  13.579  18.390  0.00  0.00    +0.000 A 
ATOM     28  C   UNL     1       2.085  12.575  18.684  0.00  0.00    +0.000 A 
ATOM     29  N   UNL     1       1.815  12.550  20.019  0.00  0.00    +0.000 NA
ATOM     30  C   UNL     1       2.508  13.549  20.522  0.00  0.00    +0.000 A 
ENDBRANCH  19  26
ENDBRANCH  13  14
BRANCH   2  31
ATOM     31  N   UNL     1       8.157  14.692  23.960  0.00  0.00    +0.000 N 
ATOM     32  H   UNL     1       8.443  13.779  24.311  0.00  0.00    +0.000 HD
ATOM     33  H   UNL     1       7.473  15.152  24.553  0.00  0.00    +0.000 HD
ENDBRANCH   2  31
BRANCH   1  34
ATOM     34  C   UNL     1       5.342  14.917  23.094  0.00  0.00    +0.000 C 
ATOM     35  O   UNL     1       4.494  14.059  23.270  0.00  0.00    +0.000 OA
BRANCH  34  36
ATOM     36  O   UNL     1       5.307  16.173  23.617  0.00  0.00    +0.000 OA
BRANCH  36  38
ATOM     37  C   UNL     1       3.278  17.310  22.998  0.00  0.00    +0.000 C 
ATOM     38  C   UNL     1       4.036  16.617  24.113  0.00  0.00    +0.000 C 
ENDBRANCH  36  38
ENDBRANCH  34  36
ENDBRANCH   1  34
TORSDOF 7
ENDMDL
MODEL 6
REMARK VINA RESULT:      -5.8      1.117      1.498
REMARK  Name = 
REMARK  11 active torsions:
REMARK  status: ('A' for Active; 'I' for Inactive)
REMARK    1  A    between atoms: C_1  and  C_2
REMARK    2  A    between atoms: C_2  and  O_3
REMARK    3  A    between atoms: O_3  and  C_4
REMARK    4  A    between atoms: C_4  and  C_6
REMARK    5  A    between atoms: C_7  and  N_8
REMARK    6  A    between atoms: C_15  and  C_16
REMARK    7  A    between atoms: C_15  and  C_17
REMARK    8  A    between atoms: C_19  and  C_20
REMARK    9  A    between atoms: C_21  and  C_22
REMARK   10  A    between atoms: N_24  and  C_25
REMARK   11  A    between atoms: C_31  and  N_32
REMARK                            x       y       z     vdW  Elec       q    Type
REMARK                         _______ _______ _______ _____ _____    ______ ____
ROOT
ATOM      1  C   UNL     1       0.541  15.602  22.530  0.00  0.00    +0.000 C 
ATOM      2  C   UNL     1       1.113  16.762  22.913  0.00  0.00    +0.000 C 
ATOM      3  O   UNL     1       2.319  17.185  22.380  0.00  0.00    +0.000 OA
ATOM      4  C   UNL     1       2.963  16.447  21.404  0.00  0.00    +0.000 C 
ATOM      5  C   UNL     1       2.503  15.253  20.994  0.00  0.00    +0.000 C 
ATOM      6  C   UNL     1       3.298  14.506  19.974  0.00  0.00    +0.000 C 
ATOM      7  O   UNL     1       3.040  13.337  19.704  0.00  0.00    +0.000 OA
ATOM      8  C   UNL     1       4.412  15.243  19.252  0.00  0.00    +0.000 C 
ATOM      9  C   UNL     1       5.195  16.157  20.204  0.00  0.00    +0.000 C 
ATOM     10  C   UNL     1       5.967  15.313  21.240  0.00  0.00    +0.000 C 
ATOM     11  C   UNL     1       6.215  16.989  19.407  0.00  0.00    +0.000 C 
ATOM     12  C   UNL     1       4.211  17.113  20.902  0.00  0.00    +0.000 C 
ATOM     13  C   UNL     1       1.242  14.641  21.580  0.00  0.00    +0.000 C 
ENDROOT
BRANCH  13  14
ATOM     14  C   UNL     1       0.312  14.101  20.507  0.00  0.00    +0.000 A 
ATOM     15  C   UNL     1      -0.124  14.761  19.319  0.00  0.00    +0.000 A 
ATOM     16  C   UNL     1       0.108  16.164  18.883  0.00  0.00    +0.000 C 
ATOM     17  N   UNL     1      -0.796  13.943  18.503  0.00  0.00    +0.000 NA
ATOM     18  N   UNL     1      -0.933  12.781  19.191  0.00  0.00    +0.000 N 
ATOM     19  C   UNL     1      -0.204  12.811  20.371  0.00  0.00    +0.000 A 
BRANCH  18  20
ATOM     20  C   UNL     1      -1.812  11.775  18.690  0.00  0.00    +0.000 A 
ATOM     21  C   UNL     1      -3.197  11.941  18.816  0.00  0.00    +0.000 A 
ATOM     22  C   UNL     1      -4.062  11.053  18.169  0.00  0.00    +0.000 A 
ATOM     23  C   UNL     1      -3.553   9.990  17.422  0.00  0.00    +0.000 A 
ATOM     24  C   UNL     1      -2.179   9.773  17.369  0.00  0.00    +0.000 A 
ATOM     25  C   UNL     1      -1.314  10.643  18.026  0.00  0.00    +0.000 A 
ENDBRANCH  18  20
BRANCH  19  26
ATOM     26  N   UNL     1       0.015  11.693  21.186  0.00  0.00    +0.000 N 
ATOM     27  C   UNL     1       0.964  10.701  21.019  0.00  0.00    +0.000 A 
ATOM     28  C   UNL     1       0.681   9.727  21.944  0.00  0.00    +0.000 A 
ATOM     29  N   UNL     1      -0.346  10.117  22.751  0.00  0.00    +0.000 NA
ATOM     30  C   UNL     1      -0.699  11.301  22.299  0.00  0.00    +0.000 A 
ENDBRANCH  19  26
ENDBRANCH  13  14
BRANCH   2  31
ATOM     31  N   UNL     1       0.614  17.662  23.826  0.00  0.00    +0.000 N 
ATOM     32  H   UNL     1       1.198  18.491  23.935  0.00  0.00    +0.000 HD
ATOM     33  H   UNL     1       0.381  17.219  24.709  0.00  0.00    +0.000 HD
ENDBRANCH   2  31
BRANCH   1  34
ATOM     34  C   UNL     1      -0.772  15.165  23.070  0.00  0.00    +0.000 C 
ATOM     35  O   UNL     1      -0.909  14.232  23.841  0.00  0.00    +0.000 OA
BRANCH  34  36
ATOM     36  O   UNL     1      -1.789  15.874  22.508  0.00  0.00    +0.000 OA
BRANCH  36  38
ATOM     37  C   UNL     1      -3.420  14.948  21.001  0.00  0.00    +0.000 C 
ATOM     38  C   UNL     1      -3.062  15.215  22.449  0.00  0.00    +0.000 C 
ENDBRANCH  36  38
ENDBRANCH  34  36
ENDBRANCH   1  34
TORSDOF 7
ENDMDL
MODEL 7
REMARK VINA RESULT:      -5.8      3.124      5.673
REMARK  Name = 
REMARK  11 active torsions:
REMARK  status: ('A' for Active; 'I' for Inactive)
REMARK    1  A    between atoms: C_1  and  C_2
REMARK    2  A    between atoms: C_2  and  O_3
REMARK    3  A    between atoms: O_3  and  C_4
REMARK    4  A    between atoms: C_4  and  C_6
REMARK    5  A    between atoms: C_7  and  N_8
REMARK    6  A    between atoms: C_15  and  C_16
REMARK    7  A    between atoms: C_15  and  C_17
REMARK    8  A    between atoms: C_19  and  C_20
REMARK    9  A    between atoms: C_21  and  C_22
REMARK   10  A    between atoms: N_24  and  C_25
REMARK   11  A    between atoms: C_31  and  N_32
REMARK                            x       y       z     vdW  Elec       q    Type
REMARK                         _______ _______ _______ _____ _____    ______ ____
ROOT
ATOM      1  C   UNL     1       0.578  13.185  19.413  0.00  0.00    +0.000 C 
ATOM      2  C   UNL     1       1.481  12.526  18.656  0.00  0.00    +0.000 C 
ATOM      3  O   UNL     1       1.748  11.182  18.855  0.00  0.00    +0.000 OA
ATOM      4  C   UNL     1       1.069  10.456  19.815  0.00  0.00    +0.000 C 
ATOM      5  C   UNL     1       0.192  11.031  20.655  0.00  0.00    +0.000 C 
ATOM      6  C   UNL     1      -0.450  10.173  21.695  0.00  0.00    +0.000 C 
ATOM      7  O   UNL     1      -1.105  10.669  22.607  0.00  0.00    +0.000 OA
ATOM      8  C   UNL     1      -0.302   8.667  21.574  0.00  0.00    +0.000 C 
ATOM      9  C   UNL     1       1.113   8.270  21.130  0.00  0.00    +0.000 C 
ATOM     10  C   UNL     1       2.135   8.621  22.232  0.00  0.00    +0.000 C 
ATOM     11  C   UNL     1       1.176   6.753  20.883  0.00  0.00    +0.000 C 
ATOM     12  C   UNL     1       1.448   9.003  19.819  0.00  0.00    +0.000 C 
ATOM     13  C   UNL     1      -0.108  12.519  20.597  0.00  0.00    +0.000 C 
ENDROOT
BRANCH  13  14
ATOM     14  C   UNL     1      -1.600  12.806  20.643  0.00  0.00    +0.000 A 
ATOM     15  C   UNL     1      -2.283  13.734  21.485  0.00  0.00    +0.000 A 
ATOM     16  C   UNL     1      -1.749  14.560  22.601  0.00  0.00    +0.000 C 
ATOM     17  N   UNL     1      -3.569  13.869  21.151  0.00  0.00    +0.000 NA
ATOM     18  N   UNL     1      -3.790  12.942  20.184  0.00  0.00    +0.000 N 
ATOM     19  C   UNL     1      -2.603  12.339  19.793  0.00  0.00    +0.000 A 
BRANCH  18  20
ATOM     20  C   UNL     1      -5.129  12.665  19.777  0.00  0.00    +0.000 A 
ATOM     21  C   UNL     1      -5.504  12.874  18.444  0.00  0.00    +0.000 A 
ATOM     22  C   UNL     1      -6.755  12.435  17.999  0.00  0.00    +0.000 A 
ATOM     23  C   UNL     1      -7.639  11.815  18.882  0.00  0.00    +0.000 A 
ATOM     24  C   UNL     1      -7.302  11.685  20.227  0.00  0.00    +0.000 A 
ATOM     25  C   UNL     1      -6.066  12.137  20.679  0.00  0.00    +0.000 A 
ENDBRANCH  18  20
BRANCH  19  26
ATOM     26  N   UNL     1      -2.482  11.496  18.680  0.00  0.00    +0.000 N 
ATOM     27  C   UNL     1      -2.077  11.839  17.403  0.00  0.00    +0.000 A 
ATOM     28  C   UNL     1      -2.292  10.737  16.614  0.00  0.00    +0.000 A 
ATOM     29  N   UNL     1      -2.720   9.684  17.366  0.00  0.00    +0.000 NA
ATOM     30  C   UNL     1      -2.792  10.155  18.593  0.00  0.00    +0.000 A 
ENDBRANCH  19  26
ENDBRANCH  13  14
BRANCH   2  31
ATOM     31  N   UNL     1       2.220  13.048  17.621  0.00  0.00    +0.000 N 
ATOM     32  H   UNL     1       3.173  13.292  17.889  0.00  0.00    +0.000 HD
ATOM     33  H   UNL     1       1.734  13.804  17.148  0.00  0.00    +0.000 HD
ENDBRANCH   2  31
BRANCH   1  34
ATOM     34  C   UNL     1       0.258  14.615  19.176  0.00  0.00    +0.000 C 
ATOM     35  O   UNL     1      -0.346  15.020  18.199  0.00  0.00    +0.000 OA
BRANCH  34  36
ATOM     36  O   UNL     1       0.818  15.403  20.134  0.00  0.00    +0.000 OA
BRANCH  36  38
ATOM     37  C   UNL     1      -0.267  17.441  20.814  0.00  0.00    +0.000 C 
ATOM     38  C   UNL     1       0.768  16.818  19.899  0.00  0.00    +0.000 C 
ENDBRANCH  36  38
ENDBRANCH  34  36
ENDBRANCH   1  34
TORSDOF 7
ENDMDL
MODEL 8
REMARK VINA RESULT:      -5.8      2.580      6.999
REMARK  Name = 
REMARK  11 active torsions:
REMARK  status: ('A' for Active; 'I' for Inactive)
REMARK    1  A    between atoms: C_1  and  C_2
REMARK    2  A    between atoms: C_2  and  O_3
REMARK    3  A    between atoms: O_3  and  C_4
REMARK    4  A    between atoms: C_4  and  C_6
REMARK    5  A    between atoms: C_7  and  N_8
REMARK    6  A    between atoms: C_15  and  C_16
REMARK    7  A    between atoms: C_15  and  C_17
REMARK    8  A    between atoms: C_19  and  C_20
REMARK    9  A    between atoms: C_21  and  C_22
REMARK   10  A    between atoms: N_24  and  C_25
REMARK   11  A    between atoms: C_31  and  N_32
REMARK                            x       y       z     vdW  Elec       q    Type
REMARK                         _______ _______ _______ _____ _____    ______ ____
ROOT
ATOM      1  C   UNL     1      -2.709  11.997  19.339  0.00  0.00    +0.000 C 
ATOM      2  C   UNL     1      -3.877  12.670  19.397  0.00  0.00    +0.000 C 
ATOM      3  O   UNL     1      -4.260  13.360  20.536  0.00  0.00    +0.000 OA
ATOM      4  C   UNL     1      -3.436  13.413  21.645  0.00  0.00    +0.000 C 
ATOM      5  C   UNL     1      -2.280  12.733  21.707  0.00  0.00    +0.000 C 
ATOM      6  C   UNL     1      -1.486  12.810  22.970  0.00  0.00    +0.000 C 
ATOM      7  O   UNL     1      -0.530  12.065  23.162  0.00  0.00    +0.000 OA
ATOM      8  C   UNL     1      -1.872  13.860  23.997  0.00  0.00    +0.000 C 
ATOM      9  C   UNL     1      -3.396  13.988  24.130  0.00  0.00    +0.000 C 
ATOM     10  C   UNL     1      -3.989  12.697  24.731  0.00  0.00    +0.000 C 
ATOM     11  C   UNL     1      -3.740  15.157  25.069  0.00  0.00    +0.000 C 
ATOM     12  C   UNL     1      -3.996  14.273  22.742  0.00  0.00    +0.000 C 
ATOM     13  C   UNL     1      -1.805  11.862  20.556  0.00  0.00    +0.000 C 
ENDROOT
BRANCH  13  14
ATOM     14  C   UNL     1      -0.341  12.098  20.223  0.00  0.00    +0.000 A 
ATOM     15  C   UNL     1       0.663  11.117  19.963  0.00  0.00    +0.000 A 
ATOM     16  C   UNL     1       0.579   9.636  20.067  0.00  0.00    +0.000 C 
ATOM     17  N   UNL     1       1.803  11.662  19.531  0.00  0.00    +0.000 NA
ATOM     18  N   UNL     1       1.622  13.004  19.629  0.00  0.00    +0.000 N 
ATOM     19  C   UNL     1       0.309  13.305  19.964  0.00  0.00    +0.000 A 
BRANCH  18  20
ATOM     20  C   UNL     1       2.742  13.872  19.466  0.00  0.00    +0.000 A 
ATOM     21  C   UNL     1       3.479  14.268  20.589  0.00  0.00    +0.000 A 
ATOM     22  C   UNL     1       4.679  14.967  20.418  0.00  0.00    +0.000 A 
ATOM     23  C   UNL     1       5.129  15.293  19.139  0.00  0.00    +0.000 A 
ATOM     24  C   UNL     1       4.353  14.976  18.027  0.00  0.00    +0.000 A 
ATOM     25  C   UNL     1       3.149  14.298  18.192  0.00  0.00    +0.000 A 
ENDBRANCH  18  20
BRANCH  19  26
ATOM     26  N   UNL     1      -0.229  14.599  19.936  0.00  0.00    +0.000 N 
ATOM     27  C   UNL     1      -0.728  15.281  18.842  0.00  0.00    +0.000 A 
ATOM     28  C   UNL     1      -0.968  16.567  19.257  0.00  0.00    +0.000 A 
ATOM     29  N   UNL     1      -0.737  16.690  20.594  0.00  0.00    +0.000 NA
ATOM     30  C   UNL     1      -0.331  15.498  20.977  0.00  0.00    +0.000 A 
ENDBRANCH  19  26
ENDBRANCH  13  14
BRANCH   2  31
ATOM     31  N   UNL     1      -4.809  12.786  18.392  0.00  0.00    +0.000 N 
ATOM     32  H   UNL     1      -5.002  13.753  18.131  0.00  0.00    +0.000 HD
ATOM     33  H   UNL     1      -5.649  12.250  18.587  0.00  0.00    +0.000 HD
ENDBRANCH   2  31
BRANCH   1  34
ATOM     34  C   UNL     1      -2.277  11.291  18.107  0.00  0.00    +0.000 C 
ATOM     35  O   UNL     1      -1.387  11.690  17.376  0.00  0.00    +0.000 OA
BRANCH  34  36
ATOM     36  O   UNL     1      -3.071  10.214  17.860  0.00  0.00    +0.000 OA
BRANCH  36  38
ATOM     37  C   UNL     1      -3.781  10.357  15.565  0.00  0.00    +0.000 C 
ATOM     38  C   UNL     1      -2.928   9.606  16.568  0.00  0.00    +0.000 C 
ENDBRANCH  36  38
ENDBRANCH  34  36
ENDBRANCH   1  34
TORSDOF 7
ENDMDL
MODEL 9
REMARK VINA RESULT:      -5.7      5.369      8.714
REMARK  Name = 
REMARK  11 active torsions:
REMARK  status: ('A' for Active; 'I' for Inactive)
REMARK    1  A    between atoms: C_1  and  C_2
REMARK    2  A    between atoms: C_2  and  O_3
REMARK    3  A    between atoms: O_3  and  C_4
REMARK    4  A    between atoms: C_4  and  C_6
REMARK    5  A    between atoms: C_7  and  N_8
REMARK    6  A    between atoms: C_15  and  C_16
REMARK    7  A    between atoms: C_15  and  C_17
REMARK    8  A    between atoms: C_19  and  C_20
REMARK    9  A    between atoms: C_21  and  C_22
REMARK   10  A    between atoms: N_24  and  C_25
REMARK   11  A    between atoms: C_31  and  N_32
REMARK                            x       y       z     vdW  Elec       q    Type
REMARK                         _______ _______ _______ _____ _____    ______ ____
ROOT
ATOM      1  C   UNL     1       9.426  15.249  23.154  0.00  0.00    +0.000 C 
ATOM      2  C   UNL     1      10.449  15.961  22.637  0.00  0.00    +0.000 C 
ATOM      3  O   UNL     1      11.088  15.569  21.472  0.00  0.00    +0.000 OA
ATOM      4  C   UNL     1      10.672  14.450  20.776  0.00  0.00    +0.000 C 
ATOM      5  C   UNL     1       9.701  13.645  21.235  0.00  0.00    +0.000 C 
ATOM      6  C   UNL     1       9.360  12.429  20.437  0.00  0.00    +0.000 C 
ATOM      7  O   UNL     1       8.626  11.558  20.896  0.00  0.00    +0.000 OA
ATOM      8  C   UNL     1       9.917  12.315  19.030  0.00  0.00    +0.000 C 
ATOM      9  C   UNL     1      11.370  12.805  18.955  0.00  0.00    +0.000 C 
ATOM     10  C   UNL     1      12.293  11.865  19.759  0.00  0.00    +0.000 C 
ATOM     11  C   UNL     1      11.844  12.807  17.491  0.00  0.00    +0.000 C 
ATOM     12  C   UNL     1      11.441  14.242  19.502  0.00  0.00    +0.000 C 
ATOM     13  C   UNL     1       8.995  13.919  22.552  0.00  0.00    +0.000 C 
ENDROOT
BRANCH  13  14
ATOM     14  C   UNL     1       7.485  13.796  22.433  0.00  0.00    +0.000 A 
ATOM     15  C   UNL     1       6.626  12.895  23.132  0.00  0.00    +0.000 A 
ATOM     16  C   UNL     1       6.980  11.780  24.050  0.00  0.00    +0.000 C 
ATOM     17  N   UNL     1       5.335  13.166  22.925  0.00  0.00    +0.000 NA
ATOM     18  N   UNL     1       5.316  14.149  21.990  0.00  0.00    +0.000 N 
ATOM     19  C   UNL     1       6.598  14.613  21.731  0.00  0.00    +0.000 A 
BRANCH  18  20
ATOM     20  C   UNL     1       4.079  14.503  21.375  0.00  0.00    +0.000 A 
ATOM     21  C   UNL     1       3.093  15.153  22.127  0.00  0.00    +0.000 A 
ATOM     22  C   UNL     1       1.958  15.663  21.489  0.00  0.00    +0.000 A 
ATOM     23  C   UNL     1       1.791  15.503  20.112  0.00  0.00    +0.000 A 
ATOM     24  C   UNL     1       2.728  14.781  19.379  0.00  0.00    +0.000 A 
ATOM     25  C   UNL     1       3.850  14.255  20.012  0.00  0.00    +0.000 A 
ENDBRANCH  18  20
BRANCH  19  26
ATOM     26  N   UNL     1       6.879  15.756  20.970  0.00  0.00    +0.000 N 
ATOM     27  C   UNL     1       7.374  15.809  19.680  0.00  0.00    +0.000 A 
ATOM     28  C   UNL     1       7.661  17.126  19.424  0.00  0.00    +0.000 A 
ATOM     29  N   UNL     1       7.269  17.914  20.465  0.00  0.00    +0.000 NA
ATOM     30  C   UNL     1       6.779  17.077  21.354  0.00  0.00    +0.000 A 
ENDBRANCH  19  26
ENDBRANCH  13  14
BRANCH   2  31
ATOM     31  N   UNL     1      10.977  17.126  23.143  0.00  0.00    +0.000 N 
ATOM     32  H   UNL     1      10.588  17.965  22.714  0.00  0.00    +0.000 HD
ATOM     33  H   UNL     1      11.993  17.114  23.147  0.00  0.00    +0.000 HD
ENDBRANCH   2  31
BRANCH   1  34
ATOM     34  C   UNL     1       8.712  15.687  24.380  0.00  0.00    +0.000 C 
ATOM     35  O   UNL     1       8.173  16.774  24.496  0.00  0.00    +0.000 OA
BRANCH  34  36
ATOM     36  O   UNL     1       8.836  14.763  25.371  0.00  0.00    +0.000 OA
BRANCH  36  38
ATOM     37  C   UNL     1       6.905  14.308  26.733  0.00  0.00    +0.000 C 
ATOM     38  C   UNL     1       8.201  15.084  26.618  0.00  0.00    +0.000 C 
ENDBRANCH  36  38
ENDBRANCH  34  36
ENDBRANCH   1  34
TORSDOF 7
ENDMDL
