MODEL 1
REMARK VINA RESULT:      -8.0      0.000      0.000
REMARK  Name = 
REMARK  6 active torsions:
REMARK  status: ('A' for Active; 'I' for Inactive)
REMARK    1  A    between atoms: S_2  and  N_4
REMARK    2  A    between atoms: S_2  and  C_23
REMARK    3  A    between atoms: N_4  and  C_5
REMARK    4  A    between atoms: C_5  and  C_6
REMARK    5  A    between atoms: C_6  and  C_7
REMARK    6  A    between atoms: C_6  and  N_13
REMARK                            x       y       z     vdW  Elec       q    Type
REMARK                         _______ _______ _______ _____ _____    ______ ____
ROOT
ATOM      1  C   UNL     1       5.150   5.564  18.467  0.00  0.00    +0.000 C 
ENDROOT
BRANCH   1   2
ATOM      2  N   UNL     1       3.736   6.028  18.486  0.00  0.00    +0.000 NA
ATOM      3  C   UNL     1       3.377   6.918  17.364  0.00  0.00    +0.000 C 
ATOM      4  C   UNL     1       3.125   8.395  17.728  0.00  0.00    +0.000 C 
ATOM      5  C   UNL     1       2.085   8.464  18.812  0.00  0.00    +0.000 A 
ATOM      6  C   UNL     1       1.129   9.481  18.881  0.00  0.00    +0.000 A 
ATOM      7  C   UNL     1       0.210   9.500  19.931  0.00  0.00    +0.000 A 
ATOM      8  C   UNL     1       0.247   8.512  20.916  0.00  0.00    +0.000 A 
ATOM      9  C   UNL     1       1.208   7.504  20.858  0.00  0.00    +0.000 A 
ATOM     10  C   UNL     1       2.130   7.475  19.805  0.00  0.00    +0.000 A 
ATOM     11  C   UNL     1       3.283   6.500  19.810  0.00  0.00    +0.000 C 
ENDBRANCH   1   2
BRANCH   1  12
ATOM     12  C   UNL     1       5.615   5.245  17.045  0.00  0.00    +0.000 A 
ATOM     13  C   UNL     1       4.831   4.534  16.123  0.00  0.00    +0.000 A 
ATOM     14  C   UNL     1       5.293   4.308  14.834  0.00  0.00    +0.000 A 
ATOM     15  C   UNL     1       6.536   4.807  14.492  0.00  0.00    +0.000 A 
ATOM     16  N   UNL     1       7.321   5.504  15.340  0.00  0.00    +0.000 NA
ATOM     17  C   UNL     1       6.841   5.717  16.592  0.00  0.00    +0.000 A 
ENDBRANCH   1  12
BRANCH   1  18
ATOM     18  C   UNL     1       5.413   4.404  19.463  0.00  0.00    +0.000 C 
BRANCH  18  19
ATOM     19  N   UNL     1       5.473   3.058  18.845  0.00  0.00    +0.000 NA
ATOM     20  H   UNL     1       5.237   3.021  17.848  0.00  0.00    +0.000 HD
BRANCH  19  22
ATOM     21  O   UNL     1       4.442   0.722  18.879  0.00  0.00    +0.000 OA
ATOM     22  S   UNL     1       4.600   1.888  19.723  0.00  0.00    +0.000 S 
ATOM     23  O   UNL     1       5.179   1.824  21.046  0.00  0.00    +0.000 OA
BRANCH  22  24
ATOM     24  C   UNL     1       3.005   2.669  19.848  0.00  0.00    +0.000 A 
ATOM     25  C   UNL     1       2.285   2.948  18.681  0.00  0.00    +0.000 A 
ATOM     26  C   UNL     1       1.039   3.567  18.779  0.00  0.00    +0.000 A 
ATOM     27  C   UNL     1       0.520   3.895  20.033  0.00  0.00    +0.000 A 
ATOM     28  C   UNL     1       1.249   3.620  21.192  0.00  0.00    +0.000 A 
ATOM     29  C   UNL     1       2.499   3.010  21.104  0.00  0.00    +0.000 A 
ENDBRANCH  22  24
ENDBRANCH  19  22
ENDBRANCH  18  19
ENDBRANCH   1  18
TORSDOF 6
ENDMDL
MODEL 2
REMARK VINA RESULT:      -7.9      2.424      5.608
REMARK  Name = 
REMARK  6 active torsions:
REMARK  status: ('A' for Active; 'I' for Inactive)
REMARK    1  A    between atoms: S_2  and  N_4
REMARK    2  A    between atoms: S_2  and  C_23
REMARK    3  A    between atoms: N_4  and  C_5
REMARK    4  A    between atoms: C_5  and  C_6
REMARK    5  A    between atoms: C_6  and  C_7
REMARK    6  A    between atoms: C_6  and  N_13
REMARK                            x       y       z     vdW  Elec       q    Type
REMARK                         _______ _______ _______ _____ _____    ______ ____
ROOT
ATOM      1  C   UNL     1       3.186   5.189  17.851  0.00  0.00    +0.000 C 
ENDROOT
BRANCH   1   2
ATOM      2  N   UNL     1       3.198   6.554  18.446  0.00  0.00    +0.000 NA
ATOM      3  C   UNL     1       3.055   6.571  19.916  0.00  0.00    +0.000 C 
ATOM      4  C   UNL     1       1.718   7.116  20.457  0.00  0.00    +0.000 C 
ATOM      5  C   UNL     1       1.475   8.485  19.884  0.00  0.00    +0.000 A 
ATOM      6  C   UNL     1       0.864   9.512  20.609  0.00  0.00    +0.000 A 
ATOM      7  C   UNL     1       0.644  10.751  20.006  0.00  0.00    +0.000 A 
ATOM      8  C   UNL     1       1.025  10.965  18.680  0.00  0.00    +0.000 A 
ATOM      9  C   UNL     1       1.622   9.939  17.951  0.00  0.00    +0.000 A 
ATOM     10  C   UNL     1       1.851   8.696  18.550  0.00  0.00    +0.000 A 
ATOM     11  C   UNL     1       2.336   7.520  17.736  0.00  0.00    +0.000 C 
ENDBRANCH   1   2
BRANCH   1  12
ATOM     12  C   UNL     1       2.566   4.167  18.806  0.00  0.00    +0.000 A 
ATOM     13  C   UNL     1       1.209   3.808  18.769  0.00  0.00    +0.000 A 
ATOM     14  C   UNL     1       0.714   2.846  19.638  0.00  0.00    +0.000 A 
ATOM     15  C   UNL     1       1.594   2.255  20.526  0.00  0.00    +0.000 A 
ATOM     16  N   UNL     1       2.906   2.561  20.591  0.00  0.00    +0.000 NA
ATOM     17  C   UNL     1       3.366   3.500  19.725  0.00  0.00    +0.000 A 
ENDBRANCH   1  12
BRANCH   1  18
ATOM     18  C   UNL     1       4.579   4.755  17.323  0.00  0.00    +0.000 C 
BRANCH  18  19
ATOM     19  N   UNL     1       5.270   5.770  16.493  0.00  0.00    +0.000 NA
ATOM     20  H   UNL     1       4.807   6.005  15.609  0.00  0.00    +0.000 HD
BRANCH  19  22
ATOM     21  O   UNL     1       7.658   6.653  16.285  0.00  0.00    +0.000 OA
ATOM     22  S   UNL     1       6.917   5.410  16.244  0.00  0.00    +0.000 S 
ATOM     23  O   UNL     1       7.240   4.279  17.083  0.00  0.00    +0.000 OA
BRANCH  22  24
ATOM     24  C   UNL     1       6.898   4.862  14.551  0.00  0.00    +0.000 A 
ATOM     25  C   UNL     1       7.771   5.454  13.630  0.00  0.00    +0.000 A 
ATOM     26  C   UNL     1       7.751   5.031  12.301  0.00  0.00    +0.000 A 
ATOM     27  C   UNL     1       6.871   4.022  11.904  0.00  0.00    +0.000 A 
ATOM     28  C   UNL     1       5.998   3.442  12.827  0.00  0.00    +0.000 A 
ATOM     29  C   UNL     1       6.004   3.865  14.155  0.00  0.00    +0.000 A 
ENDBRANCH  22  24
ENDBRANCH  19  22
ENDBRANCH  18  19
ENDBRANCH   1  18
TORSDOF 6
ENDMDL
MODEL 3
REMARK VINA RESULT:      -7.7      2.352      4.934
REMARK  Name = 
REMARK  6 active torsions:
REMARK  status: ('A' for Active; 'I' for Inactive)
REMARK    1  A    between atoms: S_2  and  N_4
REMARK    2  A    between atoms: S_2  and  C_23
REMARK    3  A    between atoms: N_4  and  C_5
REMARK    4  A    between atoms: C_5  and  C_6
REMARK    5  A    between atoms: C_6  and  C_7
REMARK    6  A    between atoms: C_6  and  N_13
REMARK                            x       y       z     vdW  Elec       q    Type
REMARK                         _______ _______ _______ _____ _____    ______ ____
ROOT
ATOM      1  C   UNL     1       3.061   5.715  17.752  0.00  0.00    +0.000 C 
ENDROOT
BRANCH   1   2
ATOM      2  N   UNL     1       2.007   6.599  18.324  0.00  0.00    +0.000 NA
ATOM      3  C   UNL     1       1.619   7.721  17.445  0.00  0.00    +0.000 C 
ATOM      4  C   UNL     1       2.054   9.125  17.912  0.00  0.00    +0.000 C 
ATOM      5  C   UNL     1       1.559   9.353  19.313  0.00  0.00    +0.000 A 
ATOM      6  C   UNL     1       1.116  10.599  19.766  0.00  0.00    +0.000 A 
ATOM      7  C   UNL     1       0.696  10.747  21.089  0.00  0.00    +0.000 A 
ATOM      8  C   UNL     1       0.723   9.658  21.962  0.00  0.00    +0.000 A 
ATOM      9  C   UNL     1       1.176   8.418  21.516  0.00  0.00    +0.000 A 
ATOM     10  C   UNL     1       1.594   8.260  20.190  0.00  0.00    +0.000 A 
ATOM     11  C   UNL     1       2.248   6.979  19.730  0.00  0.00    +0.000 C 
ENDBRANCH   1   2
BRANCH   1  12
ATOM     12  C   UNL     1       2.802   4.246  18.089  0.00  0.00    +0.000 A 
ATOM     13  C   UNL     1       1.516   3.721  18.298  0.00  0.00    +0.000 A 
ATOM     14  C   UNL     1       1.343   2.371  18.563  0.00  0.00    +0.000 A 
ATOM     15  C   UNL     1       2.467   1.567  18.609  0.00  0.00    +0.000 A 
ATOM     16  N   UNL     1       3.720   2.023  18.407  0.00  0.00    +0.000 NA
ATOM     17  C   UNL     1       3.860   3.347  18.141  0.00  0.00    +0.000 A 
ENDBRANCH   1  12
BRANCH   1  18
ATOM     18  C   UNL     1       4.495   6.177  18.124  0.00  0.00    +0.000 C 
BRANCH  18  19
ATOM     19  N   UNL     1       5.283   6.721  16.993  0.00  0.00    +0.000 NA
ATOM     20  H   UNL     1       4.789   6.772  16.097  0.00  0.00    +0.000 HD
BRANCH  19  22
ATOM     21  O   UNL     1       7.795   6.984  16.616  0.00  0.00    +0.000 OA
ATOM     22  S   UNL     1       6.795   5.956  16.814  0.00  0.00    +0.000 S 
ATOM     23  O   UNL     1       6.897   4.957  17.854  0.00  0.00    +0.000 OA
BRANCH  22  24
ATOM     24  C   UNL     1       6.579   5.121  15.257  0.00  0.00    +0.000 A 
ATOM     25  C   UNL     1       7.533   5.296  14.248  0.00  0.00    +0.000 A 
ATOM     26  C   UNL     1       7.360   4.649  13.025  0.00  0.00    +0.000 A 
ATOM     27  C   UNL     1       6.245   3.832  12.820  0.00  0.00    +0.000 A 
ATOM     28  C   UNL     1       5.294   3.669  13.830  0.00  0.00    +0.000 A 
ATOM     29  C   UNL     1       5.454   4.319  15.052  0.00  0.00    +0.000 A 
ENDBRANCH  22  24
ENDBRANCH  19  22
ENDBRANCH  18  19
ENDBRANCH   1  18
TORSDOF 6
ENDMDL
MODEL 4
REMARK VINA RESULT:      -7.6      2.753      5.563
REMARK  Name = 
REMARK  6 active torsions:
REMARK  status: ('A' for Active; 'I' for Inactive)
REMARK    1  A    between atoms: S_2  and  N_4
REMARK    2  A    between atoms: S_2  and  C_23
REMARK    3  A    between atoms: N_4  and  C_5
REMARK    4  A    between atoms: C_5  and  C_6
REMARK    5  A    between atoms: C_6  and  C_7
REMARK    6  A    between atoms: C_6  and  N_13
REMARK                            x       y       z     vdW  Elec       q    Type
REMARK                         _______ _______ _______ _____ _____    ______ ____
ROOT
ATOM      1  C   UNL     1       4.041   4.974  17.477  0.00  0.00    +0.000 C 
ENDROOT
BRANCH   1   2
ATOM      2  N   UNL     1       3.866   6.271  18.187  0.00  0.00    +0.000 NA
ATOM      3  C   UNL     1       3.644   6.138  19.641  0.00  0.00    +0.000 C 
ATOM      4  C   UNL     1       2.226   6.483  20.141  0.00  0.00    +0.000 C 
ATOM      5  C   UNL     1       1.861   7.864  19.673  0.00  0.00    +0.000 A 
ATOM      6  C   UNL     1       1.100   8.748  20.443  0.00  0.00    +0.000 A 
ATOM      7  C   UNL     1       0.774  10.007  19.935  0.00  0.00    +0.000 A 
ATOM      8  C   UNL     1       1.198  10.382  18.660  0.00  0.00    +0.000 A 
ATOM      9  C   UNL     1       1.946   9.498  17.884  0.00  0.00    +0.000 A 
ATOM     10  C   UNL     1       2.282   8.237  18.388  0.00  0.00    +0.000 A 
ATOM     11  C   UNL     1       2.940   7.200  17.509  0.00  0.00    +0.000 C 
ENDBRANCH   1   2
BRANCH   1  12
ATOM     12  C   UNL     1       3.175   3.876  18.097  0.00  0.00    +0.000 A 
ATOM     13  C   UNL     1       1.796   3.761  17.861  0.00  0.00    +0.000 A 
ATOM     14  C   UNL     1       1.072   2.719  18.424  0.00  0.00    +0.000 A 
ATOM     15  C   UNL     1       1.749   1.805  19.210  0.00  0.00    +0.000 A 
ATOM     16  N   UNL     1       3.073   1.869  19.457  0.00  0.00    +0.000 NA
ATOM     17  C   UNL     1       3.759   2.894  18.889  0.00  0.00    +0.000 A 
ENDBRANCH   1  12
BRANCH   1  18
ATOM     18  C   UNL     1       5.531   4.564  17.339  0.00  0.00    +0.000 C 
BRANCH  18  19
ATOM     19  N   UNL     1       5.873   3.897  16.060  0.00  0.00    +0.000 NA
ATOM     20  H   UNL     1       6.538   3.121  16.133  0.00  0.00    +0.000 HD
BRANCH  19  22
ATOM     21  O   UNL     1       5.395   6.087  14.836  0.00  0.00    +0.000 OA
ATOM     22  S   UNL     1       6.348   4.997  14.849  0.00  0.00    +0.000 S 
ATOM     23  O   UNL     1       7.772   5.205  14.992  0.00  0.00    +0.000 OA
BRANCH  22  24
ATOM     24  C   UNL     1       6.069   4.034  13.379  0.00  0.00    +0.000 A 
ATOM     25  C   UNL     1       4.758   3.832  12.931  0.00  0.00    +0.000 A 
ATOM     26  C   UNL     1       4.539   3.070  11.783  0.00  0.00    +0.000 A 
ATOM     27  C   UNL     1       5.622   2.525  11.091  0.00  0.00    +0.000 A 
ATOM     28  C   UNL     1       6.926   2.725  11.549  0.00  0.00    +0.000 A 
ATOM     29  C   UNL     1       7.155   3.477  12.700  0.00  0.00    +0.000 A 
ENDBRANCH  22  24
ENDBRANCH  19  22
ENDBRANCH  18  19
ENDBRANCH   1  18
TORSDOF 6
ENDMDL
MODEL 5
REMARK VINA RESULT:      -7.6      2.464      4.998
REMARK  Name = 
REMARK  6 active torsions:
REMARK  status: ('A' for Active; 'I' for Inactive)
REMARK    1  A    between atoms: S_2  and  N_4
REMARK    2  A    between atoms: S_2  and  C_23
REMARK    3  A    between atoms: N_4  and  C_5
REMARK    4  A    between atoms: C_5  and  C_6
REMARK    5  A    between atoms: C_6  and  C_7
REMARK    6  A    between atoms: C_6  and  N_13
REMARK                            x       y       z     vdW  Elec       q    Type
REMARK                         _______ _______ _______ _____ _____    ______ ____
ROOT
ATOM      1  C   UNL     1       3.078   5.832  17.747  0.00  0.00    +0.000 C 
ENDROOT
BRANCH   1   2
ATOM      2  N   UNL     1       2.010   6.683  18.340  0.00  0.00    +0.000 NA
ATOM      3  C   UNL     1       1.588   7.807  17.481  0.00  0.00    +0.000 C 
ATOM      4  C   UNL     1       1.996   9.214  17.964  0.00  0.00    +0.000 C 
ATOM      5  C   UNL     1       1.508   9.412  19.373  0.00  0.00    +0.000 A 
ATOM      6  C   UNL     1       1.041  10.641  19.847  0.00  0.00    +0.000 A 
ATOM      7  C   UNL     1       0.630  10.760  21.176  0.00  0.00    +0.000 A 
ATOM      8  C   UNL     1       0.690   9.660  22.033  0.00  0.00    +0.000 A 
ATOM      9  C   UNL     1       1.167   8.437  21.566  0.00  0.00    +0.000 A 
ATOM     10  C   UNL     1       1.576   8.307  20.234  0.00  0.00    +0.000 A 
ATOM     11  C   UNL     1       2.255   7.048  19.750  0.00  0.00    +0.000 C 
ENDBRANCH   1   2
BRANCH   1  12
ATOM     12  C   UNL     1       2.824   4.347  18.015  0.00  0.00    +0.000 A 
ATOM     13  C   UNL     1       3.850   3.433  18.303  0.00  0.00    +0.000 A 
ATOM     14  C   UNL     1       3.552   2.105  18.574  0.00  0.00    +0.000 A 
ATOM     15  C   UNL     1       2.225   1.719  18.557  0.00  0.00    +0.000 A 
ATOM     16  N   UNL     1       1.205   2.562  18.295  0.00  0.00    +0.000 NA
ATOM     17  C   UNL     1       1.524   3.857  18.041  0.00  0.00    +0.000 A 
ENDBRANCH   1  12
BRANCH   1  18
ATOM     18  C   UNL     1       4.503   6.285  18.161  0.00  0.00    +0.000 C 
BRANCH  18  19
ATOM     19  N   UNL     1       5.328   6.823  17.053  0.00  0.00    +0.000 NA
ATOM     20  H   UNL     1       4.852   6.903  16.149  0.00  0.00    +0.000 HD
BRANCH  19  22
ATOM     21  O   UNL     1       7.847   7.014  16.676  0.00  0.00    +0.000 OA
ATOM     22  S   UNL     1       6.819   6.015  16.888  0.00  0.00    +0.000 S 
ATOM     23  O   UNL     1       6.893   5.030  17.943  0.00  0.00    +0.000 OA
BRANCH  22  24
ATOM     24  C   UNL     1       6.583   5.164  15.344  0.00  0.00    +0.000 A 
ATOM     25  C   UNL     1       5.460   4.345  15.177  0.00  0.00    +0.000 A 
ATOM     26  C   UNL     1       5.280   3.671  13.970  0.00  0.00    +0.000 A 
ATOM     27  C   UNL     1       6.211   3.823  12.940  0.00  0.00    +0.000 A 
ATOM     28  C   UNL     1       7.332   4.636  13.117  0.00  0.00    +0.000 A 
ATOM     29  C   UNL     1       7.526   5.307  14.324  0.00  0.00    +0.000 A 
ENDBRANCH  22  24
ENDBRANCH  19  22
ENDBRANCH  18  19
ENDBRANCH   1  18
TORSDOF 6
ENDMDL
MODEL 6
REMARK VINA RESULT:      -7.4      2.488      5.501
REMARK  Name = 
REMARK  6 active torsions:
REMARK  status: ('A' for Active; 'I' for Inactive)
REMARK    1  A    between atoms: S_2  and  N_4
REMARK    2  A    between atoms: S_2  and  C_23
REMARK    3  A    between atoms: N_4  and  C_5
REMARK    4  A    between atoms: C_5  and  C_6
REMARK    5  A    between atoms: C_6  and  C_7
REMARK    6  A    between atoms: C_6  and  N_13
REMARK                            x       y       z     vdW  Elec       q    Type
REMARK                         _______ _______ _______ _____ _____    ______ ____
ROOT
ATOM      1  C   UNL     1       3.200   6.308  17.930  0.00  0.00    +0.000 C 
ENDROOT
BRANCH   1   2
ATOM      2  N   UNL     1       2.912   7.173  19.108  0.00  0.00    +0.000 NA
ATOM      3  C   UNL     1       2.524   6.428  20.322  0.00  0.00    +0.000 C 
ATOM      4  C   UNL     1       1.050   6.564  20.754  0.00  0.00    +0.000 C 
ATOM      5  C   UNL     1       0.710   8.022  20.895  0.00  0.00    +0.000 A 
ATOM      6  C   UNL     1      -0.157   8.506  21.878  0.00  0.00    +0.000 A 
ATOM      7  C   UNL     1      -0.451   9.870  21.934  0.00  0.00    +0.000 A 
ATOM      8  C   UNL     1       0.111  10.749  21.007  0.00  0.00    +0.000 A 
ATOM      9  C   UNL     1       0.965  10.267  20.017  0.00  0.00    +0.000 A 
ATOM     10  C   UNL     1       1.270   8.903  19.958  0.00  0.00    +0.000 A 
ATOM     11  C   UNL     1       2.051   8.332  18.799  0.00  0.00    +0.000 C 
ENDBRANCH   1   2
BRANCH   1  12
ATOM     12  C   UNL     1       2.847   4.846  18.210  0.00  0.00    +0.000 A 
ATOM     13  C   UNL     1       3.680   3.982  18.938  0.00  0.00    +0.000 A 
ATOM     14  C   UNL     1       3.286   2.675  19.191  0.00  0.00    +0.000 A 
ATOM     15  C   UNL     1       2.058   2.261  18.712  0.00  0.00    +0.000 A 
ATOM     16  N   UNL     1       1.220   3.057  18.016  0.00  0.00    +0.000 NA
ATOM     17  C   UNL     1       1.626   4.333  17.789  0.00  0.00    +0.000 A 
ENDBRANCH   1  12
BRANCH   1  18
ATOM     18  C   UNL     1       4.644   6.489  17.394  0.00  0.00    +0.000 C 
BRANCH  18  19
ATOM     19  N   UNL     1       4.968   5.673  16.200  0.00  0.00    +0.000 NA
ATOM     20  H   UNL     1       4.388   4.840  16.066  0.00  0.00    +0.000 HD
BRANCH  19  22
ATOM     21  O   UNL     1       7.379   6.517  16.234  0.00  0.00    +0.000 OA
ATOM     22  S   UNL     1       6.625   5.289  16.093  0.00  0.00    +0.000 S 
ATOM     23  O   UNL     1       6.852   4.132  16.928  0.00  0.00    +0.000 OA
BRANCH  22  24
ATOM     24  C   UNL     1       6.753   4.784  14.391  0.00  0.00    +0.000 A 
ATOM     25  C   UNL     1       5.905   3.781  13.908  0.00  0.00    +0.000 A 
ATOM     26  C   UNL     1       6.011   3.379  12.577  0.00  0.00    +0.000 A 
ATOM     27  C   UNL     1       6.953   3.981  11.740  0.00  0.00    +0.000 A 
ATOM     28  C   UNL     1       7.801   4.976  12.232  0.00  0.00    +0.000 A 
ATOM     29  C   UNL     1       7.708   5.378  13.563  0.00  0.00    +0.000 A 
ENDBRANCH  22  24
ENDBRANCH  19  22
ENDBRANCH  18  19
ENDBRANCH   1  18
TORSDOF 6
ENDMDL
MODEL 7
REMARK VINA RESULT:      -7.4      3.226      6.812
REMARK  Name = 
REMARK  6 active torsions:
REMARK  status: ('A' for Active; 'I' for Inactive)
REMARK    1  A    between atoms: S_2  and  N_4
REMARK    2  A    between atoms: S_2  and  C_23
REMARK    3  A    between atoms: N_4  and  C_5
REMARK    4  A    between atoms: C_5  and  C_6
REMARK    5  A    between atoms: C_6  and  C_7
REMARK    6  A    between atoms: C_6  and  N_13
REMARK                            x       y       z     vdW  Elec       q    Type
REMARK                         _______ _______ _______ _____ _____    ______ ____
ROOT
ATOM      1  C   UNL     1       3.344   5.645  19.228  0.00  0.00    +0.000 C 
ENDROOT
BRANCH   1   2
ATOM      2  N   UNL     1       4.415   4.997  18.422  0.00  0.00    +0.000 NA
ATOM      3  C   UNL     1       5.763   5.553  18.654  0.00  0.00    +0.000 C 
ATOM      4  C   UNL     1       6.364   6.371  17.492  0.00  0.00    +0.000 C 
ATOM      5  C   UNL     1       6.341   5.538  16.240  0.00  0.00    +0.000 A 
ATOM      6  C   UNL     1       7.353   5.590  15.277  0.00  0.00    +0.000 A 
ATOM      7  C   UNL     1       7.254   4.810  14.124  0.00  0.00    +0.000 A 
ATOM      8  C   UNL     1       6.146   3.985  13.926  0.00  0.00    +0.000 A 
ATOM      9  C   UNL     1       5.129   3.941  14.877  0.00  0.00    +0.000 A 
ATOM     10  C   UNL     1       5.223   4.716  16.039  0.00  0.00    +0.000 A 
ATOM     11  C   UNL     1       4.063   4.818  16.999  0.00  0.00    +0.000 C 
ENDBRANCH   1   2
BRANCH   1  12
ATOM     12  C   UNL     1       2.496   4.609  19.969  0.00  0.00    +0.000 A 
ATOM     13  C   UNL     1       1.414   3.938  19.377  0.00  0.00    +0.000 A 
ATOM     14  C   UNL     1       0.707   2.981  20.090  0.00  0.00    +0.000 A 
ATOM     15  C   UNL     1       1.103   2.709  21.387  0.00  0.00    +0.000 A 
ATOM     16  N   UNL     1       2.141   3.321  21.994  0.00  0.00    +0.000 NA
ATOM     17  C   UNL     1       2.821   4.248  21.271  0.00  0.00    +0.000 A 
ENDBRANCH   1  12
BRANCH   1  18
ATOM     18  C   UNL     1       2.491   6.641  18.398  0.00  0.00    +0.000 C 
BRANCH  18  19
ATOM     19  N   UNL     1       2.912   8.058  18.509  0.00  0.00    +0.000 NA
ATOM     20  H   UNL     1       3.371   8.313  19.388  0.00  0.00    +0.000 HD
BRANCH  19  22
ATOM     21  O   UNL     1       2.264  10.388  17.688  0.00  0.00    +0.000 OA
ATOM     22  S   UNL     1       1.659   9.150  18.134  0.00  0.00    +0.000 S 
ATOM     23  O   UNL     1       0.682   8.430  17.350  0.00  0.00    +0.000 OA
BRANCH  22  24
ATOM     24  C   UNL     1       0.969   9.451  19.747  0.00  0.00    +0.000 A 
ATOM     25  C   UNL     1       0.039  10.484  19.913  0.00  0.00    +0.000 A 
ATOM     26  C   UNL     1      -0.495  10.725  21.178  0.00  0.00    +0.000 A 
ATOM     27  C   UNL     1      -0.105   9.935  22.262  0.00  0.00    +0.000 A 
ATOM     28  C   UNL     1       0.830   8.912  22.090  0.00  0.00    +0.000 A 
ATOM     29  C   UNL     1       1.376   8.669  20.830  0.00  0.00    +0.000 A 
ENDBRANCH  22  24
ENDBRANCH  19  22
ENDBRANCH  18  19
ENDBRANCH   1  18
TORSDOF 6
ENDMDL
MODEL 8
REMARK VINA RESULT:      -7.3      3.427      7.063
REMARK  Name = 
REMARK  6 active torsions:
REMARK  status: ('A' for Active; 'I' for Inactive)
REMARK    1  A    between atoms: S_2  and  N_4
REMARK    2  A    between atoms: S_2  and  C_23
REMARK    3  A    between atoms: N_4  and  C_5
REMARK    4  A    between atoms: C_5  and  C_6
REMARK    5  A    between atoms: C_6  and  C_7
REMARK    6  A    between atoms: C_6  and  N_13
REMARK                            x       y       z     vdW  Elec       q    Type
REMARK                         _______ _______ _______ _____ _____    ______ ____
ROOT
ATOM      1  C   UNL     1       2.710   6.269  20.149  0.00  0.00    +0.000 C 
ENDROOT
BRANCH   1   2
ATOM      2  N   UNL     1       3.275   6.283  18.771  0.00  0.00    +0.000 NA
ATOM      3  C   UNL     1       2.530   5.450  17.806  0.00  0.00    +0.000 C 
ATOM      4  C   UNL     1       3.247   4.172  17.325  0.00  0.00    +0.000 C 
ATOM      5  C   UNL     1       4.597   4.541  16.776  0.00  0.00    +0.000 A 
ATOM      6  C   UNL     1       5.173   3.893  15.679  0.00  0.00    +0.000 A 
ATOM      7  C   UNL     1       6.443   4.268  15.239  0.00  0.00    +0.000 A 
ATOM      8  C   UNL     1       7.143   5.282  15.894  0.00  0.00    +0.000 A 
ATOM      9  C   UNL     1       6.578   5.921  16.996  0.00  0.00    +0.000 A 
ATOM     10  C   UNL     1       5.303   5.555  17.440  0.00  0.00    +0.000 A 
ATOM     11  C   UNL     1       4.741   6.108  18.728  0.00  0.00    +0.000 C 
ENDBRANCH   1   2
BRANCH   1  12
ATOM     12  C   UNL     1       2.282   4.860  20.564  0.00  0.00    +0.000 A 
ATOM     13  C   UNL     1       0.994   4.350  20.335  0.00  0.00    +0.000 A 
ATOM     14  C   UNL     1       0.677   3.050  20.701  0.00  0.00    +0.000 A 
ATOM     15  C   UNL     1       1.664   2.280  21.287  0.00  0.00    +0.000 A 
ATOM     16  N   UNL     1       2.918   2.722  21.519  0.00  0.00    +0.000 NA
ATOM     17  C   UNL     1       3.203   3.995  21.144  0.00  0.00    +0.000 A 
ENDBRANCH   1  12
BRANCH   1  18
ATOM     18  C   UNL     1       1.589   7.323  20.346  0.00  0.00    +0.000 C 
BRANCH  18  19
ATOM     19  N   UNL     1       1.820   8.269  21.464  0.00  0.00    +0.000 NA
ATOM     20  H   UNL     1       2.332   7.888  22.265  0.00  0.00    +0.000 HD
BRANCH  19  22
ATOM     21  O   UNL     1      -0.709   8.131  21.799  0.00  0.00    +0.000 OA
ATOM     22  S   UNL     1       0.394   9.054  21.968  0.00  0.00    +0.000 S 
ATOM     23  O   UNL     1       0.683   9.704  23.226  0.00  0.00    +0.000 OA
BRANCH  22  24
ATOM     24  C   UNL     1       0.228  10.308  20.716  0.00  0.00    +0.000 A 
ATOM     25  C   UNL     1       0.991  11.478  20.813  0.00  0.00    +0.000 A 
ATOM     26  C   UNL     1       0.855  12.465  19.836  0.00  0.00    +0.000 A 
ATOM     27  C   UNL     1      -0.031  12.276  18.773  0.00  0.00    +0.000 A 
ATOM     28  C   UNL     1      -0.794  11.109  18.689  0.00  0.00    +0.000 A 
ATOM     29  C   UNL     1      -0.671  10.122  19.665  0.00  0.00    +0.000 A 
ENDBRANCH  22  24
ENDBRANCH  19  22
ENDBRANCH  18  19
ENDBRANCH   1  18
TORSDOF 6
ENDMDL
MODEL 9
REMARK VINA RESULT:      -7.3      2.733      5.181
REMARK  Name = 
REMARK  6 active torsions:
REMARK  status: ('A' for Active; 'I' for Inactive)
REMARK    1  A    between atoms: S_2  and  N_4
REMARK    2  A    between atoms: S_2  and  C_23
REMARK    3  A    between atoms: N_4  and  C_5
REMARK    4  A    between atoms: C_5  and  C_6
REMARK    5  A    between atoms: C_6  and  C_7
REMARK    6  A    between atoms: C_6  and  N_13
REMARK                            x       y       z     vdW  Elec       q    Type
REMARK                         _______ _______ _______ _____ _____    ______ ____
ROOT
ATOM      1  C   UNL     1       3.417   4.789  17.472  0.00  0.00    +0.000 C 
ENDROOT
BRANCH   1   2
ATOM      2  N   UNL     1       3.439   6.120  18.139  0.00  0.00    +0.000 NA
ATOM      3  C   UNL     1       3.380   6.057  19.613  0.00  0.00    +0.000 C 
ATOM      4  C   UNL     1       2.066   6.544  20.257  0.00  0.00    +0.000 C 
ATOM      5  C   UNL     1       1.768   7.937  19.774  0.00  0.00    +0.000 A 
ATOM      6  C   UNL     1       1.182   8.911  20.586  0.00  0.00    +0.000 A 
ATOM      7  C   UNL     1       0.906  10.176  20.064  0.00  0.00    +0.000 A 
ATOM      8  C   UNL     1       1.207  10.469  18.733  0.00  0.00    +0.000 A 
ATOM      9  C   UNL     1       1.779   9.495  17.917  0.00  0.00    +0.000 A 
ATOM     10  C   UNL     1       2.064   8.226  18.434  0.00  0.00    +0.000 A 
ATOM     11  C   UNL     1       2.522   7.105  17.532  0.00  0.00    +0.000 C 
ENDBRANCH   1   2
BRANCH   1  12
ATOM     12  C   UNL     1       2.571   3.784  18.256  0.00  0.00    +0.000 A 
ATOM     13  C   UNL     1       1.182   3.659  18.094  0.00  0.00    +0.000 A 
ATOM     14  C   UNL     1       0.475   2.702  18.807  0.00  0.00    +0.000 A 
ATOM     15  C   UNL     1       1.179   1.880  19.669  0.00  0.00    +0.000 A 
ATOM     16  N   UNL     1       2.513   1.957  19.850  0.00  0.00    +0.000 NA
ATOM     17  C   UNL     1       3.181   2.897  19.134  0.00  0.00    +0.000 A 
ENDBRANCH   1  12
BRANCH   1  18
ATOM     18  C   UNL     1       4.838   4.259  17.147  0.00  0.00    +0.000 C 
BRANCH  18  19
ATOM     19  N   UNL     1       5.191   4.276  15.707  0.00  0.00    +0.000 NA
ATOM     20  H   UNL     1       5.609   3.413  15.347  0.00  0.00    +0.000 HD
BRANCH  19  22
ATOM     21  O   UNL     1       7.106   5.208  14.297  0.00  0.00    +0.000 OA
ATOM     22  S   UNL     1       6.123   5.634  15.272  0.00  0.00    +0.000 S 
ATOM     23  O   UNL     1       5.205   6.725  15.031  0.00  0.00    +0.000 OA
BRANCH  22  24
ATOM     24  C   UNL     1       6.992   5.959  16.790  0.00  0.00    +0.000 A 
ATOM     25  C   UNL     1       7.389   4.886  17.596  0.00  0.00    +0.000 A 
ATOM     26  C   UNL     1       8.062   5.141  18.790  0.00  0.00    +0.000 A 
ATOM     27  C   UNL     1       8.339   6.457  19.167  0.00  0.00    +0.000 A 
ATOM     28  C   UNL     1       7.933   7.522  18.361  0.00  0.00    +0.000 A 
ATOM     29  C   UNL     1       7.251   7.278  17.170  0.00  0.00    +0.000 A 
ENDBRANCH  22  24
ENDBRANCH  19  22
ENDBRANCH  18  19
ENDBRANCH   1  18
TORSDOF 6
ENDMDL
