MODEL 1
REMARK VINA RESULT:      -7.0      0.000      0.000
REMARK  Name = 
REMARK  8 active torsions:
REMARK  status: ('A' for Active; 'I' for Inactive)
REMARK    1  A    between atoms: C_1  and  O_2
REMARK    2  A    between atoms: O_2  and  C_3
REMARK    3  A    between atoms: C_7  and  C_8
REMARK    4  A    between atoms: N_10  and  C_11
REMARK    5  A    between atoms: C_11  and  C_12
REMARK    6  A    between atoms: C_12  and  C_13
REMARK    7  A    between atoms: C_13  and  N_14
REMARK    8  A    between atoms: N_17  and  C_18
REMARK                            x       y       z     vdW  Elec       q    Type
REMARK                         _______ _______ _______ _____ _____    ______ ____
ROOT
ATOM      1  C   UNL     1       1.784   6.092  19.190  0.00  0.00    +0.000 C 
ENDROOT
BRANCH   1   2
ATOM      2  N   UNL     1       2.493   7.364  19.413  0.00  0.00    +0.000 NA
ATOM      3  C   UNL     1       2.642   8.202  18.203  0.00  0.00    +0.000 C 
ATOM      4  C   UNL     1       1.366   8.953  17.766  0.00  0.00    +0.000 C 
ATOM      5  N   UNL     1       0.878   9.823  18.851  0.00  0.00    +0.000 N 
ATOM      6  C   UNL     1       0.668   9.093  20.118  0.00  0.00    +0.000 C 
ATOM      7  C   UNL     1       1.880   8.185  20.487  0.00  0.00    +0.000 C 
BRANCH   5   8
ATOM      8  C   UNL     1       1.087  11.205  18.819  0.00  0.00    +0.000 A 
ATOM      9  C   UNL     1       2.293  11.722  18.290  0.00  0.00    +0.000 A 
ATOM     10  C   UNL     1       2.540  13.091  18.147  0.00  0.00    +0.000 A 
ATOM     11  C   UNL     1       1.587  14.010  18.550  0.00  0.00    +0.000 A 
ATOM     12  C   UNL     1       0.384  13.555  19.093  0.00  0.00    +0.000 A 
ATOM     13 CL   UNL     1      -0.754  14.778  19.563  0.00  0.00    +0.000 Cl
ATOM     14  C   UNL     1       0.122  12.171  19.222  0.00  0.00    +0.000 A 
ATOM     15 CL   UNL     1      -1.461  11.680  19.772  0.00  0.00    +0.000 Cl
ENDBRANCH   5   8
ENDBRANCH   1   2
BRANCH   1  16
ATOM     16  C   UNL     1       1.885   5.153  20.406  0.00  0.00    +0.000 C 
BRANCH  16  17
ATOM     17  C   UNL     1       2.929   4.051  20.224  0.00  0.00    +0.000 C 
BRANCH  17  20
ATOM     18  C   UNL     1       4.186   3.625  18.136  0.00  0.00    +0.000 C 
ATOM     19  O   UNL     1       3.675   2.519  17.976  0.00  0.00    +0.000 OA
ATOM     20  N   UNL     1       3.916   4.430  19.221  0.00  0.00    +0.000 N 
ATOM     21  H   UNL     1       4.400   5.309  19.340  0.00  0.00    +0.000 HD
BRANCH  18  26
ATOM     22  C   UNL     1       6.863   5.712  16.405  0.00  0.00    +0.000 A 
ATOM     23  C   UNL     1       6.912   5.071  15.163  0.00  0.00    +0.000 A 
ATOM     24  C   UNL     1       6.088   3.978  14.895  0.00  0.00    +0.000 A 
ATOM     25  C   UNL     1       5.212   3.515  15.876  0.00  0.00    +0.000 A 
ATOM     26  C   UNL     1       5.164   4.138  17.131  0.00  0.00    +0.000 A 
ATOM     27  C   UNL     1       5.986   5.244  17.390  0.00  0.00    +0.000 A 
BRANCH  22  29
ATOM     28  C   UNL     1       7.516   7.633  17.647  0.00  0.00    +0.000 C 
ATOM     29  O   UNL     1       7.709   6.781  16.527  0.00  0.00    +0.000 OA
ENDBRANCH  22  29
ENDBRANCH  18  26
ENDBRANCH  17  20
ENDBRANCH  16  17
ENDBRANCH   1  16
TORSDOF 7
ENDMDL
MODEL 2
REMARK VINA RESULT:      -6.9      1.793      2.998
REMARK  Name = 
REMARK  8 active torsions:
REMARK  status: ('A' for Active; 'I' for Inactive)
REMARK    1  A    between atoms: C_1  and  O_2
REMARK    2  A    between atoms: O_2  and  C_3
REMARK    3  A    between atoms: C_7  and  C_8
REMARK    4  A    between atoms: N_10  and  C_11
REMARK    5  A    between atoms: C_11  and  C_12
REMARK    6  A    between atoms: C_12  and  C_13
REMARK    7  A    between atoms: C_13  and  N_14
REMARK    8  A    between atoms: N_17  and  C_18
REMARK                            x       y       z     vdW  Elec       q    Type
REMARK                         _______ _______ _______ _____ _____    ______ ____
ROOT
ATOM      1  C   UNL     1       1.999   2.928  19.893  0.00  0.00    +0.000 C 
ENDROOT
BRANCH   1   2
ATOM      2  N   UNL     1       1.143   4.016  19.390  0.00  0.00    +0.000 NA
ATOM      3  C   UNL     1       0.766   5.018  20.411  0.00  0.00    +0.000 C 
ATOM      4  C   UNL     1       1.877   6.022  20.786  0.00  0.00    +0.000 C 
ATOM      5  N   UNL     1       2.339   6.755  19.594  0.00  0.00    +0.000 N 
ATOM      6  C   UNL     1       2.767   5.857  18.501  0.00  0.00    +0.000 C 
ATOM      7  C   UNL     1       1.735   4.723  18.226  0.00  0.00    +0.000 C 
BRANCH   5   8
ATOM      8  C   UNL     1       1.937   8.073  19.354  0.00  0.00    +0.000 A 
ATOM      9  C   UNL     1       2.128   8.645  18.074  0.00  0.00    +0.000 A 
ATOM     10  C   UNL     1       1.680   9.924  17.734  0.00  0.00    +0.000 A 
ATOM     11  C   UNL     1       1.029  10.700  18.677  0.00  0.00    +0.000 A 
ATOM     12  C   UNL     1       0.826  10.192  19.961  0.00  0.00    +0.000 A 
ATOM     13 CL   UNL     1      -0.004  11.231  21.075  0.00  0.00    +0.000 Cl
ATOM     14  C   UNL     1       1.263   8.890  20.304  0.00  0.00    +0.000 A 
ATOM     15 CL   UNL     1       0.842   8.270  21.881  0.00  0.00    +0.000 Cl
ENDBRANCH   5   8
ENDBRANCH   1   2
BRANCH   1  16
ATOM     16  C   UNL     1       2.148   1.789  18.867  0.00  0.00    +0.000 C 
BRANCH  16  17
ATOM     17  C   UNL     1       3.603   1.379  18.638  0.00  0.00    +0.000 C 
BRANCH  17  20
ATOM     18  C   UNL     1       5.113   3.289  18.194  0.00  0.00    +0.000 C 
ATOM     19  O   UNL     1       5.310   3.496  19.389  0.00  0.00    +0.000 OA
ATOM     20  N   UNL     1       4.266   2.305  17.729  0.00  0.00    +0.000 N 
ATOM     21  H   UNL     1       4.093   2.205  16.739  0.00  0.00    +0.000 HD
BRANCH  18  26
ATOM     22  C   UNL     1       6.982   6.150  16.510  0.00  0.00    +0.000 A 
ATOM     23  C   UNL     1       6.988   5.697  15.187  0.00  0.00    +0.000 A 
ATOM     24  C   UNL     1       6.394   4.482  14.851  0.00  0.00    +0.000 A 
ATOM     25  C   UNL     1       5.794   3.706  15.843  0.00  0.00    +0.000 A 
ATOM     26  C   UNL     1       5.796   4.141  17.175  0.00  0.00    +0.000 A 
ATOM     27  C   UNL     1       6.384   5.370  17.505  0.00  0.00    +0.000 A 
BRANCH  22  29
ATOM     28  C   UNL     1       7.967   7.700  18.023  0.00  0.00    +0.000 C 
ATOM     29  O   UNL     1       7.581   7.367  16.697  0.00  0.00    +0.000 OA
ENDBRANCH  22  29
ENDBRANCH  18  26
ENDBRANCH  17  20
ENDBRANCH  16  17
ENDBRANCH   1  16
TORSDOF 7
ENDMDL
MODEL 3
REMARK VINA RESULT:      -6.8      2.393      4.009
REMARK  Name = 
REMARK  8 active torsions:
REMARK  status: ('A' for Active; 'I' for Inactive)
REMARK    1  A    between atoms: C_1  and  O_2
REMARK    2  A    between atoms: O_2  and  C_3
REMARK    3  A    between atoms: C_7  and  C_8
REMARK    4  A    between atoms: N_10  and  C_11
REMARK    5  A    between atoms: C_11  and  C_12
REMARK    6  A    between atoms: C_12  and  C_13
REMARK    7  A    between atoms: C_13  and  N_14
REMARK    8  A    between atoms: N_17  and  C_18
REMARK                            x       y       z     vdW  Elec       q    Type
REMARK                         _______ _______ _______ _____ _____    ______ ____
ROOT
ATOM      1  C   UNL     1       3.079   3.743  19.587  0.00  0.00    +0.000 C 
ENDROOT
BRANCH   1   2
ATOM      2  N   UNL     1       1.920   4.547  19.162  0.00  0.00    +0.000 NA
ATOM      3  C   UNL     1       1.249   5.278  20.260  0.00  0.00    +0.000 C 
ATOM      4  C   UNL     1       1.986   6.541  20.752  0.00  0.00    +0.000 C 
ATOM      5  N   UNL     1       2.186   7.491  19.643  0.00  0.00    +0.000 N 
ATOM      6  C   UNL     1       2.873   6.882  18.485  0.00  0.00    +0.000 C 
ATOM      7  C   UNL     1       2.252   5.511  18.083  0.00  0.00    +0.000 C 
BRANCH   5   8
ATOM      8  C   UNL     1       1.386   8.631  19.513  0.00  0.00    +0.000 A 
ATOM      9  C   UNL     1       0.918   9.020  18.236  0.00  0.00    +0.000 A 
ATOM     10  C   UNL     1       0.048  10.095  18.035  0.00  0.00    +0.000 A 
ATOM     11  C   UNL     1      -0.380  10.847  19.116  0.00  0.00    +0.000 A 
ATOM     12  C   UNL     1       0.063  10.517  20.398  0.00  0.00    +0.000 A 
ATOM     13 CL   UNL     1      -0.530  11.509  21.692  0.00  0.00    +0.000 Cl
ATOM     14  C   UNL     1       0.928   9.417  20.608  0.00  0.00    +0.000 A 
ATOM     15 CL   UNL     1       1.319   8.978  22.251  0.00  0.00    +0.000 Cl
ENDBRANCH   5   8
ENDBRANCH   1   2
BRANCH   1  16
ATOM     16  C   UNL     1       3.844   3.153  18.387  0.00  0.00    +0.000 C 
BRANCH  16  17
ATOM     17  C   UNL     1       5.175   3.859  18.124  0.00  0.00    +0.000 C 
BRANCH  17  20
ATOM     18  C   UNL     1       5.627   4.762  15.865  0.00  0.00    +0.000 C 
ATOM     19  O   UNL     1       5.263   5.894  16.172  0.00  0.00    +0.000 OA
ATOM     20  N   UNL     1       5.585   3.694  16.735  0.00  0.00    +0.000 N 
ATOM     21  H   UNL     1       5.844   2.769  16.423  0.00  0.00    +0.000 HD
BRANCH  18  26
ATOM     22  C   UNL     1       6.091   3.269  12.390  0.00  0.00    +0.000 A 
ATOM     23  C   UNL     1       7.176   4.027  11.939  0.00  0.00    +0.000 A 
ATOM     24  C   UNL     1       7.744   5.007  12.750  0.00  0.00    +0.000 A 
ATOM     25  C   UNL     1       7.224   5.239  14.023  0.00  0.00    +0.000 A 
ATOM     26  C   UNL     1       6.127   4.497  14.483  0.00  0.00    +0.000 A 
ATOM     27  C   UNL     1       5.568   3.505  13.666  0.00  0.00    +0.000 A 
BRANCH  22  29
ATOM     28  C   UNL     1       6.597   1.389  11.023  0.00  0.00    +0.000 C 
ATOM     29  O   UNL     1       5.645   2.329  11.501  0.00  0.00    +0.000 OA
ENDBRANCH  22  29
ENDBRANCH  18  26
ENDBRANCH  17  20
ENDBRANCH  16  17
ENDBRANCH   1  16
TORSDOF 7
ENDMDL
MODEL 4
REMARK VINA RESULT:      -6.7      6.327      8.158
REMARK  Name = 
REMARK  8 active torsions:
REMARK  status: ('A' for Active; 'I' for Inactive)
REMARK    1  A    between atoms: C_1  and  O_2
REMARK    2  A    between atoms: O_2  and  C_3
REMARK    3  A    between atoms: C_7  and  C_8
REMARK    4  A    between atoms: N_10  and  C_11
REMARK    5  A    between atoms: C_11  and  C_12
REMARK    6  A    between atoms: C_12  and  C_13
REMARK    7  A    between atoms: C_13  and  N_14
REMARK    8  A    between atoms: N_17  and  C_18
REMARK                            x       y       z     vdW  Elec       q    Type
REMARK                         _______ _______ _______ _____ _____    ______ ____
ROOT
ATOM      1  C   UNL     1       8.838   9.935  18.653  0.00  0.00    +0.000 C 
ENDROOT
BRANCH   1   2
ATOM      2  N   UNL     1       9.405  10.987  17.794  0.00  0.00    +0.000 NA
ATOM      3  C   UNL     1       8.635  12.251  17.788  0.00  0.00    +0.000 C 
ATOM      4  C   UNL     1       8.814  13.133  19.041  0.00  0.00    +0.000 C 
ATOM      5  N   UNL     1      10.235  13.479  19.235  0.00  0.00    +0.000 N 
ATOM      6  C   UNL     1      11.111  12.290  19.281  0.00  0.00    +0.000 C 
ATOM      7  C   UNL     1      10.821  11.295  18.117  0.00  0.00    +0.000 C 
BRANCH   5   8
ATOM      8  C   UNL     1      10.723  14.746  18.901  0.00  0.00    +0.000 A 
ATOM      9  C   UNL     1      10.983  15.065  17.547  0.00  0.00    +0.000 A 
ATOM     10  C   UNL     1      11.392  16.333  17.126  0.00  0.00    +0.000 A 
ATOM     11  C   UNL     1      11.577  17.343  18.055  0.00  0.00    +0.000 A 
ATOM     12  C   UNL     1      11.348  17.080  19.407  0.00  0.00    +0.000 A 
ATOM     13 CL   UNL     1      11.598  18.405  20.498  0.00  0.00    +0.000 Cl
ATOM     14  C   UNL     1      10.916  15.802  19.836  0.00  0.00    +0.000 A 
ATOM     15 CL   UNL     1      10.510  15.593  21.520  0.00  0.00    +0.000 Cl
ENDBRANCH   5   8
ENDBRANCH   1   2
BRANCH   1  16
ATOM     16  C   UNL     1       8.041   8.895  17.843  0.00  0.00    +0.000 C 
BRANCH  16  17
ATOM     17  C   UNL     1       8.165   7.478  18.404  0.00  0.00    +0.000 C 
BRANCH  17  20
ATOM     18  C   UNL     1       6.964   5.318  18.287  0.00  0.00    +0.000 C 
ATOM     19  O   UNL     1       7.920   4.686  18.731  0.00  0.00    +0.000 OA
ATOM     20  N   UNL     1       7.000   6.676  18.056  0.00  0.00    +0.000 N 
ATOM     21  H   UNL     1       6.208   7.145  17.639  0.00  0.00    +0.000 HD
BRANCH  18  26
ATOM     22  C   UNL     1       3.797   3.218  18.563  0.00  0.00    +0.000 A 
ATOM     23  C   UNL     1       3.374   3.232  17.230  0.00  0.00    +0.000 A 
ATOM     24  C   UNL     1       4.106   3.915  16.260  0.00  0.00    +0.000 A 
ATOM     25  C   UNL     1       5.269   4.595  16.622  0.00  0.00    +0.000 A 
ATOM     26  C   UNL     1       5.696   4.601  17.957  0.00  0.00    +0.000 A 
ATOM     27  C   UNL     1       4.961   3.903  18.925  0.00  0.00    +0.000 A 
BRANCH  22  29
ATOM     28  C   UNL     1       3.119   2.757  20.796  0.00  0.00    +0.000 C 
ATOM     29  O   UNL     1       2.997   2.494  19.405  0.00  0.00    +0.000 OA
ENDBRANCH  22  29
ENDBRANCH  18  26
ENDBRANCH  17  20
ENDBRANCH  16  17
ENDBRANCH   1  16
TORSDOF 7
ENDMDL
MODEL 5
REMARK VINA RESULT:      -6.6      3.481      5.786
REMARK  Name = 
REMARK  8 active torsions:
REMARK  status: ('A' for Active; 'I' for Inactive)
REMARK    1  A    between atoms: C_1  and  O_2
REMARK    2  A    between atoms: O_2  and  C_3
REMARK    3  A    between atoms: C_7  and  C_8
REMARK    4  A    between atoms: N_10  and  C_11
REMARK    5  A    between atoms: C_11  and  C_12
REMARK    6  A    between atoms: C_12  and  C_13
REMARK    7  A    between atoms: C_13  and  N_14
REMARK    8  A    between atoms: N_17  and  C_18
REMARK                            x       y       z     vdW  Elec       q    Type
REMARK                         _______ _______ _______ _____ _____    ______ ____
ROOT
ATOM      1  C   UNL     1       0.318  10.851  18.491  0.00  0.00    +0.000 C 
ENDROOT
BRANCH   1   2
ATOM      2  N   UNL     1      -0.760  10.669  19.478  0.00  0.00    +0.000 NA
ATOM      3  C   UNL     1      -0.310  10.704  20.887  0.00  0.00    +0.000 C 
ATOM      4  C   UNL     1       0.002  12.110  21.440  0.00  0.00    +0.000 C 
ATOM      5  N   UNL     1      -1.178  12.986  21.329  0.00  0.00    +0.000 N 
ATOM      6  C   UNL     1      -1.713  13.053  19.954  0.00  0.00    +0.000 C 
ATOM      7  C   UNL     1      -1.868  11.643  19.309  0.00  0.00    +0.000 C 
BRANCH   5   8
ATOM      8  C   UNL     1      -1.967  13.282  22.445  0.00  0.00    +0.000 A 
ATOM      9  C   UNL     1      -3.040  12.428  22.794  0.00  0.00    +0.000 A 
ATOM     10  C   UNL     1      -3.820  12.609  23.939  0.00  0.00    +0.000 A 
ATOM     11  C   UNL     1      -3.568  13.677  24.784  0.00  0.00    +0.000 A 
ATOM     12  C   UNL     1      -2.530  14.560  24.480  0.00  0.00    +0.000 A 
ATOM     13 CL   UNL     1      -2.282  15.863  25.598  0.00  0.00    +0.000 Cl
ATOM     14  C   UNL     1      -1.726  14.369  23.332  0.00  0.00    +0.000 A 
ATOM     15 CL   UNL     1      -0.358  15.428  23.100  0.00  0.00    +0.000 Cl
ENDBRANCH   5   8
ENDBRANCH   1   2
BRANCH   1  16
ATOM     16  C   UNL     1       0.705   9.526  17.807  0.00  0.00    +0.000 C 
BRANCH  16  17
ATOM     17  C   UNL     1       2.175   9.157  18.009  0.00  0.00    +0.000 C 
BRANCH  17  20
ATOM     18  C   UNL     1       2.119   7.211  19.536  0.00  0.00    +0.000 C 
ATOM     19  O   UNL     1       1.874   7.905  20.520  0.00  0.00    +0.000 OA
ATOM     20  N   UNL     1       2.321   7.733  18.276  0.00  0.00    +0.000 N 
ATOM     21  H   UNL     1       2.573   7.129  17.506  0.00  0.00    +0.000 HD
BRANCH  18  26
ATOM     22  C   UNL     1       2.745   3.520  18.825  0.00  0.00    +0.000 A 
ATOM     23  C   UNL     1       2.325   2.961  20.036  0.00  0.00    +0.000 A 
ATOM     24  C   UNL     1       1.848   3.771  21.065  0.00  0.00    +0.000 A 
ATOM     25  C   UNL     1       1.794   5.153  20.889  0.00  0.00    +0.000 A 
ATOM     26  C   UNL     1       2.226   5.729  19.687  0.00  0.00    +0.000 A 
ATOM     27  C   UNL     1       2.694   4.907  18.651  0.00  0.00    +0.000 A 
BRANCH  22  29
ATOM     28  C   UNL     1       3.656   1.367  18.384  0.00  0.00    +0.000 C 
ATOM     29  O   UNL     1       3.171   2.610  17.896  0.00  0.00    +0.000 OA
ENDBRANCH  22  29
ENDBRANCH  18  26
ENDBRANCH  17  20
ENDBRANCH  16  17
ENDBRANCH   1  16
TORSDOF 7
ENDMDL
MODEL 6
REMARK VINA RESULT:      -6.6      3.590      5.216
REMARK  Name = 
REMARK  8 active torsions:
REMARK  status: ('A' for Active; 'I' for Inactive)
REMARK    1  A    between atoms: C_1  and  O_2
REMARK    2  A    between atoms: O_2  and  C_3
REMARK    3  A    between atoms: C_7  and  C_8
REMARK    4  A    between atoms: N_10  and  C_11
REMARK    5  A    between atoms: C_11  and  C_12
REMARK    6  A    between atoms: C_12  and  C_13
REMARK    7  A    between atoms: C_13  and  N_14
REMARK    8  A    between atoms: N_17  and  C_18
REMARK                            x       y       z     vdW  Elec       q    Type
REMARK                         _______ _______ _______ _____ _____    ______ ____
ROOT
ATOM      1  C   UNL     1      -0.159  11.024  18.390  0.00  0.00    +0.000 C 
ENDROOT
BRANCH   1   2
ATOM      2  N   UNL     1      -1.182  10.898  19.443  0.00  0.00    +0.000 NA
ATOM      3  C   UNL     1      -0.640  10.860  20.819  0.00  0.00    +0.000 C 
ATOM      4  C   UNL     1      -0.184  12.223  21.381  0.00  0.00    +0.000 C 
ATOM      5  N   UNL     1      -1.297  13.190  21.368  0.00  0.00    +0.000 N 
ATOM      6  C   UNL     1      -1.913  13.334  20.033  0.00  0.00    +0.000 C 
ATOM      7  C   UNL     1      -2.219  11.958  19.369  0.00  0.00    +0.000 C 
BRANCH   5   8
ATOM      8  C   UNL     1      -1.986  13.514  22.540  0.00  0.00    +0.000 A 
ATOM      9  C   UNL     1      -3.090  12.728  22.948  0.00  0.00    +0.000 A 
ATOM     10  C   UNL     1      -3.777  12.938  24.147  0.00  0.00    +0.000 A 
ATOM     11  C   UNL     1      -3.394  13.967  24.990  0.00  0.00    +0.000 A 
ATOM     12  C   UNL     1      -2.321  14.784  24.631  0.00  0.00    +0.000 A 
ATOM     13 CL   UNL     1      -1.908  16.043  25.751  0.00  0.00    +0.000 Cl
ATOM     14  C   UNL     1      -1.611  14.563  23.426  0.00  0.00    +0.000 A 
ATOM     15 CL   UNL     1      -0.191  15.531  23.119  0.00  0.00    +0.000 Cl
ENDBRANCH   5   8
ENDBRANCH   1   2
BRANCH   1  16
ATOM     16  C   UNL     1       0.422   9.657  17.982  0.00  0.00    +0.000 C 
BRANCH  16  17
ATOM     17  C   UNL     1       1.949   9.619  18.029  0.00  0.00    +0.000 C 
BRANCH  17  20
ATOM     18  C   UNL     1       2.568   7.288  18.580  0.00  0.00    +0.000 C 
ATOM     19  O   UNL     1       2.333   7.438  19.777  0.00  0.00    +0.000 OA
ATOM     20  N   UNL     1       2.449   8.302  17.655  0.00  0.00    +0.000 N 
ATOM     21  H   UNL     1       2.704   8.148  16.690  0.00  0.00    +0.000 HD
BRANCH  18  26
ATOM     22  C   UNL     1       4.721   4.474  17.178  0.00  0.00    +0.000 A 
ATOM     23  C   UNL     1       3.768   3.455  17.089  0.00  0.00    +0.000 A 
ATOM     24  C   UNL     1       2.450   3.679  17.480  0.00  0.00    +0.000 A 
ATOM     25  C   UNL     1       2.076   4.931  17.970  0.00  0.00    +0.000 A 
ATOM     26  C   UNL     1       3.025   5.957  18.079  0.00  0.00    +0.000 A 
ATOM     27  C   UNL     1       4.347   5.728  17.673  0.00  0.00    +0.000 A 
BRANCH  22  29
ATOM     28  C   UNL     1       7.072   4.812  17.320  0.00  0.00    +0.000 C 
ATOM     29  O   UNL     1       5.971   4.124  16.743  0.00  0.00    +0.000 OA
ENDBRANCH  22  29
ENDBRANCH  18  26
ENDBRANCH  17  20
ENDBRANCH  16  17
ENDBRANCH   1  16
TORSDOF 7
ENDMDL
MODEL 7
REMARK VINA RESULT:      -6.6      5.341      9.155
REMARK  Name = 
REMARK  8 active torsions:
REMARK  status: ('A' for Active; 'I' for Inactive)
REMARK    1  A    between atoms: C_1  and  O_2
REMARK    2  A    between atoms: O_2  and  C_3
REMARK    3  A    between atoms: C_7  and  C_8
REMARK    4  A    between atoms: N_10  and  C_11
REMARK    5  A    between atoms: C_11  and  C_12
REMARK    6  A    between atoms: C_12  and  C_13
REMARK    7  A    between atoms: C_13  and  N_14
REMARK    8  A    between atoms: N_17  and  C_18
REMARK                            x       y       z     vdW  Elec       q    Type
REMARK                         _______ _______ _______ _____ _____    ______ ____
ROOT
ATOM      1  C   UNL     1       7.219   7.954  17.390  0.00  0.00    +0.000 C 
ENDROOT
BRANCH   1   2
ATOM      2  N   UNL     1       6.983   6.507  17.251  0.00  0.00    +0.000 NA
ATOM      3  C   UNL     1       6.836   5.786  18.535  0.00  0.00    +0.000 C 
ATOM      4  C   UNL     1       5.476   5.973  19.240  0.00  0.00    +0.000 C 
ATOM      5  N   UNL     1       4.372   5.545  18.361  0.00  0.00    +0.000 N 
ATOM      6  C   UNL     1       4.396   6.216  17.045  0.00  0.00    +0.000 C 
ATOM      7  C   UNL     1       5.811   6.194  16.394  0.00  0.00    +0.000 C 
BRANCH   5   8
ATOM      8  C   UNL     1       3.727   4.320  18.556  0.00  0.00    +0.000 A 
ATOM      9  C   UNL     1       4.093   3.200  17.773  0.00  0.00    +0.000 A 
ATOM     10  C   UNL     1       3.554   1.925  17.965  0.00  0.00    +0.000 A 
ATOM     11  C   UNL     1       2.601   1.719  18.948  0.00  0.00    +0.000 A 
ATOM     12  C   UNL     1       2.192   2.792  19.740  0.00  0.00    +0.000 A 
ATOM     13 CL   UNL     1       1.000   2.440  20.951  0.00  0.00    +0.000 Cl
ATOM     14  C   UNL     1       2.749   4.081  19.562  0.00  0.00    +0.000 A 
ATOM     15 CL   UNL     1       2.295   5.336  20.687  0.00  0.00    +0.000 Cl
ENDBRANCH   5   8
ENDBRANCH   1   2
BRANCH   1  16
ATOM     16  C   UNL     1       8.338   8.262  18.402  0.00  0.00    +0.000 C 
BRANCH  16  17
ATOM     17  C   UNL     1       9.054   9.583  18.118  0.00  0.00    +0.000 C 
BRANCH  17  20
ATOM     18  C   UNL     1       9.941  11.387  19.561  0.00  0.00    +0.000 C 
ATOM     19  O   UNL     1      11.010  11.434  18.958  0.00  0.00    +0.000 OA
ATOM     20  N   UNL     1       8.939  10.491  19.251  0.00  0.00    +0.000 N 
ATOM     21  H   UNL     1       8.098  10.451  19.808  0.00  0.00    +0.000 HD
BRANCH  18  26
ATOM     22  C   UNL     1       8.563  12.937  22.757  0.00  0.00    +0.000 A 
ATOM     23  C   UNL     1       9.245  14.158  22.753  0.00  0.00    +0.000 A 
ATOM     24  C   UNL     1      10.137  14.470  21.729  0.00  0.00    +0.000 A 
ATOM     25  C   UNL     1      10.358  13.554  20.701  0.00  0.00    +0.000 A 
ATOM     26  C   UNL     1       9.694  12.320  20.701  0.00  0.00    +0.000 A 
ATOM     27  C   UNL     1       8.788  12.017  21.728  0.00  0.00    +0.000 A 
BRANCH  22  29
ATOM     28  C   UNL     1       8.247  12.233  25.008  0.00  0.00    +0.000 C 
ATOM     29  O   UNL     1       7.704  12.769  23.809  0.00  0.00    +0.000 OA
ENDBRANCH  22  29
ENDBRANCH  18  26
ENDBRANCH  17  20
ENDBRANCH  16  17
ENDBRANCH   1  16
TORSDOF 7
ENDMDL
MODEL 8
REMARK VINA RESULT:      -6.6      5.466      9.198
REMARK  Name = 
REMARK  8 active torsions:
REMARK  status: ('A' for Active; 'I' for Inactive)
REMARK    1  A    between atoms: C_1  and  O_2
REMARK    2  A    between atoms: O_2  and  C_3
REMARK    3  A    between atoms: C_7  and  C_8
REMARK    4  A    between atoms: N_10  and  C_11
REMARK    5  A    between atoms: C_11  and  C_12
REMARK    6  A    between atoms: C_12  and  C_13
REMARK    7  A    between atoms: C_13  and  N_14
REMARK    8  A    between atoms: N_17  and  C_18
REMARK                            x       y       z     vdW  Elec       q    Type
REMARK                         _______ _______ _______ _____ _____    ______ ____
ROOT
ATOM      1  C   UNL     1       8.202   7.634  18.428  0.00  0.00    +0.000 C 
ENDROOT
BRANCH   1   2
ATOM      2  N   UNL     1       7.545   6.588  17.625  0.00  0.00    +0.000 NA
ATOM      3  C   UNL     1       7.369   5.298  18.329  0.00  0.00    +0.000 C 
ATOM      4  C   UNL     1       6.225   5.267  19.365  0.00  0.00    +0.000 C 
ATOM      5  N   UNL     1       4.939   5.605  18.728  0.00  0.00    +0.000 N 
ATOM      6  C   UNL     1       4.979   6.893  18.005  0.00  0.00    +0.000 C 
ATOM      7  C   UNL     1       6.230   7.017  17.084  0.00  0.00    +0.000 C 
BRANCH   5   8
ATOM      8  C   UNL     1       4.002   4.614  18.422  0.00  0.00    +0.000 A 
ATOM      9  C   UNL     1       4.210   3.769  17.306  0.00  0.00    +0.000 A 
ATOM     10  C   UNL     1       3.363   2.704  16.985  0.00  0.00    +0.000 A 
ATOM     11  C   UNL     1       2.249   2.449  17.766  0.00  0.00    +0.000 A 
ATOM     12  C   UNL     1       1.987   3.260  18.871  0.00  0.00    +0.000 A 
ATOM     13 CL   UNL     1       0.573   2.862  19.795  0.00  0.00    +0.000 Cl
ATOM     14  C   UNL     1       2.851   4.328  19.210  0.00  0.00    +0.000 A 
ATOM     15 CL   UNL     1       2.538   5.203  20.688  0.00  0.00    +0.000 Cl
ENDBRANCH   5   8
ENDBRANCH   1   2
BRANCH   1  16
ATOM     16  C   UNL     1       7.951   9.043  17.858  0.00  0.00    +0.000 C 
BRANCH  16  17
ATOM     17  C   UNL     1       9.090  10.018  18.154  0.00  0.00    +0.000 C 
BRANCH  17  20
ATOM     18  C   UNL     1       9.335  11.915  19.724  0.00  0.00    +0.000 C 
ATOM     19  O   UNL     1       9.917  12.612  18.896  0.00  0.00    +0.000 OA
ATOM     20  N   UNL     1       8.927  10.623  19.470  0.00  0.00    +0.000 N 
ATOM     21  H   UNL     1       8.501  10.068  20.198  0.00  0.00    +0.000 HD
BRANCH  18  26
ATOM     22  C   UNL     1       9.119  14.247  22.729  0.00  0.00    +0.000 A 
ATOM     23  C   UNL     1       8.575  13.377  23.679  0.00  0.00    +0.000 A 
ATOM     24  C   UNL     1       8.284  12.055  23.346  0.00  0.00    +0.000 A 
ATOM     25  C   UNL     1       8.530  11.597  22.052  0.00  0.00    +0.000 A 
ATOM     26  C   UNL     1       9.060  12.463  21.086  0.00  0.00    +0.000 A 
ATOM     27  C   UNL     1       9.362  13.788  21.431  0.00  0.00    +0.000 A 
BRANCH  22  29
ATOM     28  C   UNL     1       9.138  16.588  22.301  0.00  0.00    +0.000 C 
ATOM     29  O   UNL     1       9.375  15.509  23.195  0.00  0.00    +0.000 OA
ENDBRANCH  22  29
ENDBRANCH  18  26
ENDBRANCH  17  20
ENDBRANCH  16  17
ENDBRANCH   1  16
TORSDOF 7
ENDMDL
MODEL 9
REMARK VINA RESULT:      -6.5      2.584      4.660
REMARK  Name = 
REMARK  8 active torsions:
REMARK  status: ('A' for Active; 'I' for Inactive)
REMARK    1  A    between atoms: C_1  and  O_2
REMARK    2  A    between atoms: O_2  and  C_3
REMARK    3  A    between atoms: C_7  and  C_8
REMARK    4  A    between atoms: N_10  and  C_11
REMARK    5  A    between atoms: C_11  and  C_12
REMARK    6  A    between atoms: C_12  and  C_13
REMARK    7  A    between atoms: C_13  and  N_14
REMARK    8  A    between atoms: N_17  and  C_18
REMARK                            x       y       z     vdW  Elec       q    Type
REMARK                         _______ _______ _______ _____ _____    ______ ____
ROOT
ATOM      1  C   UNL     1      -0.236  10.023  20.148  0.00  0.00    +0.000 C 
ENDROOT
BRANCH   1   2
ATOM      2  N   UNL     1       0.773  11.087  20.289  0.00  0.00    +0.000 NA
ATOM      3  C   UNL     1       1.190  11.705  19.012  0.00  0.00    +0.000 C 
ATOM      4  C   UNL     1       0.179  12.700  18.404  0.00  0.00    +0.000 C 
ATOM      5  N   UNL     1      -0.110  13.791  19.353  0.00  0.00    +0.000 N 
ATOM      6  C   UNL     1      -0.561  13.299  20.671  0.00  0.00    +0.000 C 
ATOM      7  C   UNL     1       0.350  12.162  21.222  0.00  0.00    +0.000 C 
BRANCH   5   8
ATOM      8  C   UNL     1       0.457  15.059  19.191  0.00  0.00    +0.000 A 
ATOM      9  C   UNL     1      -0.316  16.110  18.643  0.00  0.00    +0.000 A 
ATOM     10  C   UNL     1       0.152  17.422  18.527  0.00  0.00    +0.000 A 
ATOM     11  C   UNL     1       1.434  17.737  18.943  0.00  0.00    +0.000 A 
ATOM     12  C   UNL     1       2.246  16.736  19.479  0.00  0.00    +0.000 A 
ATOM     13 CL   UNL     1       3.833  17.223  19.980  0.00  0.00    +0.000 Cl
ATOM     14  C   UNL     1       1.770  15.410  19.615  0.00  0.00    +0.000 A 
ATOM     15 CL   UNL     1       2.788  14.249  20.428  0.00  0.00    +0.000 Cl
ENDBRANCH   5   8
ENDBRANCH   1   2
BRANCH   1  16
ATOM     16  C   UNL     1       0.085   8.802  21.031  0.00  0.00    +0.000 C 
BRANCH  16  17
ATOM     17  C   UNL     1       1.583   8.518  21.136  0.00  0.00    +0.000 C 
BRANCH  17  20
ATOM     18  C   UNL     1       2.380   7.459  19.046  0.00  0.00    +0.000 C 
ATOM     19  O   UNL     1       2.424   8.528  18.443  0.00  0.00    +0.000 OA
ATOM     20  N   UNL     1       1.946   7.346  20.350  0.00  0.00    +0.000 N 
ATOM     21  H   UNL     1       1.876   6.439  20.789  0.00  0.00    +0.000 HD
BRANCH  18  26
ATOM     22  C   UNL     1       2.447   3.880  17.742  0.00  0.00    +0.000 A 
ATOM     23  C   UNL     1       3.682   3.879  17.085  0.00  0.00    +0.000 A 
ATOM     24  C   UNL     1       4.477   5.024  17.068  0.00  0.00    +0.000 A 
ATOM     25  C   UNL     1       4.036   6.183  17.705  0.00  0.00    +0.000 A 
ATOM     26  C   UNL     1       2.793   6.203  18.352  0.00  0.00    +0.000 A 
ATOM     27  C   UNL     1       2.003   5.044  18.377  0.00  0.00    +0.000 A 
BRANCH  22  29
ATOM     28  C   UNL     1       0.900   2.399  18.777  0.00  0.00    +0.000 C 
ATOM     29  O   UNL     1       1.779   2.686  17.699  0.00  0.00    +0.000 OA
ENDBRANCH  22  29
ENDBRANCH  18  26
ENDBRANCH  17  20
ENDBRANCH  16  17
ENDBRANCH   1  16
TORSDOF 7
ENDMDL
