MODEL 1
REMARK VINA RESULT:      -8.5      0.000      0.000
REMARK  Name = 
REMARK  6 active torsions:
REMARK  status: ('A' for Active; 'I' for Inactive)
REMARK    1  A    between atoms: C_1  and  N_2
REMARK    2  A    between atoms: C_3  and  C_4
REMARK    3  A    between atoms: C_4  and  C_5
REMARK    4  A    between atoms: C_16  and  S_17
REMARK    5  A    between atoms: S_17  and  C_18
REMARK    6  A    between atoms: C_18  and  C_19
REMARK                            x       y       z     vdW  Elec       q    Type
REMARK                         _______ _______ _______ _____ _____    ______ ____
ROOT
ATOM      1  C   UNL     1       1.838   4.300  21.069  0.00  0.00    +0.000 C 
ATOM      2  N   UNL     1       2.310   5.297  20.159  0.00  0.00    +0.000 N 
ATOM      3  C   UNL     1       3.172   5.136  19.079  0.00  0.00    +0.000 A 
ATOM      4  N   UNL     1       3.356   6.315  18.532  0.00  0.00    +0.000 NA
ATOM      5  N   UNL     1       2.591   7.254  19.209  0.00  0.00    +0.000 NA
ATOM      6  C   UNL     1       1.937   6.634  20.153  0.00  0.00    +0.000 A 
ENDROOT
BRANCH   3   7
ATOM      7  C   UNL     1       3.853   3.854  18.613  0.00  0.00    +0.000 C 
BRANCH   7   8
ATOM      8  C   UNL     1       5.007   4.056  17.644  0.00  0.00    +0.000 A 
ATOM      9  C   UNL     1       6.229   4.618  18.100  0.00  0.00    +0.000 A 
ATOM     10  C   UNL     1       7.192   5.079  17.193  0.00  0.00    +0.000 A 
ATOM     11  C   UNL     1       6.962   4.875  15.850  0.00  0.00    +0.000 A 
ATOM     12  C   UNL     1       5.829   4.242  15.399  0.00  0.00    +0.000 A 
ATOM     13  C   UNL     1       4.834   3.825  16.264  0.00  0.00    +0.000 A 
ATOM     14  O   UNL     1       5.785   4.170  14.041  0.00  0.00    +0.000 OA
ATOM     15  C   UNL     1       7.022   4.829  13.691  0.00  0.00    +0.000 C 
ATOM     16  O   UNL     1       7.761   5.302  14.836  0.00  0.00    +0.000 OA
ENDBRANCH   7   8
ENDBRANCH   3   7
BRANCH   6  17
ATOM     17  S   UNL     1       0.859   7.372  21.308  0.00  0.00    +0.000 S 
BRANCH  17  18
ATOM     18  C   UNL     1       0.818   9.163  20.934  0.00  0.00    +0.000 C 
BRANCH  18  19
ATOM     19  C   UNL     1       0.365  10.051  22.084  0.00  0.00    +0.000 C 
ATOM     20  O   UNL     1       0.781   9.891  23.212  0.00  0.00    +0.000 OA
ATOM     21  N   UNL     1      -0.494  11.100  21.735  0.00  0.00    +0.000 N 
ATOM     22  C   UNL     1      -1.035  11.329  20.381  0.00  0.00    +0.000 C 
ATOM     23  C   UNL     1      -1.785  12.661  20.221  0.00  0.00    +0.000 C 
ATOM     24  C   UNL     1      -2.833  12.766  21.295  0.00  0.00    +0.000 A 
ATOM     25  C   UNL     1      -4.108  13.287  21.057  0.00  0.00    +0.000 A 
ATOM     26  C   UNL     1      -5.046  13.328  22.089  0.00  0.00    +0.000 A 
ATOM     27  C   UNL     1      -4.712  12.863  23.361  0.00  0.00    +0.000 A 
ATOM     28  C   UNL     1      -3.432  12.371  23.611  0.00  0.00    +0.000 A 
ATOM     29  C   UNL     1      -2.485  12.319  22.583  0.00  0.00    +0.000 A 
ATOM     30  C   UNL     1      -1.068  11.867  22.840  0.00  0.00    +0.000 C 
ENDBRANCH  18  19
ENDBRANCH  17  18
ENDBRANCH   6  17
TORSDOF 5
ENDMDL
MODEL 2
REMARK VINA RESULT:      -8.4      3.810      4.946
REMARK  Name = 
REMARK  6 active torsions:
REMARK  status: ('A' for Active; 'I' for Inactive)
REMARK    1  A    between atoms: C_1  and  N_2
REMARK    2  A    between atoms: C_3  and  C_4
REMARK    3  A    between atoms: C_4  and  C_5
REMARK    4  A    between atoms: C_16  and  S_17
REMARK    5  A    between atoms: S_17  and  C_18
REMARK    6  A    between atoms: C_18  and  C_19
REMARK                            x       y       z     vdW  Elec       q    Type
REMARK                         _______ _______ _______ _____ _____    ______ ____
ROOT
ATOM      1  C   UNL     1       1.270   8.569  21.346  0.00  0.00    +0.000 C 
ATOM      2  N   UNL     1       1.416   8.680  19.927  0.00  0.00    +0.000 N 
ATOM      3  C   UNL     1       2.103   7.830  19.065  0.00  0.00    +0.000 A 
ATOM      4  N   UNL     1       2.000   8.320  17.852  0.00  0.00    +0.000 NA
ATOM      5  N   UNL     1       1.216   9.465  17.890  0.00  0.00    +0.000 NA
ATOM      6  C   UNL     1       0.836   9.652  19.124  0.00  0.00    +0.000 A 
ENDROOT
BRANCH   3   7
ATOM      7  C   UNL     1       2.896   6.578  19.425  0.00  0.00    +0.000 C 
BRANCH   7   8
ATOM      8  C   UNL     1       3.536   5.865  18.245  0.00  0.00    +0.000 A 
ATOM      9  C   UNL     1       3.100   4.564  17.877  0.00  0.00    +0.000 A 
ATOM     10  C   UNL     1       3.851   3.775  16.997  0.00  0.00    +0.000 A 
ATOM     11  C   UNL     1       4.967   4.339  16.418  0.00  0.00    +0.000 A 
ATOM     12  C   UNL     1       5.345   5.632  16.689  0.00  0.00    +0.000 A 
ATOM     13  C   UNL     1       4.658   6.418  17.595  0.00  0.00    +0.000 A 
ATOM     14  O   UNL     1       6.489   5.981  16.038  0.00  0.00    +0.000 OA
ATOM     15  C   UNL     1       6.785   4.759  15.328  0.00  0.00    +0.000 C 
ATOM     16  O   UNL     1       5.835   3.704  15.586  0.00  0.00    +0.000 OA
ENDBRANCH   7   8
ENDBRANCH   3   7
BRANCH   6  17
ATOM     17  S   UNL     1      -0.141  10.972  19.708  0.00  0.00    +0.000 S 
BRANCH  17  18
ATOM     18  C   UNL     1       0.988  12.377  20.020  0.00  0.00    +0.000 C 
BRANCH  18  19
ATOM     19  C   UNL     1       0.303  13.714  20.260  0.00  0.00    +0.000 C 
ATOM     20  O   UNL     1      -0.662  13.812  20.988  0.00  0.00    +0.000 OA
ATOM     21  N   UNL     1       0.905  14.821  19.648  0.00  0.00    +0.000 N 
ATOM     22  C   UNL     1       2.072  14.752  18.747  0.00  0.00    +0.000 C 
ATOM     23  C   UNL     1       2.661  16.121  18.377  0.00  0.00    +0.000 C 
ATOM     24  C   UNL     1       1.562  17.002  17.846  0.00  0.00    +0.000 A 
ATOM     25  C   UNL     1       1.744  17.862  16.759  0.00  0.00    +0.000 A 
ATOM     26  C   UNL     1       0.674  18.630  16.294  0.00  0.00    +0.000 A 
ATOM     27  C   UNL     1      -0.570  18.551  16.919  0.00  0.00    +0.000 A 
ATOM     28  C   UNL     1      -0.747  17.717  18.022  0.00  0.00    +0.000 A 
ATOM     29  C   UNL     1       0.315  16.938  18.492  0.00  0.00    +0.000 A 
ATOM     30  C   UNL     1       0.178  16.087  19.731  0.00  0.00    +0.000 C 
ENDBRANCH  18  19
ENDBRANCH  17  18
ENDBRANCH   6  17
TORSDOF 5
ENDMDL
MODEL 3
REMARK VINA RESULT:      -8.3      3.464      4.347
REMARK  Name = 
REMARK  6 active torsions:
REMARK  status: ('A' for Active; 'I' for Inactive)
REMARK    1  A    between atoms: C_1  and  N_2
REMARK    2  A    between atoms: C_3  and  C_4
REMARK    3  A    between atoms: C_4  and  C_5
REMARK    4  A    between atoms: C_16  and  S_17
REMARK    5  A    between atoms: S_17  and  C_18
REMARK    6  A    between atoms: C_18  and  C_19
REMARK                            x       y       z     vdW  Elec       q    Type
REMARK                         _______ _______ _______ _____ _____    ______ ____
ROOT
ATOM      1  C   UNL     1       1.619   7.143  20.875  0.00  0.00    +0.000 C 
ATOM      2  N   UNL     1       2.062   7.628  19.605  0.00  0.00    +0.000 N 
ATOM      3  C   UNL     1       2.859   6.978  18.667  0.00  0.00    +0.000 A 
ATOM      4  N   UNL     1       3.039   7.796  17.657  0.00  0.00    +0.000 NA
ATOM      5  N   UNL     1       2.335   8.969  17.891  0.00  0.00    +0.000 NA
ATOM      6  C   UNL     1       1.720   8.847  19.036  0.00  0.00    +0.000 A 
ENDROOT
BRANCH   3   7
ATOM      7  C   UNL     1       3.483   5.591  18.775  0.00  0.00    +0.000 C 
BRANCH   7   8
ATOM      8  C   UNL     1       4.684   5.357  17.874  0.00  0.00    +0.000 A 
ATOM      9  C   UNL     1       5.951   5.899  18.221  0.00  0.00    +0.000 A 
ATOM     10  C   UNL     1       6.993   5.949  17.286  0.00  0.00    +0.000 A 
ATOM     11  C   UNL     1       6.784   5.362  16.056  0.00  0.00    +0.000 A 
ATOM     12  C   UNL     1       5.598   4.746  15.742  0.00  0.00    +0.000 A 
ATOM     13  C   UNL     1       4.530   4.727  16.622  0.00  0.00    +0.000 A 
ATOM     14  O   UNL     1       5.590   4.259  14.471  0.00  0.00    +0.000 OA
ATOM     15  C   UNL     1       6.910   4.641  14.024  0.00  0.00    +0.000 C 
ATOM     16  O   UNL     1       7.663   5.364  15.019  0.00  0.00    +0.000 OA
ENDBRANCH   7   8
ENDBRANCH   3   7
BRANCH   6  17
ATOM     17  S   UNL     1       0.725  10.057  19.800  0.00  0.00    +0.000 S 
BRANCH  17  18
ATOM     18  C   UNL     1       0.956  11.611  18.861  0.00  0.00    +0.000 C 
BRANCH  18  19
ATOM     19  C   UNL     1       0.176  12.806  19.389  0.00  0.00    +0.000 C 
ATOM     20  O   UNL     1      -0.848  12.666  20.026  0.00  0.00    +0.000 OA
ATOM     21  N   UNL     1       0.758  14.059  19.158  0.00  0.00    +0.000 N 
ATOM     22  C   UNL     1       1.994  14.281  18.382  0.00  0.00    +0.000 C 
ATOM     23  C   UNL     1       2.528  15.720  18.451  0.00  0.00    +0.000 C 
ATOM     24  C   UNL     1       1.424  16.672  18.080  0.00  0.00    +0.000 A 
ATOM     25  C   UNL     1       1.639  17.804  17.287  0.00  0.00    +0.000 A 
ATOM     26  C   UNL     1       0.566  18.630  16.950  0.00  0.00    +0.000 A 
ATOM     27  C   UNL     1      -0.717  18.339  17.414  0.00  0.00    +0.000 A 
ATOM     28  C   UNL     1      -0.931  17.229  18.230  0.00  0.00    +0.000 A 
ATOM     29  C   UNL     1       0.136  16.389  18.567  0.00  0.00    +0.000 A 
ATOM     30  C   UNL     1      -0.047  15.227  19.512  0.00  0.00    +0.000 C 
ENDBRANCH  18  19
ENDBRANCH  17  18
ENDBRANCH   6  17
TORSDOF 5
ENDMDL
MODEL 4
REMARK VINA RESULT:      -8.3      1.616      2.229
REMARK  Name = 
REMARK  6 active torsions:
REMARK  status: ('A' for Active; 'I' for Inactive)
REMARK    1  A    between atoms: C_1  and  N_2
REMARK    2  A    between atoms: C_3  and  C_4
REMARK    3  A    between atoms: C_4  and  C_5
REMARK    4  A    between atoms: C_16  and  S_17
REMARK    5  A    between atoms: S_17  and  C_18
REMARK    6  A    between atoms: C_18  and  C_19
REMARK                            x       y       z     vdW  Elec       q    Type
REMARK                         _______ _______ _______ _____ _____    ______ ____
ROOT
ATOM      1  C   UNL     1       1.427   8.253  20.887  0.00  0.00    +0.000 C 
ATOM      2  N   UNL     1       1.798   8.358  19.509  0.00  0.00    +0.000 N 
ATOM      3  C   UNL     1       2.296   7.362  18.675  0.00  0.00    +0.000 A 
ATOM      4  N   UNL     1       2.522   7.898  17.499  0.00  0.00    +0.000 NA
ATOM      5  N   UNL     1       2.141   9.232  17.528  0.00  0.00    +0.000 NA
ATOM      6  C   UNL     1       1.671   9.491  18.717  0.00  0.00    +0.000 A 
ENDROOT
BRANCH   3   7
ATOM      7  C   UNL     1       2.596   5.910  19.033  0.00  0.00    +0.000 C 
BRANCH   7   8
ATOM      8  C   UNL     1       3.908   5.373  18.483  0.00  0.00    +0.000 A 
ATOM      9  C   UNL     1       5.083   5.407  19.281  0.00  0.00    +0.000 A 
ATOM     10  C   UNL     1       6.345   5.194  18.714  0.00  0.00    +0.000 A 
ATOM     11  C   UNL     1       6.402   4.846  17.381  0.00  0.00    +0.000 A 
ATOM     12  C   UNL     1       5.267   4.712  16.621  0.00  0.00    +0.000 A 
ATOM     13  C   UNL     1       4.009   4.969  17.136  0.00  0.00    +0.000 A 
ATOM     14  O   UNL     1       5.547   4.393  15.327  0.00  0.00    +0.000 OA
ATOM     15  C   UNL     1       6.990   4.342  15.365  0.00  0.00    +0.000 C 
ATOM     16  O   UNL     1       7.540   4.655  16.661  0.00  0.00    +0.000 OA
ENDBRANCH   7   8
ENDBRANCH   3   7
BRANCH   6  17
ATOM     17  S   UNL     1       1.086  11.035  19.276  0.00  0.00    +0.000 S 
BRANCH  17  18
ATOM     18  C   UNL     1      -0.574  10.752  19.991  0.00  0.00    +0.000 C 
BRANCH  18  19
ATOM     19  C   UNL     1      -0.776  11.309  21.393  0.00  0.00    +0.000 C 
ATOM     20  O   UNL     1       0.017  11.091  22.284  0.00  0.00    +0.000 OA
ATOM     21  N   UNL     1      -1.888  12.145  21.557  0.00  0.00    +0.000 N 
ATOM     22  C   UNL     1      -2.886  12.432  20.508  0.00  0.00    +0.000 C 
ATOM     23  C   UNL     1      -3.888  13.536  20.880  0.00  0.00    +0.000 C 
ATOM     24  C   UNL     1      -4.513  13.205  22.207  0.00  0.00    +0.000 A 
ATOM     25  C   UNL     1      -5.869  13.413  22.475  0.00  0.00    +0.000 A 
ATOM     26  C   UNL     1      -6.395  13.055  23.718  0.00  0.00    +0.000 A 
ATOM     27  C   UNL     1      -5.570  12.503  24.697  0.00  0.00    +0.000 A 
ATOM     28  C   UNL     1      -4.210  12.322  24.445  0.00  0.00    +0.000 A 
ATOM     29  C   UNL     1      -3.674  12.671  23.201  0.00  0.00    +0.000 A 
ATOM     30  C   UNL     1      -2.194  12.562  22.925  0.00  0.00    +0.000 C 
ENDBRANCH  18  19
ENDBRANCH  17  18
ENDBRANCH   6  17
TORSDOF 5
ENDMDL
MODEL 5
REMARK VINA RESULT:      -8.1      3.683      4.831
REMARK  Name = 
REMARK  6 active torsions:
REMARK  status: ('A' for Active; 'I' for Inactive)
REMARK    1  A    between atoms: C_1  and  N_2
REMARK    2  A    between atoms: C_3  and  C_4
REMARK    3  A    between atoms: C_4  and  C_5
REMARK    4  A    between atoms: C_16  and  S_17
REMARK    5  A    between atoms: S_17  and  C_18
REMARK    6  A    between atoms: C_18  and  C_19
REMARK                            x       y       z     vdW  Elec       q    Type
REMARK                         _______ _______ _______ _____ _____    ______ ____
ROOT
ATOM      1  C   UNL     1       1.702   7.761  20.545  0.00  0.00    +0.000 C 
ATOM      2  N   UNL     1       1.800   8.418  19.278  0.00  0.00    +0.000 N 
ATOM      3  C   UNL     1       2.568   8.051  18.177  0.00  0.00    +0.000 A 
ATOM      4  N   UNL     1       2.376   8.947  17.237  0.00  0.00    +0.000 NA
ATOM      5  N   UNL     1       1.455   9.884  17.685  0.00  0.00    +0.000 NA
ATOM      6  C   UNL     1       1.084   9.541  18.888  0.00  0.00    +0.000 A 
ENDROOT
BRANCH   3   7
ATOM      7  C   UNL     1       3.520   6.866  18.057  0.00  0.00    +0.000 C 
BRANCH   7   8
ATOM      8  C   UNL     1       2.965   5.545  18.566  0.00  0.00    +0.000 A 
ATOM      9  C   UNL     1       2.069   4.792  17.762  0.00  0.00    +0.000 A 
ATOM     10  C   UNL     1       1.326   3.737  18.307  0.00  0.00    +0.000 A 
ATOM     11  C   UNL     1       1.571   3.386  19.617  0.00  0.00    +0.000 A 
ATOM     12  C   UNL     1       2.507   4.042  20.377  0.00  0.00    +0.000 A 
ATOM     13  C   UNL     1       3.217   5.123  19.887  0.00  0.00    +0.000 A 
ATOM     14  O   UNL     1       2.570   3.559  21.649  0.00  0.00    +0.000 OA
ATOM     15  C   UNL     1       1.564   2.523  21.597  0.00  0.00    +0.000 C 
ATOM     16  O   UNL     1       0.908   2.426  20.316  0.00  0.00    +0.000 OA
ENDBRANCH   7   8
ENDBRANCH   3   7
BRANCH   6  17
ATOM     17  S   UNL     1      -0.038  10.408  19.902  0.00  0.00    +0.000 S 
BRANCH  17  18
ATOM     18  C   UNL     1      -0.494  11.939  19.008  0.00  0.00    +0.000 C 
BRANCH  18  19
ATOM     19  C   UNL     1      -1.601  12.758  19.655  0.00  0.00    +0.000 C 
ATOM     20  O   UNL     1      -1.358  13.634  20.458  0.00  0.00    +0.000 OA
ATOM     21  N   UNL     1      -2.899  12.483  19.205  0.00  0.00    +0.000 N 
ATOM     22  C   UNL     1      -3.246  11.422  18.239  0.00  0.00    +0.000 C 
ATOM     23  C   UNL     1      -4.704  11.463  17.759  0.00  0.00    +0.000 C 
ATOM     24  C   UNL     1      -5.615  11.487  18.955  0.00  0.00    +0.000 A 
ATOM     25  C   UNL     1      -6.811  10.763  19.008  0.00  0.00    +0.000 A 
ATOM     26  C   UNL     1      -7.596  10.802  20.161  0.00  0.00    +0.000 A 
ATOM     27  C   UNL     1      -7.200  11.570  21.255  0.00  0.00    +0.000 A 
ATOM     28  C   UNL     1      -6.024  12.317  21.196  0.00  0.00    +0.000 A 
ATOM     29  C   UNL     1      -5.225  12.281  20.048  0.00  0.00    +0.000 A 
ATOM     30  C   UNL     1      -3.991  13.139  19.922  0.00  0.00    +0.000 C 
ENDBRANCH  18  19
ENDBRANCH  17  18
ENDBRANCH   6  17
TORSDOF 5
ENDMDL
MODEL 6
REMARK VINA RESULT:      -8.1      4.108      5.884
REMARK  Name = 
REMARK  6 active torsions:
REMARK  status: ('A' for Active; 'I' for Inactive)
REMARK    1  A    between atoms: C_1  and  N_2
REMARK    2  A    between atoms: C_3  and  C_4
REMARK    3  A    between atoms: C_4  and  C_5
REMARK    4  A    between atoms: C_16  and  S_17
REMARK    5  A    between atoms: S_17  and  C_18
REMARK    6  A    between atoms: C_18  and  C_19
REMARK                            x       y       z     vdW  Elec       q    Type
REMARK                         _______ _______ _______ _____ _____    ______ ____
ROOT
ATOM      1  C   UNL     1       1.759   7.885  20.530  0.00  0.00    +0.000 C 
ATOM      2  N   UNL     1       1.856   8.449  19.220  0.00  0.00    +0.000 N 
ATOM      3  C   UNL     1       2.614   7.998  18.143  0.00  0.00    +0.000 A 
ATOM      4  N   UNL     1       2.425   8.826  17.143  0.00  0.00    +0.000 NA
ATOM      5  N   UNL     1       1.516   9.802  17.527  0.00  0.00    +0.000 NA
ATOM      6  C   UNL     1       1.149   9.549  18.754  0.00  0.00    +0.000 A 
ENDROOT
BRANCH   3   7
ATOM      7  C   UNL     1       3.554   6.798  18.103  0.00  0.00    +0.000 C 
BRANCH   7   8
ATOM      8  C   UNL     1       2.953   5.496  18.610  0.00  0.00    +0.000 A 
ATOM      9  C   UNL     1       2.035   4.773  17.802  0.00  0.00    +0.000 A 
ATOM     10  C   UNL     1       1.255   3.744  18.344  0.00  0.00    +0.000 A 
ATOM     11  C   UNL     1       1.482   3.385  19.655  0.00  0.00    +0.000 A 
ATOM     12  C   UNL     1       2.437   4.009  20.419  0.00  0.00    +0.000 A 
ATOM     13  C   UNL     1       3.185   5.066  19.932  0.00  0.00    +0.000 A 
ATOM     14  O   UNL     1       2.478   3.525  21.690  0.00  0.00    +0.000 OA
ATOM     15  C   UNL     1       1.438   2.524  21.635  0.00  0.00    +0.000 C 
ATOM     16  O   UNL     1       0.785   2.449  20.352  0.00  0.00    +0.000 OA
ENDBRANCH   7   8
ENDBRANCH   3   7
BRANCH   6  17
ATOM     17  S   UNL     1       0.041  10.497  19.709  0.00  0.00    +0.000 S 
BRANCH  17  18
ATOM     18  C   UNL     1       0.943  11.998  20.241  0.00  0.00    +0.000 C 
BRANCH  18  19
ATOM     19  C   UNL     1       0.099  13.261  20.324  0.00  0.00    +0.000 C 
ATOM     20  O   UNL     1      -1.023  13.248  20.788  0.00  0.00    +0.000 OA
ATOM     21  N   UNL     1       0.730  14.440  19.905  0.00  0.00    +0.000 N 
ATOM     22  C   UNL     1       2.086  14.506  19.325  0.00  0.00    +0.000 C 
ATOM     23  C   UNL     1       2.620  15.934  19.140  0.00  0.00    +0.000 C 
ATOM     24  C   UNL     1       1.612  16.739  18.366  0.00  0.00    +0.000 A 
ATOM     25  C   UNL     1       1.979  17.656  17.375  0.00  0.00    +0.000 A 
ATOM     26  C   UNL     1       0.993  18.348  16.670  0.00  0.00    +0.000 A 
ATOM     27  C   UNL     1      -0.355  18.139  16.959  0.00  0.00    +0.000 A 
ATOM     28  C   UNL     1      -0.725  17.249  17.967  0.00  0.00    +0.000 A 
ATOM     29  C   UNL     1       0.254  16.544  18.676  0.00  0.00    +0.000 A 
ATOM     30  C   UNL     1      -0.108  15.635  19.824  0.00  0.00    +0.000 C 
ENDBRANCH  18  19
ENDBRANCH  17  18
ENDBRANCH   6  17
TORSDOF 5
ENDMDL
MODEL 7
REMARK VINA RESULT:      -8.1      6.708      9.788
REMARK  Name = 
REMARK  6 active torsions:
REMARK  status: ('A' for Active; 'I' for Inactive)
REMARK    1  A    between atoms: C_1  and  N_2
REMARK    2  A    between atoms: C_3  and  C_4
REMARK    3  A    between atoms: C_4  and  C_5
REMARK    4  A    between atoms: C_16  and  S_17
REMARK    5  A    between atoms: S_17  and  C_18
REMARK    6  A    between atoms: C_18  and  C_19
REMARK                            x       y       z     vdW  Elec       q    Type
REMARK                         _______ _______ _______ _____ _____    ______ ____
ROOT
ATOM      1  C   UNL     1       7.339   4.841  18.370  0.00  0.00    +0.000 C 
ATOM      2  N   UNL     1       6.809   5.910  17.582  0.00  0.00    +0.000 N 
ATOM      3  C   UNL     1       5.771   5.863  16.656  0.00  0.00    +0.000 A 
ATOM      4  N   UNL     1       5.630   7.065  16.149  0.00  0.00    +0.000 NA
ATOM      5  N   UNL     1       6.535   7.924  16.758  0.00  0.00    +0.000 NA
ATOM      6  C   UNL     1       7.207   7.238  17.642  0.00  0.00    +0.000 A 
ENDROOT
BRANCH   3   7
ATOM      7  C   UNL     1       4.956   4.646  16.230  0.00  0.00    +0.000 C 
BRANCH   7   8
ATOM      8  C   UNL     1       4.125   4.014  17.335  0.00  0.00    +0.000 A 
ATOM      9  C   UNL     1       4.018   2.600  17.425  0.00  0.00    +0.000 A 
ATOM     10  C   UNL     1       3.046   2.003  18.237  0.00  0.00    +0.000 A 
ATOM     11  C   UNL     1       2.268   2.825  19.023  0.00  0.00    +0.000 A 
ATOM     12  C   UNL     1       2.429   4.189  19.021  0.00  0.00    +0.000 A 
ATOM     13  C   UNL     1       3.341   4.814  18.191  0.00  0.00    +0.000 A 
ATOM     14  O   UNL     1       1.543   4.814  19.844  0.00  0.00    +0.000 OA
ATOM     15  C   UNL     1       0.809   3.684  20.364  0.00  0.00    +0.000 C 
ATOM     16  O   UNL     1       1.248   2.420  19.826  0.00  0.00    +0.000 OA
ENDBRANCH   7   8
ENDBRANCH   3   7
BRANCH   6  17
ATOM     17  S   UNL     1       8.486   7.849  18.657  0.00  0.00    +0.000 S 
BRANCH  17  18
ATOM     18  C   UNL     1       8.578   9.654  18.374  0.00  0.00    +0.000 C 
BRANCH  18  19
ATOM     19  C   UNL     1       9.271  10.445  19.475  0.00  0.00    +0.000 C 
ATOM     20  O   UNL     1       9.030  10.248  20.647  0.00  0.00    +0.000 OA
ATOM     21  N   UNL     1      10.250  11.349  19.045  0.00  0.00    +0.000 N 
ATOM     22  C   UNL     1      10.571  11.632  17.632  0.00  0.00    +0.000 C 
ATOM     23  C   UNL     1      11.819  12.506  17.435  0.00  0.00    +0.000 C 
ATOM     24  C   UNL     1      11.681  13.753  18.264  0.00  0.00    +0.000 A 
ATOM     25  C   UNL     1      12.079  15.013  17.805  0.00  0.00    +0.000 A 
ATOM     26  C   UNL     1      11.894  16.137  18.611  0.00  0.00    +0.000 A 
ATOM     27  C   UNL     1      11.326  16.006  19.878  0.00  0.00    +0.000 A 
ATOM     28  C   UNL     1      10.956  14.748  20.353  0.00  0.00    +0.000 A 
ATOM     29  C   UNL     1      11.130  13.616  19.551  0.00  0.00    +0.000 A 
ATOM     30  C   UNL     1      10.814  12.232  20.064  0.00  0.00    +0.000 C 
ENDBRANCH  18  19
ENDBRANCH  17  18
ENDBRANCH   6  17
TORSDOF 5
ENDMDL
MODEL 8
REMARK VINA RESULT:      -8.0      2.097      2.504
REMARK  Name = 
REMARK  6 active torsions:
REMARK  status: ('A' for Active; 'I' for Inactive)
REMARK    1  A    between atoms: C_1  and  N_2
REMARK    2  A    between atoms: C_3  and  C_4
REMARK    3  A    between atoms: C_4  and  C_5
REMARK    4  A    between atoms: C_16  and  S_17
REMARK    5  A    between atoms: S_17  and  C_18
REMARK    6  A    between atoms: C_18  and  C_19
REMARK                            x       y       z     vdW  Elec       q    Type
REMARK                         _______ _______ _______ _____ _____    ______ ____
ROOT
ATOM      1  C   UNL     1       2.176   4.984  21.048  0.00  0.00    +0.000 C 
ATOM      2  N   UNL     1       2.462   5.832  19.932  0.00  0.00    +0.000 N 
ATOM      3  C   UNL     1       3.121   5.505  18.751  0.00  0.00    +0.000 A 
ATOM      4  N   UNL     1       3.185   6.588  18.013  0.00  0.00    +0.000 NA
ATOM      5  N   UNL     1       2.537   7.624  18.671  0.00  0.00    +0.000 NA
ATOM      6  C   UNL     1       2.072   7.157  19.797  0.00  0.00    +0.000 A 
ENDROOT
BRANCH   3   7
ATOM      7  C   UNL     1       3.729   4.161  18.364  0.00  0.00    +0.000 C 
BRANCH   7   8
ATOM      8  C   UNL     1       4.933   4.245  17.440  0.00  0.00    +0.000 A 
ATOM      9  C   UNL     1       6.176   4.727  17.931  0.00  0.00    +0.000 A 
ATOM     10  C   UNL     1       7.207   5.085  17.053  0.00  0.00    +0.000 A 
ATOM     11  C   UNL     1       7.016   4.856  15.708  0.00  0.00    +0.000 A 
ATOM     12  C   UNL     1       5.857   4.297  15.227  0.00  0.00    +0.000 A 
ATOM     13  C   UNL     1       4.799   3.983  16.060  0.00  0.00    +0.000 A 
ATOM     14  O   UNL     1       5.862   4.185  13.871  0.00  0.00    +0.000 OA
ATOM     15  C   UNL     1       7.159   4.738  13.556  0.00  0.00    +0.000 C 
ATOM     16  O   UNL     1       7.886   5.189  14.717  0.00  0.00    +0.000 OA
ENDBRANCH   7   8
ENDBRANCH   3   7
BRANCH   6  17
ATOM     17  S   UNL     1       1.204   8.067  21.005  0.00  0.00    +0.000 S 
BRANCH  17  18
ATOM     18  C   UNL     1       0.646   9.617  20.208  0.00  0.00    +0.000 C 
BRANCH  18  19
ATOM     19  C   UNL     1       0.607  10.833  21.122  0.00  0.00    +0.000 C 
ATOM     20  O   UNL     1       0.484  10.722  22.324  0.00  0.00    +0.000 OA
ATOM     21  N   UNL     1       0.798  12.070  20.492  0.00  0.00    +0.000 N 
ATOM     22  C   UNL     1       0.942  12.257  19.035  0.00  0.00    +0.000 C 
ATOM     23  C   UNL     1       1.345  13.681  18.622  0.00  0.00    +0.000 C 
ATOM     24  C   UNL     1       0.392  14.662  19.248  0.00  0.00    +0.000 A 
ATOM     25  C   UNL     1      -0.086  15.787  18.569  0.00  0.00    +0.000 A 
ATOM     26  C   UNL     1      -0.995  16.642  19.194  0.00  0.00    +0.000 A 
ATOM     27  C   UNL     1      -1.416  16.386  20.499  0.00  0.00    +0.000 A 
ATOM     28  C   UNL     1      -0.918  15.284  21.191  0.00  0.00    +0.000 A 
ATOM     29  C   UNL     1      -0.012  14.415  20.572  0.00  0.00    +0.000 A 
ATOM     30  C   UNL     1       0.606  13.260  21.320  0.00  0.00    +0.000 C 
ENDBRANCH  18  19
ENDBRANCH  17  18
ENDBRANCH   6  17
TORSDOF 5
ENDMDL
MODEL 9
REMARK VINA RESULT:      -8.0      1.528      1.805
REMARK  Name = 
REMARK  6 active torsions:
REMARK  status: ('A' for Active; 'I' for Inactive)
REMARK    1  A    between atoms: C_1  and  N_2
REMARK    2  A    between atoms: C_3  and  C_4
REMARK    3  A    between atoms: C_4  and  C_5
REMARK    4  A    between atoms: C_16  and  S_17
REMARK    5  A    between atoms: S_17  and  C_18
REMARK    6  A    between atoms: C_18  and  C_19
REMARK                            x       y       z     vdW  Elec       q    Type
REMARK                         _______ _______ _______ _____ _____    ______ ____
ROOT
ATOM      1  C   UNL     1       1.543   7.328  20.693  0.00  0.00    +0.000 C 
ATOM      2  N   UNL     1       2.017   7.752  19.412  0.00  0.00    +0.000 N 
ATOM      3  C   UNL     1       2.919   7.106  18.572  0.00  0.00    +0.000 A 
ATOM      4  N   UNL     1       3.088   7.858  17.509  0.00  0.00    +0.000 NA
ATOM      5  N   UNL     1       2.274   8.978  17.612  0.00  0.00    +0.000 NA
ATOM      6  C   UNL     1       1.607   8.889  18.729  0.00  0.00    +0.000 A 
ENDROOT
BRANCH   3   7
ATOM      7  C   UNL     1       3.651   5.793  18.824  0.00  0.00    +0.000 C 
BRANCH   7   8
ATOM      8  C   UNL     1       4.806   5.511  17.876  0.00  0.00    +0.000 A 
ATOM      9  C   UNL     1       6.087   6.071  18.128  0.00  0.00    +0.000 A 
ATOM     10  C   UNL     1       7.079   6.071  17.140  0.00  0.00    +0.000 A 
ATOM     11  C   UNL     1       6.810   5.418  15.956  0.00  0.00    +0.000 A 
ATOM     12  C   UNL     1       5.611   4.785  15.738  0.00  0.00    +0.000 A 
ATOM     13  C   UNL     1       4.591   4.813  16.670  0.00  0.00    +0.000 A 
ATOM     14  O   UNL     1       5.541   4.229  14.497  0.00  0.00    +0.000 OA
ATOM     15  C   UNL     1       6.834   4.587  13.963  0.00  0.00    +0.000 C 
ATOM     16  O   UNL     1       7.635   5.364  14.877  0.00  0.00    +0.000 OA
ENDBRANCH   7   8
ENDBRANCH   3   7
BRANCH   6  17
ATOM     17  S   UNL     1       0.470  10.061  19.341  0.00  0.00    +0.000 S 
BRANCH  17  18
ATOM     18  C   UNL     1       0.939  10.407  21.075  0.00  0.00    +0.000 C 
BRANCH  18  19
ATOM     19  C   UNL     1      -0.214  10.397  22.069  0.00  0.00    +0.000 C 
ATOM     20  O   UNL     1      -0.634   9.364  22.545  0.00  0.00    +0.000 OA
ATOM     21  N   UNL     1      -0.696  11.657  22.448  0.00  0.00    +0.000 N 
ATOM     22  C   UNL     1      -0.225  12.940  21.891  0.00  0.00    +0.000 C 
ATOM     23  C   UNL     1      -0.767  14.178  22.622  0.00  0.00    +0.000 C 
ATOM     24  C   UNL     1      -2.267  14.087  22.696  0.00  0.00    +0.000 A 
ATOM     25  C   UNL     1      -3.100  15.195  22.511  0.00  0.00    +0.000 A 
ATOM     26  C   UNL     1      -4.486  15.038  22.560  0.00  0.00    +0.000 A 
ATOM     27  C   UNL     1      -5.042  13.783  22.806  0.00  0.00    +0.000 A 
ATOM     28  C   UNL     1      -4.215  12.681  23.021  0.00  0.00    +0.000 A 
ATOM     29  C   UNL     1      -2.825  12.825  22.968  0.00  0.00    +0.000 A 
ATOM     30  C   UNL     1      -1.902  11.671  23.274  0.00  0.00    +0.000 C 
ENDBRANCH  18  19
ENDBRANCH  17  18
ENDBRANCH   6  17
TORSDOF 5
ENDMDL
