MODEL 1
REMARK VINA RESULT:      -6.6      0.000      0.000
REMARK  Name = 
REMARK  4 active torsions:
REMARK  status: ('A' for Active; 'I' for Inactive)
REMARK    1  A    between atoms: C_1  and  C_2
REMARK    2  A    between atoms: C_2  and  N_3
REMARK    3  A    between atoms: N_16  and  C_17
REMARK    4  A    between atoms: C_17  and  C_18
REMARK                            x       y       z     vdW  Elec       q    Type
REMARK                         _______ _______ _______ _____ _____    ______ ____
ROOT
ATOM      1  N   UNL     1       3.093   6.463  18.357  0.00  0.00    +0.000 N 
ATOM      2  C   UNL     1       4.278   6.832  17.702  0.00  0.00    +0.000 C 
ATOM      3  O   UNL     1       4.845   7.912  17.781  0.00  0.00    +0.000 OA
ATOM      4  C   UNL     1       4.768   5.560  16.872  0.00  0.00    +0.000 C 
ATOM      5  N   UNL     1       4.882   6.000  15.448  0.00  0.00    +0.000 NA
ATOM      6  C   UNL     1       5.980   5.190  14.828  0.00  0.00    +0.000 C 
ATOM      7  C   UNL     1       5.270   4.089  14.037  0.00  0.00    +0.000 C 
ATOM      8  C   UNL     1       6.135   3.208  13.154  0.00  0.00    +0.000 C 
ATOM      9  C   UNL     1       7.253   3.904  12.393  0.00  0.00    +0.000 C 
ATOM     10  C   UNL     1       7.868   5.113  13.088  0.00  0.00    +0.000 C 
ATOM     11  C   UNL     1       6.861   5.994  13.846  0.00  0.00    +0.000 C 
ATOM     12  C   UNL     1       6.794   4.736  16.056  0.00  0.00    +0.000 C 
ATOM     13  O   UNL     1       7.880   4.198  16.041  0.00  0.00    +0.000 OA
ATOM     14  N   UNL     1       6.083   5.090  17.184  0.00  0.00    +0.000 N 
ATOM     15  C   UNL     1       3.689   4.554  17.224  0.00  0.00    +0.000 A 
ATOM     16  C   UNL     1       3.617   3.186  16.986  0.00  0.00    +0.000 A 
ATOM     17  C   UNL     1       2.557   2.443  17.510  0.00  0.00    +0.000 A 
ATOM     18  C   UNL     1       1.593   3.053  18.317  0.00  0.00    +0.000 A 
ATOM     19  C   UNL     1       1.698   4.407  18.627  0.00  0.00    +0.000 A 
ATOM     20  C   UNL     1       2.746   5.140  18.080  0.00  0.00    +0.000 A 
ATOM     21  H   UNL     1       5.229   6.964  15.507  0.00  0.00    +0.000 HD
ENDROOT
BRANCH   1  23
ATOM     22  C   UNL     1       1.758   8.496  18.730  0.00  0.00    +0.000 C 
ATOM     23  C   UNL     1       2.442   7.281  19.347  0.00  0.00    +0.000 C 
ENDBRANCH   1  23
BRANCH  14  24
ATOM     24  C   UNL     1       6.508   4.787  18.545  0.00  0.00    +0.000 C 
ATOM     25  C   UNL     1       7.544   5.759  19.077  0.00  0.00    +0.000 C 
ENDBRANCH  14  24
TORSDOF 2
ENDMDL
MODEL 2
REMARK VINA RESULT:      -6.5      8.836     10.519
REMARK  Name = 
REMARK  4 active torsions:
REMARK  status: ('A' for Active; 'I' for Inactive)
REMARK    1  A    between atoms: C_1  and  C_2
REMARK    2  A    between atoms: C_2  and  N_3
REMARK    3  A    between atoms: N_16  and  C_17
REMARK    4  A    between atoms: C_17  and  C_18
REMARK                            x       y       z     vdW  Elec       q    Type
REMARK                         _______ _______ _______ _____ _____    ______ ____
ROOT
ATOM      1  N   UNL     1      -4.027  12.407  19.585  0.00  0.00    +0.000 N 
ATOM      2  C   UNL     1      -3.099  13.133  20.346  0.00  0.00    +0.000 C 
ATOM      3  O   UNL     1      -3.355  13.911  21.254  0.00  0.00    +0.000 OA
ATOM      4  C   UNL     1      -1.646  12.719  19.831  0.00  0.00    +0.000 C 
ATOM      5  N   UNL     1      -0.968  13.984  19.411  0.00  0.00    +0.000 NA
ATOM      6  C   UNL     1       0.499  13.793  19.656  0.00  0.00    +0.000 C 
ATOM      7  C   UNL     1       1.095  13.461  18.286  0.00  0.00    +0.000 C 
ATOM      8  C   UNL     1       2.608  13.385  18.193  0.00  0.00    +0.000 C 
ATOM      9  C   UNL     1       3.387  14.427  18.980  0.00  0.00    +0.000 C 
ATOM     10  C   UNL     1       2.732  14.901  20.273  0.00  0.00    +0.000 C 
ATOM     11  C   UNL     1       1.204  15.057  20.194  0.00  0.00    +0.000 C 
ATOM     12  C   UNL     1       0.518  12.662  20.704  0.00  0.00    +0.000 C 
ATOM     13  O   UNL     1       1.480  12.283  21.336  0.00  0.00    +0.000 OA
ATOM     14  N   UNL     1      -0.770  12.182  20.826  0.00  0.00    +0.000 N 
ATOM     15  C   UNL     1      -2.000  11.709  18.757  0.00  0.00    +0.000 A 
ATOM     16  C   UNL     1      -1.194  10.826  18.046  0.00  0.00    +0.000 A 
ATOM     17  C   UNL     1      -1.774   9.903  17.173  0.00  0.00    +0.000 A 
ATOM     18  C   UNL     1      -3.163   9.822  17.044  0.00  0.00    +0.000 A 
ATOM     19  C   UNL     1      -3.984  10.648  17.810  0.00  0.00    +0.000 A 
ATOM     20  C   UNL     1      -3.393  11.579  18.658  0.00  0.00    +0.000 A 
ATOM     21  H   UNL     1      -1.288  14.681  20.092  0.00  0.00    +0.000 HD
ENDROOT
BRANCH   1  23
ATOM     22  C   UNL     1      -6.217  13.401  19.063  0.00  0.00    +0.000 C 
ATOM     23  C   UNL     1      -5.438  12.369  19.872  0.00  0.00    +0.000 C 
ENDBRANCH   1  23
BRANCH  14  24
ATOM     24  C   UNL     1      -1.148  11.072  21.691  0.00  0.00    +0.000 C 
ATOM     25  C   UNL     1      -1.450  11.501  23.115  0.00  0.00    +0.000 C 
ENDBRANCH  14  24
TORSDOF 2
ENDMDL
MODEL 3
REMARK VINA RESULT:      -6.2      6.535     11.554
REMARK  Name = 
REMARK  4 active torsions:
REMARK  status: ('A' for Active; 'I' for Inactive)
REMARK    1  A    between atoms: C_1  and  C_2
REMARK    2  A    between atoms: C_2  and  N_3
REMARK    3  A    between atoms: N_16  and  C_17
REMARK    4  A    between atoms: C_17  and  C_18
REMARK                            x       y       z     vdW  Elec       q    Type
REMARK                         _______ _______ _______ _____ _____    ______ ____
ROOT
ATOM      1  N   UNL     1       0.311  10.551  18.770  0.00  0.00    +0.000 N 
ATOM      2  C   UNL     1       0.558  11.476  19.795  0.00  0.00    +0.000 C 
ATOM      3  O   UNL     1       1.641  11.722  20.306  0.00  0.00    +0.000 OA
ATOM      4  C   UNL     1      -0.835  12.177  20.137  0.00  0.00    +0.000 C 
ATOM      5  N   UNL     1      -1.076  11.954  21.596  0.00  0.00    +0.000 NA
ATOM      6  C   UNL     1      -1.856  13.133  22.093  0.00  0.00    +0.000 C 
ATOM      7  C   UNL     1      -3.308  12.653  22.164  0.00  0.00    +0.000 C 
ATOM      8  C   UNL     1      -4.314  13.592  22.805  0.00  0.00    +0.000 C 
ATOM      9  C   UNL     1      -3.842  14.347  24.038  0.00  0.00    +0.000 C 
ATOM     10  C   UNL     1      -2.358  14.693  24.071  0.00  0.00    +0.000 C 
ATOM     11  C   UNL     1      -1.436  13.601  23.504  0.00  0.00    +0.000 C 
ATOM     12  C   UNL     1      -1.542  14.212  21.037  0.00  0.00    +0.000 C 
ATOM     13  O   UNL     1      -1.813  15.391  21.110  0.00  0.00    +0.000 OA
ATOM     14  N   UNL     1      -0.856  13.602  20.008  0.00  0.00    +0.000 N 
ATOM     15  C   UNL     1      -1.754  11.487  19.148  0.00  0.00    +0.000 A 
ATOM     16  C   UNL     1      -3.067  11.768  18.788  0.00  0.00    +0.000 A 
ATOM     17  C   UNL     1      -3.676  11.046  17.758  0.00  0.00    +0.000 A 
ATOM     18  C   UNL     1      -2.960  10.078  17.050  0.00  0.00    +0.000 A 
ATOM     19  C   UNL     1      -1.619   9.843  17.349  0.00  0.00    +0.000 A 
ATOM     20  C   UNL     1      -1.032  10.552  18.392  0.00  0.00    +0.000 A 
ATOM     21  H   UNL     1      -0.144  12.022  22.020  0.00  0.00    +0.000 HD
ENDROOT
BRANCH   1  23
ATOM     22  C   UNL     1       1.777   8.574  18.786  0.00  0.00    +0.000 C 
ATOM     23  C   UNL     1       1.350   9.848  18.064  0.00  0.00    +0.000 C 
ENDBRANCH   1  23
BRANCH  14  24
ATOM     24  C   UNL     1      -0.423  14.288  18.797  0.00  0.00    +0.000 C 
ATOM     25  C   UNL     1       0.901  15.012  18.961  0.00  0.00    +0.000 C 
ENDBRANCH  14  24
TORSDOF 2
ENDMDL
MODEL 4
REMARK VINA RESULT:      -6.1      9.124     11.977
REMARK  Name = 
REMARK  4 active torsions:
REMARK  status: ('A' for Active; 'I' for Inactive)
REMARK    1  A    between atoms: C_1  and  C_2
REMARK    2  A    between atoms: C_2  and  N_3
REMARK    3  A    between atoms: N_16  and  C_17
REMARK    4  A    between atoms: C_17  and  C_18
REMARK                            x       y       z     vdW  Elec       q    Type
REMARK                         _______ _______ _______ _____ _____    ______ ____
ROOT
ATOM      1  N   UNL     1      10.992  15.015  18.757  0.00  0.00    +0.000 N 
ATOM      2  C   UNL     1      10.271  15.568  19.827  0.00  0.00    +0.000 C 
ATOM      3  O   UNL     1      10.264  16.742  20.168  0.00  0.00    +0.000 OA
ATOM      4  C   UNL     1       9.429  14.383  20.485  0.00  0.00    +0.000 C 
ATOM      5  N   UNL     1       9.824  14.331  21.926  0.00  0.00    +0.000 NA
ATOM      6  C   UNL     1       8.627  13.846  22.688  0.00  0.00    +0.000 C 
ATOM      7  C   UNL     1       8.893  12.362  22.951  0.00  0.00    +0.000 C 
ATOM      8  C   UNL     1       7.918  11.639  23.863  0.00  0.00    +0.000 C 
ATOM      9  C   UNL     1       7.428  12.413  25.077  0.00  0.00    +0.000 C 
ATOM     10  C   UNL     1       7.313  13.922  24.893  0.00  0.00    +0.000 C 
ATOM     11  C   UNL     1       8.436  14.549  24.050  0.00  0.00    +0.000 C 
ATOM     12  C   UNL     1       7.465  14.175  21.728  0.00  0.00    +0.000 C 
ATOM     13  O   UNL     1       6.282  14.121  21.986  0.00  0.00    +0.000 OA
ATOM     14  N   UNL     1       8.014  14.583  20.531  0.00  0.00    +0.000 N 
ATOM     15  C   UNL     1       9.827  13.221  19.595  0.00  0.00    +0.000 A 
ATOM     16  C   UNL     1       9.306  11.934  19.503  0.00  0.00    +0.000 A 
ATOM     17  C   UNL     1       9.773  11.063  18.516  0.00  0.00    +0.000 A 
ATOM     18  C   UNL     1      10.723  11.489  17.585  0.00  0.00    +0.000 A 
ATOM     19  C   UNL     1      11.194  12.801  17.618  0.00  0.00    +0.000 A 
ATOM     20  C   UNL     1      10.738  13.650  18.620  0.00  0.00    +0.000 A 
ATOM     21  H   UNL     1       9.956  15.314  22.188  0.00  0.00    +0.000 HD
ENDROOT
BRANCH   1  23
ATOM     22  C   UNL     1      10.838  16.348  16.694  0.00  0.00    +0.000 C 
ATOM     23  C   UNL     1      11.731  15.801  17.803  0.00  0.00    +0.000 C 
ENDBRANCH   1  23
BRANCH  14  24
ATOM     24  C   UNL     1       7.231  14.938  19.353  0.00  0.00    +0.000 C 
ATOM     25  C   UNL     1       6.774  16.385  19.353  0.00  0.00    +0.000 C 
ENDBRANCH  14  24
TORSDOF 2
ENDMDL
MODEL 5
REMARK VINA RESULT:      -5.9      9.071     11.443
REMARK  Name = 
REMARK  4 active torsions:
REMARK  status: ('A' for Active; 'I' for Inactive)
REMARK    1  A    between atoms: C_1  and  C_2
REMARK    2  A    between atoms: C_2  and  N_3
REMARK    3  A    between atoms: N_16  and  C_17
REMARK    4  A    between atoms: C_17  and  C_18
REMARK                            x       y       z     vdW  Elec       q    Type
REMARK                         _______ _______ _______ _____ _____    ______ ____
ROOT
ATOM      1  N   UNL     1       7.792  13.626  24.354  0.00  0.00    +0.000 N 
ATOM      2  C   UNL     1       7.564  12.847  23.209  0.00  0.00    +0.000 C 
ATOM      3  O   UNL     1       6.713  11.980  23.079  0.00  0.00    +0.000 OA
ATOM      4  C   UNL     1       8.597  13.339  22.096  0.00  0.00    +0.000 C 
ATOM      5  N   UNL     1       9.383  12.135  21.685  0.00  0.00    +0.000 NA
ATOM      6  C   UNL     1       9.757  12.331  20.246  0.00  0.00    +0.000 C 
ATOM      7  C   UNL     1      11.212  12.807  20.271  0.00  0.00    +0.000 C 
ATOM      8  C   UNL     1      11.921  12.923  18.933  0.00  0.00    +0.000 C 
ATOM      9  C   UNL     1      11.637  11.825  17.921  0.00  0.00    +0.000 C 
ATOM     10  C   UNL     1      10.242  11.213  17.986  0.00  0.00    +0.000 C 
ATOM     11  C   UNL     1       9.690  11.035  19.409  0.00  0.00    +0.000 C 
ATOM     12  C   UNL     1       8.709  13.354  19.765  0.00  0.00    +0.000 C 
ATOM     13  O   UNL     1       8.504  13.689  18.618  0.00  0.00    +0.000 OA
ATOM     14  N   UNL     1       8.013  13.794  20.872  0.00  0.00    +0.000 N 
ATOM     15  C   UNL     1       9.321  14.442  22.844  0.00  0.00    +0.000 A 
ATOM     16  C   UNL     1      10.214  15.406  22.389  0.00  0.00    +0.000 A 
ATOM     17  C   UNL     1      10.669  16.399  23.260  0.00  0.00    +0.000 A 
ATOM     18  C   UNL     1      10.197  16.463  24.573  0.00  0.00    +0.000 A 
ATOM     19  C   UNL     1       9.242  15.550  25.017  0.00  0.00    +0.000 A 
ATOM     20  C   UNL     1       8.814  14.553  24.147  0.00  0.00    +0.000 A 
ATOM     21  H   UNL     1       8.702  11.368  21.706  0.00  0.00    +0.000 HD
ENDROOT
BRANCH   1  23
ATOM     22  C   UNL     1       7.380  12.562  26.534  0.00  0.00    +0.000 C 
ATOM     23  C   UNL     1       6.940  13.606  25.514  0.00  0.00    +0.000 C 
ENDBRANCH   1  23
BRANCH  14  24
ATOM     24  C   UNL     1       6.965  14.806  20.829  0.00  0.00    +0.000 C 
ATOM     25  C   UNL     1       7.460  16.157  20.344  0.00  0.00    +0.000 C 
ENDBRANCH  14  24
TORSDOF 2
ENDMDL
MODEL 6
REMARK VINA RESULT:      -5.7      9.772     12.441
REMARK  Name = 
REMARK  4 active torsions:
REMARK  status: ('A' for Active; 'I' for Inactive)
REMARK    1  A    between atoms: C_1  and  C_2
REMARK    2  A    between atoms: C_2  and  N_3
REMARK    3  A    between atoms: N_16  and  C_17
REMARK    4  A    between atoms: C_17  and  C_18
REMARK                            x       y       z     vdW  Elec       q    Type
REMARK                         _______ _______ _______ _____ _____    ______ ____
ROOT
ATOM      1  N   UNL     1      11.170  16.424  18.916  0.00  0.00    +0.000 N 
ATOM      2  C   UNL     1      10.384  16.594  20.066  0.00  0.00    +0.000 C 
ATOM      3  O   UNL     1      10.268  17.621  20.721  0.00  0.00    +0.000 OA
ATOM      4  C   UNL     1       9.638  15.209  20.331  0.00  0.00    +0.000 C 
ATOM      5  N   UNL     1      10.010  14.785  21.716  0.00  0.00    +0.000 NA
ATOM      6  C   UNL     1       8.846  14.012  22.262  0.00  0.00    +0.000 C 
ATOM      7  C   UNL     1       9.237  12.539  22.111  0.00  0.00    +0.000 C 
ATOM      8  C   UNL     1       8.314  11.514  22.744  0.00  0.00    +0.000 C 
ATOM      9  C   UNL     1       7.735  11.873  24.104  0.00  0.00    +0.000 C 
ATOM     10  C   UNL     1       7.492  13.359  24.343  0.00  0.00    +0.000 C 
ATOM     11  C   UNL     1       8.570  14.285  23.757  0.00  0.00    +0.000 C 
ATOM     12  C   UNL     1       7.678  14.504  21.384  0.00  0.00    +0.000 C 
ATOM     13  O   UNL     1       6.499  14.287  21.567  0.00  0.00    +0.000 OA
ATOM     14  N   UNL     1       8.210  15.276  20.373  0.00  0.00    +0.000 N 
ATOM     15  C   UNL     1      10.152  14.380  19.170  0.00  0.00    +0.000 A 
ATOM     16  C   UNL     1       9.748  13.134  18.701  0.00  0.00    +0.000 A 
ATOM     17  C   UNL     1      10.307  12.617  17.531  0.00  0.00    +0.000 A 
ATOM     18  C   UNL     1      11.233  13.361  16.796  0.00  0.00    +0.000 A 
ATOM     19  C   UNL     1      11.586  14.643  17.213  0.00  0.00    +0.000 A 
ATOM     20  C   UNL     1      11.039  15.137  18.393  0.00  0.00    +0.000 A 
ATOM     21  H   UNL     1      10.050  15.662  22.248  0.00  0.00    +0.000 HD
ENDROOT
BRANCH   1  23
ATOM     22  C   UNL     1      10.901  18.372  17.435  0.00  0.00    +0.000 C 
ATOM     23  C   UNL     1      11.853  17.503  18.251  0.00  0.00    +0.000 C 
ENDBRANCH   1  23
BRANCH  14  24
ATOM     24  C   UNL     1       7.420  15.884  19.309  0.00  0.00    +0.000 C 
ATOM     25  C   UNL     1       6.767  14.865  18.393  0.00  0.00    +0.000 C 
ENDBRANCH  14  24
TORSDOF 2
ENDMDL
MODEL 7
REMARK VINA RESULT:      -5.6      8.718     12.810
REMARK  Name = 
REMARK  4 active torsions:
REMARK  status: ('A' for Active; 'I' for Inactive)
REMARK    1  A    between atoms: C_1  and  C_2
REMARK    2  A    between atoms: C_2  and  N_3
REMARK    3  A    between atoms: N_16  and  C_17
REMARK    4  A    between atoms: C_17  and  C_18
REMARK                            x       y       z     vdW  Elec       q    Type
REMARK                         _______ _______ _______ _____ _____    ______ ____
ROOT
ATOM      1  N   UNL     1      -0.382  11.183  21.049  0.00  0.00    +0.000 N 
ATOM      2  C   UNL     1      -0.984  12.056  21.967  0.00  0.00    +0.000 C 
ATOM      3  O   UNL     1      -0.528  12.399  23.048  0.00  0.00    +0.000 OA
ATOM      4  C   UNL     1      -2.352  12.551  21.312  0.00  0.00    +0.000 C 
ATOM      5  N   UNL     1      -3.438  12.195  22.278  0.00  0.00    +0.000 NA
ATOM      6  C   UNL     1      -4.513  13.228  22.124  0.00  0.00    +0.000 C 
ATOM      7  C   UNL     1      -5.585  12.566  21.255  0.00  0.00    +0.000 C 
ATOM      8  C   UNL     1      -6.888  13.323  21.072  0.00  0.00    +0.000 C 
ATOM      9  C   UNL     1      -7.430  14.041  22.299  0.00  0.00    +0.000 C 
ATOM     10  C   UNL     1      -6.380  14.567  23.271  0.00  0.00    +0.000 C 
ATOM     11  C   UNL     1      -5.166  13.643  23.461  0.00  0.00    +0.000 C 
ATOM     12  C   UNL     1      -3.752  14.410  21.491  0.00  0.00    +0.000 C 
ATOM     13  O   UNL     1      -4.170  15.538  21.340  0.00  0.00    +0.000 OA
ATOM     14  N   UNL     1      -2.488  13.967  21.162  0.00  0.00    +0.000 N 
ATOM     15  C   UNL     1      -2.314  11.822  19.983  0.00  0.00    +0.000 A 
ATOM     16  C   UNL     1      -3.114  11.961  18.854  0.00  0.00    +0.000 A 
ATOM     17  C   UNL     1      -2.810  11.245  17.693  0.00  0.00    +0.000 A 
ATOM     18  C   UNL     1      -1.679  10.427  17.639  0.00  0.00    +0.000 A 
ATOM     19  C   UNL     1      -0.826  10.342  18.738  0.00  0.00    +0.000 A 
ATOM     20  C   UNL     1      -1.153  11.042  19.894  0.00  0.00    +0.000 A 
ATOM     21  H   UNL     1      -3.016  12.349  23.201  0.00  0.00    +0.000 HD
ENDROOT
BRANCH   1  23
ATOM     22  C   UNL     1       0.976   9.312  21.895  0.00  0.00    +0.000 C 
ATOM     23  C   UNL     1       0.955  10.668  21.197  0.00  0.00    +0.000 C 
ENDBRANCH   1  23
BRANCH  14  24
ATOM     24  C   UNL     1      -1.482  14.786  20.497  0.00  0.00    +0.000 C 
ATOM     25  C   UNL     1      -0.697  15.662  21.456  0.00  0.00    +0.000 C 
ENDBRANCH  14  24
TORSDOF 2
ENDMDL
MODEL 8
REMARK VINA RESULT:      -5.6      8.939     11.522
REMARK  Name = 
REMARK  4 active torsions:
REMARK  status: ('A' for Active; 'I' for Inactive)
REMARK    1  A    between atoms: C_1  and  C_2
REMARK    2  A    between atoms: C_2  and  N_3
REMARK    3  A    between atoms: N_16  and  C_17
REMARK    4  A    between atoms: C_17  and  C_18
REMARK                            x       y       z     vdW  Elec       q    Type
REMARK                         _______ _______ _______ _____ _____    ______ ____
ROOT
ATOM      1  N   UNL     1      -4.007  12.118  19.115  0.00  0.00    +0.000 N 
ATOM      2  C   UNL     1      -3.653  13.132  20.017  0.00  0.00    +0.000 C 
ATOM      3  O   UNL     1      -4.421  13.840  20.653  0.00  0.00    +0.000 OA
ATOM      4  C   UNL     1      -2.059  13.157  20.090  0.00  0.00    +0.000 C 
ATOM      5  N   UNL     1      -1.639  14.545  19.727  0.00  0.00    +0.000 NA
ATOM      6  C   UNL     1      -0.370  14.826  20.475  0.00  0.00    +0.000 C 
ATOM      7  C   UNL     1       0.752  14.622  19.453  0.00  0.00    +0.000 C 
ATOM      8  C   UNL     1       2.155  15.008  19.885  0.00  0.00    +0.000 C 
ATOM      9  C   UNL     1       2.282  16.278  20.712  0.00  0.00    +0.000 C 
ATOM     10  C   UNL     1       1.098  16.595  21.618  0.00  0.00    +0.000 C 
ATOM     11  C   UNL     1      -0.276  16.272  21.010  0.00  0.00    +0.000 C 
ATOM     12  C   UNL     1      -0.434  13.810  21.633  0.00  0.00    +0.000 C 
ATOM     13  O   UNL     1       0.293  13.778  22.602  0.00  0.00    +0.000 OA
ATOM     14  N   UNL     1      -1.498  12.967  21.392  0.00  0.00    +0.000 N 
ATOM     15  C   UNL     1      -1.711  12.033  19.134  0.00  0.00    +0.000 A 
ATOM     16  C   UNL     1      -0.496  11.404  18.883  0.00  0.00    +0.000 A 
ATOM     17  C   UNL     1      -0.446  10.303  18.024  0.00  0.00    +0.000 A 
ATOM     18  C   UNL     1      -1.615   9.795  17.452  0.00  0.00    +0.000 A 
ATOM     19  C   UNL     1      -2.848  10.368  17.759  0.00  0.00    +0.000 A 
ATOM     20  C   UNL     1      -2.881  11.477  18.597  0.00  0.00    +0.000 A 
ATOM     21  H   UNL     1      -2.360  15.146  20.142  0.00  0.00    +0.000 HD
ENDROOT
BRANCH   1  23
ATOM     22  C   UNL     1      -6.023  12.343  17.722  0.00  0.00    +0.000 C 
ATOM     23  C   UNL     1      -5.359  11.665  18.916  0.00  0.00    +0.000 C 
ENDBRANCH   1  23
BRANCH  14  24
ATOM     24  C   UNL     1      -1.856  11.840  22.245  0.00  0.00    +0.000 C 
ATOM     25  C   UNL     1      -2.824  12.214  23.353  0.00  0.00    +0.000 C 
ENDBRANCH  14  24
TORSDOF 2
ENDMDL
MODEL 9
REMARK VINA RESULT:      -5.6      9.534     10.822
REMARK  Name = 
REMARK  4 active torsions:
REMARK  status: ('A' for Active; 'I' for Inactive)
REMARK    1  A    between atoms: C_1  and  C_2
REMARK    2  A    between atoms: C_2  and  N_3
REMARK    3  A    between atoms: N_16  and  C_17
REMARK    4  A    between atoms: C_17  and  C_18
REMARK                            x       y       z     vdW  Elec       q    Type
REMARK                         _______ _______ _______ _____ _____    ______ ____
ROOT
ATOM      1  N   UNL     1       5.490  15.227  19.869  0.00  0.00    +0.000 N 
ATOM      2  C   UNL     1       6.442  15.061  18.852  0.00  0.00    +0.000 C 
ATOM      3  O   UNL     1       6.271  15.262  17.658  0.00  0.00    +0.000 OA
ATOM      4  C   UNL     1       7.800  14.604  19.554  0.00  0.00    +0.000 C 
ATOM      5  N   UNL     1       8.188  13.306  18.921  0.00  0.00    +0.000 NA
ATOM      6  C   UNL     1       9.686  13.240  18.949  0.00  0.00    +0.000 C 
ATOM      7  C   UNL     1      10.026  12.332  20.134  0.00  0.00    +0.000 C 
ATOM      8  C   UNL     1      11.483  11.939  20.305  0.00  0.00    +0.000 C 
ATOM      9  C   UNL     1      12.251  11.622  19.031  0.00  0.00    +0.000 C 
ATOM     10  C   UNL     1      11.816  12.395  17.791  0.00  0.00    +0.000 C 
ATOM     11  C   UNL     1      10.300  12.617  17.676  0.00  0.00    +0.000 C 
ATOM     12  C   UNL     1      10.083  14.723  19.085  0.00  0.00    +0.000 C 
ATOM     13  O   UNL     1      11.200  15.182  18.975  0.00  0.00    +0.000 OA
ATOM     14  N   UNL     1       8.931  15.446  19.314  0.00  0.00    +0.000 N 
ATOM     15  C   UNL     1       7.379  14.590  21.010  0.00  0.00    +0.000 A 
ATOM     16  C   UNL     1       8.138  14.462  22.169  0.00  0.00    +0.000 A 
ATOM     17  C   UNL     1       7.528  14.591  23.419  0.00  0.00    +0.000 A 
ATOM     18  C   UNL     1       6.169  14.898  23.517  0.00  0.00    +0.000 A 
ATOM     19  C   UNL     1       5.415  15.106  22.364  0.00  0.00    +0.000 A 
ATOM     20  C   UNL     1       6.030  14.952  21.126  0.00  0.00    +0.000 A 
ATOM     21  H   UNL     1       7.920  13.413  17.937  0.00  0.00    +0.000 HD
ENDROOT
BRANCH   1  23
ATOM     22  C   UNL     1       3.146  14.760  19.280  0.00  0.00    +0.000 C 
ATOM     23  C   UNL     1       4.189  15.808  19.656  0.00  0.00    +0.000 C 
ENDBRANCH   1  23
BRANCH  14  24
ATOM     24  C   UNL     1       8.903  16.885  19.544  0.00  0.00    +0.000 C 
ATOM     25  C   UNL     1       8.934  17.695  18.260  0.00  0.00    +0.000 C 
ENDBRANCH  14  24
TORSDOF 2
ENDMDL
