MODEL 1
REMARK VINA RESULT:      -7.7      0.000      0.000
REMARK  Name = 
REMARK  8 active torsions:
REMARK  status: ('A' for Active; 'I' for Inactive)
REMARK    1  A    between atoms: C_1  and  O_2
REMARK    2  A    between atoms: O_2  and  C_3
REMARK    3  A    between atoms: C_6  and  O_7
REMARK    4  A    between atoms: O_7  and  C_8
REMARK    5  A    between atoms: C_9  and  N_10
REMARK    6  A    between atoms: C_11  and  C_13
REMARK    7  A    between atoms: C_22  and  O_23
REMARK    8  A    between atoms: O_23  and  C_24
REMARK                            x       y       z     vdW  Elec       q    Type
REMARK                         _______ _______ _______ _____ _____    ______ ____
ROOT
ATOM      1  N   UNL     1       3.897   4.485  17.630  0.00  0.00    +0.000 N 
ATOM      2  C   UNL     1       5.276   4.364  17.740  0.00  0.00    +0.000 C 
ATOM      3  O   UNL     1       5.939   4.112  18.735  0.00  0.00    +0.000 OA
ATOM      4  H   UNL     1       3.546   4.628  16.692  0.00  0.00    +0.000 HD
ENDROOT
BRANCH   2   5
ATOM      5  C   UNL     1       6.032   4.586  16.466  0.00  0.00    +0.000 A 
ATOM      6  C   UNL     1       5.570   3.859  15.346  0.00  0.00    +0.000 A 
ATOM      7  C   UNL     1       6.175   3.979  14.085  0.00  0.00    +0.000 A 
ATOM      8  C   UNL     1       5.849   3.122  13.022  0.00  0.00    +0.000 A 
ATOM      9  C   UNL     1       6.473   3.260  11.781  0.00  0.00    +0.000 A 
ATOM     10  C   UNL     1       7.369   4.304  11.565  0.00  0.00    +0.000 A 
ATOM     11  C   UNL     1       7.698   5.164  12.610  0.00  0.00    +0.000 A 
ATOM     12  C   UNL     1       7.151   4.970  13.889  0.00  0.00    +0.000 A 
ATOM     13  C   UNL     1       7.589   5.709  14.994  0.00  0.00    +0.000 A 
ATOM     14  C   UNL     1       7.098   5.486  16.296  0.00  0.00    +0.000 A 
BRANCH  14  15
ATOM     15  O   UNL     1       7.857   6.190  17.187  0.00  0.00    +0.000 OA
ATOM     16  C   UNL     1       7.540   7.509  17.582  0.00  0.00    +0.000 C 
ENDBRANCH  14  15
ENDBRANCH   2   5
BRANCH   1  21
ATOM     17  C   UNL     1       1.595   5.516  20.355  0.00  0.00    +0.000 A 
ATOM     18  C   UNL     1       0.798   4.389  20.519  0.00  0.00    +0.000 A 
ATOM     19  C   UNL     1       1.053   3.234  19.786  0.00  0.00    +0.000 A 
ATOM     20  C   UNL     1       2.117   3.175  18.878  0.00  0.00    +0.000 A 
ATOM     21  C   UNL     1       2.873   4.336  18.618  0.00  0.00    +0.000 A 
ATOM     22  C   UNL     1       2.617   5.490  19.400  0.00  0.00    +0.000 A 
BRANCH  17  24
ATOM     23  C   UNL     1       1.577   7.868  20.768  0.00  0.00    +0.000 C 
ATOM     24  O   UNL     1       1.269   6.547  21.189  0.00  0.00    +0.000 OA
ENDBRANCH  17  24
BRANCH  20  25
ATOM     25  O   UNL     1       2.433   2.008  18.253  0.00  0.00    +0.000 OA
ATOM     26  C   UNL     1       3.563   1.292  18.732  0.00  0.00    +0.000 C 
ENDBRANCH  20  25
ENDBRANCH   1  21
TORSDOF 5
ENDMDL
MODEL 2
REMARK VINA RESULT:      -7.7      3.665      6.409
REMARK  Name = 
REMARK  8 active torsions:
REMARK  status: ('A' for Active; 'I' for Inactive)
REMARK    1  A    between atoms: C_1  and  O_2
REMARK    2  A    between atoms: O_2  and  C_3
REMARK    3  A    between atoms: C_6  and  O_7
REMARK    4  A    between atoms: O_7  and  C_8
REMARK    5  A    between atoms: C_9  and  N_10
REMARK    6  A    between atoms: C_11  and  C_13
REMARK    7  A    between atoms: C_22  and  O_23
REMARK    8  A    between atoms: O_23  and  C_24
REMARK                            x       y       z     vdW  Elec       q    Type
REMARK                         _______ _______ _______ _____ _____    ______ ____
ROOT
ATOM      1  N   UNL     1       1.067   8.907  19.400  0.00  0.00    +0.000 N 
ATOM      2  C   UNL     1       1.971   8.872  18.347  0.00  0.00    +0.000 C 
ATOM      3  O   UNL     1       2.168   9.718  17.487  0.00  0.00    +0.000 OA
ATOM      4  H   UNL     1       1.117   8.127  20.042  0.00  0.00    +0.000 HD
ENDROOT
BRANCH   2   5
ATOM      5  C   UNL     1       2.791   7.622  18.261  0.00  0.00    +0.000 A 
ATOM      6  C   UNL     1       3.671   7.541  17.158  0.00  0.00    +0.000 A 
ATOM      7  C   UNL     1       4.510   6.434  16.959  0.00  0.00    +0.000 A 
ATOM      8  C   UNL     1       5.238   6.259  15.772  0.00  0.00    +0.000 A 
ATOM      9  C   UNL     1       6.058   5.143  15.599  0.00  0.00    +0.000 A 
ATOM     10  C   UNL     1       6.220   4.231  16.638  0.00  0.00    +0.000 A 
ATOM     11  C   UNL     1       5.505   4.394  17.823  0.00  0.00    +0.000 A 
ATOM     12  C   UNL     1       4.602   5.459  17.966  0.00  0.00    +0.000 A 
ATOM     13  C   UNL     1       3.749   5.553  19.072  0.00  0.00    +0.000 A 
ATOM     14  C   UNL     1       2.793   6.580  19.205  0.00  0.00    +0.000 A 
BRANCH  14  15
ATOM     15  O   UNL     1       1.969   6.291  20.256  0.00  0.00    +0.000 OA
ATOM     16  C   UNL     1       1.750   4.972  20.710  0.00  0.00    +0.000 C 
ENDBRANCH  14  15
ENDBRANCH   2   5
BRANCH   1  21
ATOM     17  C   UNL     1      -0.492  11.452  21.610  0.00  0.00    +0.000 A 
ATOM     18  C   UNL     1      -1.431  12.043  20.773  0.00  0.00    +0.000 A 
ATOM     19  C   UNL     1      -1.625  11.562  19.481  0.00  0.00    +0.000 A 
ATOM     20  C   UNL     1      -0.890  10.472  18.999  0.00  0.00    +0.000 A 
ATOM     21  C   UNL     1       0.140   9.924  19.791  0.00  0.00    +0.000 A 
ATOM     22  C   UNL     1       0.296  10.408  21.113  0.00  0.00    +0.000 A 
BRANCH  17  24
ATOM     23  C   UNL     1      -1.287  13.108  23.135  0.00  0.00    +0.000 C 
ATOM     24  O   UNL     1      -0.461  11.985  22.867  0.00  0.00    +0.000 OA
ENDBRANCH  17  24
BRANCH  20  25
ATOM     25  O   UNL     1      -1.166   9.934  17.780  0.00  0.00    +0.000 OA
ATOM     26  C   UNL     1      -2.500  10.043  17.301  0.00  0.00    +0.000 C 
ENDBRANCH  20  25
ENDBRANCH   1  21
TORSDOF 5
ENDMDL
MODEL 3
REMARK VINA RESULT:      -7.5      3.645      6.532
REMARK  Name = 
REMARK  8 active torsions:
REMARK  status: ('A' for Active; 'I' for Inactive)
REMARK    1  A    between atoms: C_1  and  O_2
REMARK    2  A    between atoms: O_2  and  C_3
REMARK    3  A    between atoms: C_6  and  O_7
REMARK    4  A    between atoms: O_7  and  C_8
REMARK    5  A    between atoms: C_9  and  N_10
REMARK    6  A    between atoms: C_11  and  C_13
REMARK    7  A    between atoms: C_22  and  O_23
REMARK    8  A    between atoms: O_23  and  C_24
REMARK                            x       y       z     vdW  Elec       q    Type
REMARK                         _______ _______ _______ _____ _____    ______ ____
ROOT
ATOM      1  N   UNL     1       1.041   8.988  19.332  0.00  0.00    +0.000 N 
ATOM      2  C   UNL     1       1.945   8.895  18.282  0.00  0.00    +0.000 C 
ATOM      3  O   UNL     1       2.134   9.688  17.371  0.00  0.00    +0.000 OA
ATOM      4  H   UNL     1       1.097   8.249  20.021  0.00  0.00    +0.000 HD
ENDROOT
BRANCH   2   5
ATOM      5  C   UNL     1       2.776   7.649  18.273  0.00  0.00    +0.000 A 
ATOM      6  C   UNL     1       3.692   7.533  17.204  0.00  0.00    +0.000 A 
ATOM      7  C   UNL     1       4.544   6.424  17.077  0.00  0.00    +0.000 A 
ATOM      8  C   UNL     1       5.313   6.210  15.923  0.00  0.00    +0.000 A 
ATOM      9  C   UNL     1       6.146   5.093  15.821  0.00  0.00    +0.000 A 
ATOM     10  C   UNL     1       6.279   4.224  16.900  0.00  0.00    +0.000 A 
ATOM     11  C   UNL     1       5.524   4.429  18.053  0.00  0.00    +0.000 A 
ATOM     12  C   UNL     1       4.610   5.491  18.124  0.00  0.00    +0.000 A 
ATOM     13  C   UNL     1       3.719   5.622  19.197  0.00  0.00    +0.000 A 
ATOM     14  C   UNL     1       2.752   6.645  19.257  0.00  0.00    +0.000 A 
BRANCH  14  15
ATOM     15  O   UNL     1       1.896   6.392  20.291  0.00  0.00    +0.000 OA
ATOM     16  C   UNL     1       1.554   5.081  20.690  0.00  0.00    +0.000 C 
ENDBRANCH  14  15
ENDBRANCH   2   5
BRANCH   1  21
ATOM     17  C   UNL     1      -1.799  11.324  18.814  0.00  0.00    +0.000 A 
ATOM     18  C   UNL     1      -1.952  11.895  20.072  0.00  0.00    +0.000 A 
ATOM     19  C   UNL     1      -1.071  11.579  21.101  0.00  0.00    +0.000 A 
ATOM     20  C   UNL     1      -0.008  10.690  20.895  0.00  0.00    +0.000 A 
ATOM     21  C   UNL     1       0.105  10.019  19.660  0.00  0.00    +0.000 A 
ATOM     22  C   UNL     1      -0.783  10.382  18.618  0.00  0.00    +0.000 A 
BRANCH  17  24
ATOM     23  C   UNL     1      -2.745  11.124  16.631  0.00  0.00    +0.000 C 
ATOM     24  O   UNL     1      -2.694  11.779  17.889  0.00  0.00    +0.000 OA
ENDBRANCH  17  24
BRANCH  20  25
ATOM     25  O   UNL     1       0.917  10.476  21.869  0.00  0.00    +0.000 OA
ATOM     26  C   UNL     1       0.646   9.453  22.817  0.00  0.00    +0.000 C 
ENDBRANCH  20  25
ENDBRANCH   1  21
TORSDOF 5
ENDMDL
MODEL 4
REMARK VINA RESULT:      -7.4      3.782      7.132
REMARK  Name = 
REMARK  8 active torsions:
REMARK  status: ('A' for Active; 'I' for Inactive)
REMARK    1  A    between atoms: C_1  and  O_2
REMARK    2  A    between atoms: O_2  and  C_3
REMARK    3  A    between atoms: C_6  and  O_7
REMARK    4  A    between atoms: O_7  and  C_8
REMARK    5  A    between atoms: C_9  and  N_10
REMARK    6  A    between atoms: C_11  and  C_13
REMARK    7  A    between atoms: C_22  and  O_23
REMARK    8  A    between atoms: O_23  and  C_24
REMARK                            x       y       z     vdW  Elec       q    Type
REMARK                         _______ _______ _______ _____ _____    ______ ____
ROOT
ATOM      1  N   UNL     1       1.222   8.940  19.365  0.00  0.00    +0.000 N 
ATOM      2  C   UNL     1       2.068   8.474  18.367  0.00  0.00    +0.000 C 
ATOM      3  O   UNL     1       2.380   9.023  17.321  0.00  0.00    +0.000 OA
ATOM      4  H   UNL     1       1.155   8.354  20.188  0.00  0.00    +0.000 HD
ENDROOT
BRANCH   2   5
ATOM      5  C   UNL     1       2.652   7.118  18.618  0.00  0.00    +0.000 A 
ATOM      6  C   UNL     1       2.047   6.373  19.655  0.00  0.00    +0.000 A 
ATOM      7  C   UNL     1       2.482   5.082  19.990  0.00  0.00    +0.000 A 
ATOM      8  C   UNL     1       2.019   4.418  21.137  0.00  0.00    +0.000 A 
ATOM      9  C   UNL     1       2.477   3.137  21.450  0.00  0.00    +0.000 A 
ATOM     10  C   UNL     1       3.340   2.475  20.581  0.00  0.00    +0.000 A 
ATOM     11  C   UNL     1       3.804   3.121  19.438  0.00  0.00    +0.000 A 
ATOM     12  C   UNL     1       3.428   4.447  19.169  0.00  0.00    +0.000 A 
ATOM     13  C   UNL     1       4.008   5.177  18.124  0.00  0.00    +0.000 A 
ATOM     14  C   UNL     1       3.689   6.527  17.877  0.00  0.00    +0.000 A 
BRANCH  14  15
ATOM     15  O   UNL     1       4.560   7.030  16.952  0.00  0.00    +0.000 OA
ATOM     16  C   UNL     1       5.209   6.215  15.997  0.00  0.00    +0.000 C 
ENDBRANCH  14  15
ENDBRANCH   2   5
BRANCH   1  21
ATOM     17  C   UNL     1       0.243  12.222  20.799  0.00  0.00    +0.000 A 
ATOM     18  C   UNL     1      -0.632  12.720  19.841  0.00  0.00    +0.000 A 
ATOM     19  C   UNL     1      -0.980  11.949  18.736  0.00  0.00    +0.000 A 
ATOM     20  C   UNL     1      -0.468  10.657  18.567  0.00  0.00    +0.000 A 
ATOM     21  C   UNL     1       0.502  10.171  19.469  0.00  0.00    +0.000 A 
ATOM     22  C   UNL     1       0.815  10.960  20.603  0.00  0.00    +0.000 A 
BRANCH  17  24
ATOM     23  C   UNL     1      -0.696  13.443  22.623  0.00  0.00    +0.000 C 
ATOM     24  O   UNL     1       0.437  13.062  21.858  0.00  0.00    +0.000 OA
ENDBRANCH  17  24
BRANCH  20  25
ATOM     25  O   UNL     1      -0.902   9.866  17.549  0.00  0.00    +0.000 OA
ATOM     26  C   UNL     1      -2.275   9.951  17.192  0.00  0.00    +0.000 C 
ENDBRANCH  20  25
ENDBRANCH   1  21
TORSDOF 5
ENDMDL
MODEL 5
REMARK VINA RESULT:      -7.4      0.939      1.125
REMARK  Name = 
REMARK  8 active torsions:
REMARK  status: ('A' for Active; 'I' for Inactive)
REMARK    1  A    between atoms: C_1  and  O_2
REMARK    2  A    between atoms: O_2  and  C_3
REMARK    3  A    between atoms: C_6  and  O_7
REMARK    4  A    between atoms: O_7  and  C_8
REMARK    5  A    between atoms: C_9  and  N_10
REMARK    6  A    between atoms: C_11  and  C_13
REMARK    7  A    between atoms: C_22  and  O_23
REMARK    8  A    between atoms: O_23  and  C_24
REMARK                            x       y       z     vdW  Elec       q    Type
REMARK                         _______ _______ _______ _____ _____    ______ ____
ROOT
ATOM      1  N   UNL     1       3.880   5.297  17.992  0.00  0.00    +0.000 N 
ATOM      2  C   UNL     1       5.080   4.598  17.989  0.00  0.00    +0.000 C 
ATOM      3  O   UNL     1       5.585   3.954  18.896  0.00  0.00    +0.000 OA
ATOM      4  H   UNL     1       3.611   5.705  17.105  0.00  0.00    +0.000 HD
ENDROOT
BRANCH   2   5
ATOM      5  C   UNL     1       5.844   4.663  16.702  0.00  0.00    +0.000 A 
ATOM      6  C   UNL     1       5.230   4.039  15.593  0.00  0.00    +0.000 A 
ATOM      7  C   UNL     1       5.826   4.034  14.322  0.00  0.00    +0.000 A 
ATOM      8  C   UNL     1       5.320   3.256  13.270  0.00  0.00    +0.000 A 
ATOM      9  C   UNL     1       5.939   3.265  12.019  0.00  0.00    +0.000 A 
ATOM     10  C   UNL     1       7.020   4.109  11.783  0.00  0.00    +0.000 A 
ATOM     11  C   UNL     1       7.530   4.890  12.819  0.00  0.00    +0.000 A 
ATOM     12  C   UNL     1       6.976   4.810  14.106  0.00  0.00    +0.000 A 
ATOM     13  C   UNL     1       7.570   5.450  15.201  0.00  0.00    +0.000 A 
ATOM     14  C   UNL     1       7.065   5.333  16.511  0.00  0.00    +0.000 A 
BRANCH  14  15
ATOM     15  O   UNL     1       7.963   5.874  17.387  0.00  0.00    +0.000 OA
ATOM     16  C   UNL     1       7.749   7.115  18.026  0.00  0.00    +0.000 C 
ENDBRANCH  14  15
ENDBRANCH   2   5
BRANCH   1  21
ATOM     17  C   UNL     1       1.745   7.089  20.445  0.00  0.00    +0.000 A 
ATOM     18  C   UNL     1       0.922   6.077  20.924  0.00  0.00    +0.000 A 
ATOM     19  C   UNL     1       1.105   4.763  20.506  0.00  0.00    +0.000 A 
ATOM     20  C   UNL     1       2.122   4.428  19.603  0.00  0.00    +0.000 A 
ATOM     21  C   UNL     1       2.901   5.451  19.023  0.00  0.00    +0.000 A 
ATOM     22  C   UNL     1       2.718   6.775  19.490  0.00  0.00    +0.000 A 
BRANCH  17  24
ATOM     23  C   UNL     1       0.192   8.555  21.514  0.00  0.00    +0.000 C 
ATOM     24  O   UNL     1       1.492   8.313  20.995  0.00  0.00    +0.000 OA
ENDBRANCH  17  24
BRANCH  20  25
ATOM     25  O   UNL     1       2.371   3.127  19.289  0.00  0.00    +0.000 OA
ATOM     26  C   UNL     1       1.371   2.426  18.562  0.00  0.00    +0.000 C 
ENDBRANCH  20  25
ENDBRANCH   1  21
TORSDOF 5
ENDMDL
MODEL 6
REMARK VINA RESULT:      -7.4      3.985      6.918
REMARK  Name = 
REMARK  8 active torsions:
REMARK  status: ('A' for Active; 'I' for Inactive)
REMARK    1  A    between atoms: C_1  and  O_2
REMARK    2  A    between atoms: O_2  and  C_3
REMARK    3  A    between atoms: C_6  and  O_7
REMARK    4  A    between atoms: O_7  and  C_8
REMARK    5  A    between atoms: C_9  and  N_10
REMARK    6  A    between atoms: C_11  and  C_13
REMARK    7  A    between atoms: C_22  and  O_23
REMARK    8  A    between atoms: O_23  and  C_24
REMARK                            x       y       z     vdW  Elec       q    Type
REMARK                         _______ _______ _______ _____ _____    ______ ____
ROOT
ATOM      1  N   UNL     1       1.129   9.160  18.306  0.00  0.00    +0.000 N 
ATOM      2  C   UNL     1       1.617   8.418  19.374  0.00  0.00    +0.000 C 
ATOM      3  O   UNL     1       1.428   8.593  20.569  0.00  0.00    +0.000 OA
ATOM      4  H   UNL     1       1.351   8.799  17.387  0.00  0.00    +0.000 HD
ENDROOT
BRANCH   2   5
ATOM      5  C   UNL     1       2.497   7.268  18.992  0.00  0.00    +0.000 A 
ATOM      6  C   UNL     1       3.319   7.475  17.862  0.00  0.00    +0.000 A 
ATOM      7  C   UNL     1       4.204   6.488  17.399  0.00  0.00    +0.000 A 
ATOM      8  C   UNL     1       4.875   6.612  16.173  0.00  0.00    +0.000 A 
ATOM      9  C   UNL     1       5.743   5.610  15.734  0.00  0.00    +0.000 A 
ATOM     10  C   UNL     1       6.009   4.513  16.549  0.00  0.00    +0.000 A 
ATOM     11  C   UNL     1       5.351   4.380  17.771  0.00  0.00    +0.000 A 
ATOM     12  C   UNL     1       4.401   5.333  18.173  0.00  0.00    +0.000 A 
ATOM     13  C   UNL     1       3.604   5.140  19.308  0.00  0.00    +0.000 A 
ATOM     14  C   UNL     1       2.604   6.055  19.694  0.00  0.00    +0.000 A 
BRANCH  14  15
ATOM     15  O   UNL     1       1.854   5.502  20.693  0.00  0.00    +0.000 OA
ATOM     16  C   UNL     1       1.423   4.157  20.665  0.00  0.00    +0.000 C 
ENDBRANCH  14  15
ENDBRANCH   2   5
BRANCH   1  21
ATOM     17  C   UNL     1      -1.995  11.087  17.745  0.00  0.00    +0.000 A 
ATOM     18  C   UNL     1      -1.685  12.328  18.289  0.00  0.00    +0.000 A 
ATOM     19  C   UNL     1      -0.410  12.582  18.784  0.00  0.00    +0.000 A 
ATOM     20  C   UNL     1       0.590  11.602  18.739  0.00  0.00    +0.000 A 
ATOM     21  C   UNL     1       0.271  10.304  18.289  0.00  0.00    +0.000 A 
ATOM     22  C   UNL     1      -1.023  10.080  17.760  0.00  0.00    +0.000 A 
BRANCH  17  24
ATOM     23  C   UNL     1      -3.410  10.896  15.831  0.00  0.00    +0.000 C 
ATOM     24  O   UNL     1      -3.260  11.008  17.239  0.00  0.00    +0.000 OA
ENDBRANCH  17  24
BRANCH  20  25
ATOM     25  O   UNL     1       1.865  11.893  19.116  0.00  0.00    +0.000 OA
ATOM     26  C   UNL     1       2.614  12.765  18.280  0.00  0.00    +0.000 C 
ENDBRANCH  20  25
ENDBRANCH   1  21
TORSDOF 5
ENDMDL
MODEL 7
REMARK VINA RESULT:      -7.3      2.845      8.503
REMARK  Name = 
REMARK  8 active torsions:
REMARK  status: ('A' for Active; 'I' for Inactive)
REMARK    1  A    between atoms: C_1  and  O_2
REMARK    2  A    between atoms: O_2  and  C_3
REMARK    3  A    between atoms: C_6  and  O_7
REMARK    4  A    between atoms: O_7  and  C_8
REMARK    5  A    between atoms: C_9  and  N_10
REMARK    6  A    between atoms: C_11  and  C_13
REMARK    7  A    between atoms: C_22  and  O_23
REMARK    8  A    between atoms: O_23  and  C_24
REMARK                            x       y       z     vdW  Elec       q    Type
REMARK                         _______ _______ _______ _____ _____    ______ ____
ROOT
ATOM      1  N   UNL     1       2.587   7.079  18.525  0.00  0.00    +0.000 N 
ATOM      2  C   UNL     1       2.040   7.157  19.799  0.00  0.00    +0.000 C 
ATOM      3  O   UNL     1       2.014   6.298  20.668  0.00  0.00    +0.000 OA
ATOM      4  H   UNL     1       2.562   7.936  17.987  0.00  0.00    +0.000 HD
ENDROOT
BRANCH   2   5
ATOM      5  C   UNL     1       1.391   8.467  20.127  0.00  0.00    +0.000 A 
ATOM      6  C   UNL     1       0.729   8.526  21.374  0.00  0.00    +0.000 A 
ATOM      7  C   UNL     1       0.089   9.693  21.818  0.00  0.00    +0.000 A 
ATOM      8  C   UNL     1      -0.731   9.702  22.957  0.00  0.00    +0.000 A 
ATOM      9  C   UNL     1      -1.362  10.877  23.370  0.00  0.00    +0.000 A 
ATOM     10  C   UNL     1      -1.119  12.070  22.696  0.00  0.00    +0.000 A 
ATOM     11  C   UNL     1      -0.305  12.076  21.566  0.00  0.00    +0.000 A 
ATOM     12  C   UNL     1       0.252  10.880  21.085  0.00  0.00    +0.000 A 
ATOM     13  C   UNL     1       0.931  10.827  19.862  0.00  0.00    +0.000 A 
ATOM     14  C   UNL     1       1.443   9.625  19.334  0.00  0.00    +0.000 A 
BRANCH  14  15
ATOM     15  O   UNL     1       1.850   9.840  18.047  0.00  0.00    +0.000 OA
ATOM     16  C   UNL     1       2.478  11.038  17.638  0.00  0.00    +0.000 C 
ENDBRANCH  14  15
ENDBRANCH   2   5
BRANCH   1  21
ATOM     17  C   UNL     1       5.404   5.349  16.834  0.00  0.00    +0.000 A 
ATOM     18  C   UNL     1       4.935   4.045  16.725  0.00  0.00    +0.000 A 
ATOM     19  C   UNL     1       3.646   3.724  17.138  0.00  0.00    +0.000 A 
ATOM     20  C   UNL     1       2.790   4.701  17.661  0.00  0.00    +0.000 A 
ATOM     21  C   UNL     1       3.278   6.006  17.879  0.00  0.00    +0.000 A 
ATOM     22  C   UNL     1       4.582   6.318  17.420  0.00  0.00    +0.000 A 
BRANCH  17  24
ATOM     23  C   UNL     1       6.988   4.867  15.114  0.00  0.00    +0.000 C 
ATOM     24  O   UNL     1       6.659   5.528  16.327  0.00  0.00    +0.000 OA
ENDBRANCH  17  24
BRANCH  20  25
ATOM     25  O   UNL     1       1.494   4.405  17.953  0.00  0.00    +0.000 OA
ATOM     26  C   UNL     1       1.237   3.180  18.626  0.00  0.00    +0.000 C 
ENDBRANCH  20  25
ENDBRANCH   1  21
TORSDOF 5
ENDMDL
MODEL 8
REMARK VINA RESULT:      -7.3      3.499      6.426
REMARK  Name = 
REMARK  8 active torsions:
REMARK  status: ('A' for Active; 'I' for Inactive)
REMARK    1  A    between atoms: C_1  and  O_2
REMARK    2  A    between atoms: O_2  and  C_3
REMARK    3  A    between atoms: C_6  and  O_7
REMARK    4  A    between atoms: O_7  and  C_8
REMARK    5  A    between atoms: C_9  and  N_10
REMARK    6  A    between atoms: C_11  and  C_13
REMARK    7  A    between atoms: C_22  and  O_23
REMARK    8  A    between atoms: O_23  and  C_24
REMARK                            x       y       z     vdW  Elec       q    Type
REMARK                         _______ _______ _______ _____ _____    ______ ____
ROOT
ATOM      1  N   UNL     1       1.264   8.577  19.077  0.00  0.00    +0.000 N 
ATOM      2  C   UNL     1       2.191   8.375  18.063  0.00  0.00    +0.000 C 
ATOM      3  O   UNL     1       2.586   9.173  17.226  0.00  0.00    +0.000 OA
ATOM      4  H   UNL     1       1.134   7.797  19.709  0.00  0.00    +0.000 HD
ENDROOT
BRANCH   2   5
ATOM      5  C   UNL     1       2.760   6.991  17.995  0.00  0.00    +0.000 A 
ATOM      6  C   UNL     1       1.849   5.942  18.255  0.00  0.00    +0.000 A 
ATOM      7  C   UNL     1       2.240   4.595  18.212  0.00  0.00    +0.000 A 
ATOM      8  C   UNL     1       1.397   3.565  18.657  0.00  0.00    +0.000 A 
ATOM      9  C   UNL     1       1.816   2.234  18.610  0.00  0.00    +0.000 A 
ATOM     10  C   UNL     1       3.048   1.911  18.047  0.00  0.00    +0.000 A 
ATOM     11  C   UNL     1       3.893   2.925  17.599  0.00  0.00    +0.000 A 
ATOM     12  C   UNL     1       3.521   4.272  17.735  0.00  0.00    +0.000 A 
ATOM     13  C   UNL     1       4.414   5.312  17.452  0.00  0.00    +0.000 A 
ATOM     14  C   UNL     1       4.081   6.668  17.641  0.00  0.00    +0.000 A 
BRANCH  14  15
ATOM     15  O   UNL     1       5.206   7.429  17.497  0.00  0.00    +0.000 OA
ATOM     16  C   UNL     1       6.468   6.871  17.197  0.00  0.00    +0.000 C 
ENDBRANCH  14  15
ENDBRANCH   2   5
BRANCH   1  21
ATOM     17  C   UNL     1      -1.142  11.375  18.669  0.00  0.00    +0.000 A 
ATOM     18  C   UNL     1      -1.154  11.949  19.935  0.00  0.00    +0.000 A 
ATOM     19  C   UNL     1      -0.308  11.473  20.932  0.00  0.00    +0.000 A 
ATOM     20  C   UNL     1       0.577  10.417  20.685  0.00  0.00    +0.000 A 
ATOM     21  C   UNL     1       0.533   9.750  19.442  0.00  0.00    +0.000 A 
ATOM     22  C   UNL     1      -0.312  10.274  18.433  0.00  0.00    +0.000 A 
BRANCH  17  24
ATOM     23  C   UNL     1      -3.314  11.531  17.689  0.00  0.00    +0.000 C 
ATOM     24  O   UNL     1      -1.973  11.991  17.778  0.00  0.00    +0.000 OA
ENDBRANCH  17  24
BRANCH  20  25
ATOM     25  O   UNL     1       1.481  10.033  21.626  0.00  0.00    +0.000 OA
ATOM     26  C   UNL     1       1.007   9.244  22.709  0.00  0.00    +0.000 C 
ENDBRANCH  20  25
ENDBRANCH   1  21
TORSDOF 5
ENDMDL
MODEL 9
REMARK VINA RESULT:      -7.2      3.887      6.777
REMARK  Name = 
REMARK  8 active torsions:
REMARK  status: ('A' for Active; 'I' for Inactive)
REMARK    1  A    between atoms: C_1  and  O_2
REMARK    2  A    between atoms: O_2  and  C_3
REMARK    3  A    between atoms: C_6  and  O_7
REMARK    4  A    between atoms: O_7  and  C_8
REMARK    5  A    between atoms: C_9  and  N_10
REMARK    6  A    between atoms: C_11  and  C_13
REMARK    7  A    between atoms: C_22  and  O_23
REMARK    8  A    between atoms: O_23  and  C_24
REMARK                            x       y       z     vdW  Elec       q    Type
REMARK                         _______ _______ _______ _____ _____    ______ ____
ROOT
ATOM      1  N   UNL     1       1.377   9.322  18.435  0.00  0.00    +0.000 N 
ATOM      2  C   UNL     1       1.724   8.411  19.424  0.00  0.00    +0.000 C 
ATOM      3  O   UNL     1       1.501   8.472  20.625  0.00  0.00    +0.000 OA
ATOM      4  H   UNL     1       1.598   9.042  17.489  0.00  0.00    +0.000 HD
ENDROOT
BRANCH   2   5
ATOM      5  C   UNL     1       2.481   7.212  18.941  0.00  0.00    +0.000 A 
ATOM      6  C   UNL     1       3.359   7.440  17.857  0.00  0.00    +0.000 A 
ATOM      7  C   UNL     1       4.141   6.411  17.310  0.00  0.00    +0.000 A 
ATOM      8  C   UNL     1       4.863   6.583  16.119  0.00  0.00    +0.000 A 
ATOM      9  C   UNL     1       5.626   5.538  15.594  0.00  0.00    +0.000 A 
ATOM     10  C   UNL     1       5.739   4.339  16.292  0.00  0.00    +0.000 A 
ATOM     11  C   UNL     1       5.029   4.157  17.477  0.00  0.00    +0.000 A 
ATOM     12  C   UNL     1       4.180   5.166  17.959  0.00  0.00    +0.000 A 
ATOM     13  C   UNL     1       3.329   4.950  19.049  0.00  0.00    +0.000 A 
ATOM     14  C   UNL     1       2.426   5.928  19.509  0.00  0.00    +0.000 A 
BRANCH  14  15
ATOM     15  O   UNL     1       1.585   5.365  20.427  0.00  0.00    +0.000 OA
ATOM     16  C   UNL     1       1.031   4.076  20.260  0.00  0.00    +0.000 C 
ENDBRANCH  14  15
ENDBRANCH   2   5
BRANCH   1  21
ATOM     17  C   UNL     1       0.883  12.962  18.980  0.00  0.00    +0.000 A 
ATOM     18  C   UNL     1      -0.446  13.143  18.616  0.00  0.00    +0.000 A 
ATOM     19  C   UNL     1      -1.233  12.053  18.258  0.00  0.00    +0.000 A 
ATOM     20  C   UNL     1      -0.711  10.753  18.262  0.00  0.00    +0.000 A 
ATOM     21  C   UNL     1       0.661  10.556  18.524  0.00  0.00    +0.000 A 
ATOM     22  C   UNL     1       1.433  11.676  18.919  0.00  0.00    +0.000 A 
BRANCH  17  24
ATOM     23  C   UNL     1       2.922  14.091  19.498  0.00  0.00    +0.000 C 
ATOM     24  O   UNL     1       1.508  14.111  19.372  0.00  0.00    +0.000 OA
ENDBRANCH  17  24
BRANCH  20  25
ATOM     25  O   UNL     1      -1.515   9.681  18.024  0.00  0.00    +0.000 OA
ATOM     26  C   UNL     1      -2.873   9.941  17.692  0.00  0.00    +0.000 C 
ENDBRANCH  20  25
ENDBRANCH   1  21
TORSDOF 5
ENDMDL
