MODEL 1
REMARK VINA RESULT:      -7.5      0.000      0.000
REMARK  Name = 
REMARK  2 active torsions:
REMARK  status: ('A' for Active; 'I' for Inactive)
REMARK    1  A    between atoms: C_1  and  C_2
REMARK    2  A    between atoms: P_15  and  O_17
REMARK                            x       y       z     vdW  Elec       q    Type
REMARK                         _______ _______ _______ _____ _____    ______ ____
ROOT
ATOM      1  C   UNL     1       1.066   7.878  21.149  0.00  0.00    +0.000 C 
ATOM      2  C   UNL     1       1.802   6.786  20.429  0.00  0.00    +0.000 A 
ATOM      3  C   UNL     1       1.712   5.465  20.873  0.00  0.00    +0.000 A 
ATOM      4  C   UNL     1       2.375   4.455  20.187  0.00  0.00    +0.000 A 
ATOM      5  C   UNL     1       3.145   4.754  19.054  0.00  0.00    +0.000 A 
ATOM      6  C   UNL     1       3.255   6.069  18.593  0.00  0.00    +0.000 A 
ATOM      7  C   UNL     1       2.569   7.078  19.288  0.00  0.00    +0.000 A 
ATOM      8  N   UNL     1       3.988   6.384  17.433  0.00  0.00    +0.000 N 
ATOM      9  C   UNL     1       4.747   5.543  16.597  0.00  0.00    +0.000 A 
ATOM     10  C   UNL     1       5.414   6.078  15.485  0.00  0.00    +0.000 A 
ATOM     11  C   UNL     1       6.161   5.261  14.631  0.00  0.00    +0.000 A 
ATOM     12  C   UNL     1       6.247   3.893  14.869  0.00  0.00    +0.000 A 
ATOM     13  C   UNL     1       5.579   3.344  15.958  0.00  0.00    +0.000 A 
ATOM     14  C   UNL     1       4.829   4.162  16.818  0.00  0.00    +0.000 A 
ATOM     15  P   UNL     1       3.994   3.478  18.197  0.00  0.00    +0.000 P 
ATOM     16  O   UNL     1       3.198   2.221  17.959  0.00  0.00    +0.000 OA
ATOM     17  H   UNL     1       4.081   7.376  17.239  0.00  0.00    +0.000 HD
ENDROOT
BRANCH  15  18
ATOM     18  O   UNL     1       5.195   3.088  19.225  0.00  0.00    +0.000 OA
ATOM     19  H   UNL     1       5.456   3.848  19.775  0.00  0.00    +0.000 HD
ENDBRANCH  15  18
TORSDOF 1
ENDMDL
MODEL 2
REMARK VINA RESULT:      -7.2      2.158      5.563
REMARK  Name = 
REMARK  2 active torsions:
REMARK  status: ('A' for Active; 'I' for Inactive)
REMARK    1  A    between atoms: C_1  and  C_2
REMARK    2  A    between atoms: P_15  and  O_17
REMARK                            x       y       z     vdW  Elec       q    Type
REMARK                         _______ _______ _______ _____ _____    ______ ____
ROOT
ATOM      1  C   UNL     1       7.023   4.768  13.980  0.00  0.00    +0.000 C 
ATOM      2  C   UNL     1       6.150   5.033  15.171  0.00  0.00    +0.000 A 
ATOM      3  C   UNL     1       6.233   6.252  15.847  0.00  0.00    +0.000 A 
ATOM      4  C   UNL     1       5.403   6.501  16.934  0.00  0.00    +0.000 A 
ATOM      5  C   UNL     1       4.486   5.531  17.364  0.00  0.00    +0.000 A 
ATOM      6  C   UNL     1       4.388   4.301  16.706  0.00  0.00    +0.000 A 
ATOM      7  C   UNL     1       5.223   4.068  15.602  0.00  0.00    +0.000 A 
ATOM      8  N   UNL     1       3.445   3.330  17.095  0.00  0.00    +0.000 N 
ATOM      9  C   UNL     1       2.527   3.352  18.162  0.00  0.00    +0.000 A 
ATOM     10  C   UNL     1       1.677   2.256  18.376  0.00  0.00    +0.000 A 
ATOM     11  C   UNL     1       0.745   2.260  19.419  0.00  0.00    +0.000 A 
ATOM     12  C   UNL     1       0.640   3.363  20.259  0.00  0.00    +0.000 A 
ATOM     13  C   UNL     1       1.464   4.464  20.051  0.00  0.00    +0.000 A 
ATOM     14  C   UNL     1       2.402   4.462  19.007  0.00  0.00    +0.000 A 
ATOM     15  P   UNL     1       3.449   5.841  18.746  0.00  0.00    +0.000 P 
ATOM     16  O   UNL     1       2.805   7.203  18.776  0.00  0.00    +0.000 OA
ATOM     17  H   UNL     1       3.520   2.441  16.614  0.00  0.00    +0.000 HD
ENDROOT
BRANCH  15  18
ATOM     18  O   UNL     1       4.488   5.783  19.999  0.00  0.00    +0.000 OA
ATOM     19  H   UNL     1       4.981   6.618  20.094  0.00  0.00    +0.000 HD
ENDBRANCH  15  18
TORSDOF 1
ENDMDL
MODEL 3
REMARK VINA RESULT:      -7.2      2.113      5.598
REMARK  Name = 
REMARK  2 active torsions:
REMARK  status: ('A' for Active; 'I' for Inactive)
REMARK    1  A    between atoms: C_1  and  C_2
REMARK    2  A    between atoms: P_15  and  O_17
REMARK                            x       y       z     vdW  Elec       q    Type
REMARK                         _______ _______ _______ _____ _____    ______ ____
ROOT
ATOM      1  C   UNL     1       6.565   4.165  13.164  0.00  0.00    +0.000 C 
ATOM      2  C   UNL     1       6.202   4.219  14.618  0.00  0.00    +0.000 A 
ATOM      3  C   UNL     1       7.162   4.565  15.571  0.00  0.00    +0.000 A 
ATOM      4  C   UNL     1       6.813   4.639  16.914  0.00  0.00    +0.000 A 
ATOM      5  C   UNL     1       5.502   4.357  17.323  0.00  0.00    +0.000 A 
ATOM      6  C   UNL     1       4.524   4.003  16.388  0.00  0.00    +0.000 A 
ATOM      7  C   UNL     1       4.887   3.946  15.034  0.00  0.00    +0.000 A 
ATOM      8  N   UNL     1       3.192   3.758  16.773  0.00  0.00    +0.000 N 
ATOM      9  C   UNL     1       2.617   3.754  18.059  0.00  0.00    +0.000 A 
ATOM     10  C   UNL     1       1.252   3.469  18.214  0.00  0.00    +0.000 A 
ATOM     11  C   UNL     1       0.655   3.475  19.479  0.00  0.00    +0.000 A 
ATOM     12  C   UNL     1       1.409   3.775  20.608  0.00  0.00    +0.000 A 
ATOM     13  C   UNL     1       2.760   4.075  20.469  0.00  0.00    +0.000 A 
ATOM     14  C   UNL     1       3.363   4.068  19.202  0.00  0.00    +0.000 A 
ATOM     15  P   UNL     1       5.066   4.436  19.022  0.00  0.00    +0.000 P 
ATOM     16  O   UNL     1       5.588   5.637  19.767  0.00  0.00    +0.000 OA
ATOM     17  H   UNL     1       2.586   3.419  16.033  0.00  0.00    +0.000 HD
ENDROOT
BRANCH  15  18
ATOM     18  O   UNL     1       5.814   3.131  19.648  0.00  0.00    +0.000 OA
ATOM     19  H   UNL     1       5.251   2.338  19.599  0.00  0.00    +0.000 HD
ENDBRANCH  15  18
TORSDOF 1
ENDMDL
MODEL 4
REMARK VINA RESULT:      -6.6      2.089      5.881
REMARK  Name = 
REMARK  2 active torsions:
REMARK  status: ('A' for Active; 'I' for Inactive)
REMARK    1  A    between atoms: C_1  and  C_2
REMARK    2  A    between atoms: P_15  and  O_17
REMARK                            x       y       z     vdW  Elec       q    Type
REMARK                         _______ _______ _______ _____ _____    ______ ____
ROOT
ATOM      1  C   UNL     1       6.572   3.636  12.149  0.00  0.00    +0.000 C 
ATOM      2  C   UNL     1       6.419   4.043  13.584  0.00  0.00    +0.000 A 
ATOM      3  C   UNL     1       7.479   4.650  14.261  0.00  0.00    +0.000 A 
ATOM      4  C   UNL     1       7.321   5.048  15.583  0.00  0.00    +0.000 A 
ATOM      5  C   UNL     1       6.106   4.835  16.249  0.00  0.00    +0.000 A 
ATOM      6  C   UNL     1       5.032   4.224  15.594  0.00  0.00    +0.000 A 
ATOM      7  C   UNL     1       5.200   3.839  14.255  0.00  0.00    +0.000 A 
ATOM      8  N   UNL     1       3.789   4.040  16.231  0.00  0.00    +0.000 N 
ATOM      9  C   UNL     1       3.407   4.341  17.552  0.00  0.00    +0.000 A 
ATOM     10  C   UNL     1       2.103   4.059  17.984  0.00  0.00    +0.000 A 
ATOM     11  C   UNL     1       1.694   4.363  19.287  0.00  0.00    +0.000 A 
ATOM     12  C   UNL     1       2.579   4.964  20.176  0.00  0.00    +0.000 A 
ATOM     13  C   UNL     1       3.871   5.264  19.758  0.00  0.00    +0.000 A 
ATOM     14  C   UNL     1       4.285   4.958  18.452  0.00  0.00    +0.000 A 
ATOM     15  P   UNL     1       5.913   5.325  17.924  0.00  0.00    +0.000 P 
ATOM     16  O   UNL     1       6.449   6.692  18.261  0.00  0.00    +0.000 OA
ATOM     17  H   UNL     1       3.110   3.505  15.701  0.00  0.00    +0.000 HD
ENDROOT
BRANCH  15  18
ATOM     18  O   UNL     1       6.835   4.247  18.725  0.00  0.00    +0.000 OA
ATOM     19  H   UNL     1       7.069   4.566  19.614  0.00  0.00    +0.000 HD
ENDBRANCH  15  18
TORSDOF 1
ENDMDL
MODEL 5
REMARK VINA RESULT:      -6.4      1.975      5.146
REMARK  Name = 
REMARK  2 active torsions:
REMARK  status: ('A' for Active; 'I' for Inactive)
REMARK    1  A    between atoms: C_1  and  C_2
REMARK    2  A    between atoms: P_15  and  O_17
REMARK                            x       y       z     vdW  Elec       q    Type
REMARK                         _______ _______ _______ _____ _____    ______ ____
ROOT
ATOM      1  C   UNL     1       7.653   7.392  17.109  0.00  0.00    +0.000 C 
ATOM      2  C   UNL     1       6.628   6.305  17.245  0.00  0.00    +0.000 A 
ATOM      3  C   UNL     1       6.475   5.350  16.238  0.00  0.00    +0.000 A 
ATOM      4  C   UNL     1       5.542   4.331  16.382  0.00  0.00    +0.000 A 
ATOM      5  C   UNL     1       4.741   4.259  17.531  0.00  0.00    +0.000 A 
ATOM      6  C   UNL     1       4.871   5.207  18.552  0.00  0.00    +0.000 A 
ATOM      7  C   UNL     1       5.827   6.223  18.399  0.00  0.00    +0.000 A 
ATOM      8  N   UNL     1       4.107   5.128  19.732  0.00  0.00    +0.000 N 
ATOM      9  C   UNL     1       3.100   4.210  20.087  0.00  0.00    +0.000 A 
ATOM     10  C   UNL     1       2.454   4.327  21.326  0.00  0.00    +0.000 A 
ATOM     11  C   UNL     1       1.462   3.418  21.709  0.00  0.00    +0.000 A 
ATOM     12  C   UNL     1       1.108   2.371  20.864  0.00  0.00    +0.000 A 
ATOM     13  C   UNL     1       1.751   2.233  19.639  0.00  0.00    +0.000 A 
ATOM     14  C   UNL     1       2.745   3.144  19.251  0.00  0.00    +0.000 A 
ATOM     15  P   UNL     1       3.551   2.980  17.705  0.00  0.00    +0.000 P 
ATOM     16  O   UNL     1       4.026   1.602  17.325  0.00  0.00    +0.000 OA
ATOM     17  H   UNL     1       4.211   5.914  20.365  0.00  0.00    +0.000 HD
ENDROOT
BRANCH  15  18
ATOM     18  O   UNL     1       2.408   3.400  16.624  0.00  0.00    +0.000 OA
ATOM     19  H   UNL     1       2.093   2.629  16.119  0.00  0.00    +0.000 HD
ENDBRANCH  15  18
TORSDOF 1
ENDMDL
MODEL 6
REMARK VINA RESULT:      -6.4      2.311      5.623
REMARK  Name = 
REMARK  2 active torsions:
REMARK  status: ('A' for Active; 'I' for Inactive)
REMARK    1  A    between atoms: C_1  and  C_2
REMARK    2  A    between atoms: P_15  and  O_17
REMARK                            x       y       z     vdW  Elec       q    Type
REMARK                         _______ _______ _______ _____ _____    ______ ____
ROOT
ATOM      1  C   UNL     1       7.301   4.809  14.549  0.00  0.00    +0.000 C 
ATOM      2  C   UNL     1       6.239   5.071  15.576  0.00  0.00    +0.000 A 
ATOM      3  C   UNL     1       5.483   6.244  15.523  0.00  0.00    +0.000 A 
ATOM      4  C   UNL     1       4.484   6.468  16.463  0.00  0.00    +0.000 A 
ATOM      5  C   UNL     1       4.234   5.528  17.473  0.00  0.00    +0.000 A 
ATOM      6  C   UNL     1       4.982   4.348  17.549  0.00  0.00    +0.000 A 
ATOM      7  C   UNL     1       5.979   4.129  16.586  0.00  0.00    +0.000 A 
ATOM      8  N   UNL     1       4.719   3.372  18.529  0.00  0.00    +0.000 N 
ATOM      9  C   UNL     1       3.784   3.388  19.582  0.00  0.00    +0.000 A 
ATOM     10  C   UNL     1       3.700   2.298  20.459  0.00  0.00    +0.000 A 
ATOM     11  C   UNL     1       2.768   2.283  21.502  0.00  0.00    +0.000 A 
ATOM     12  C   UNL     1       1.899   3.354  21.679  0.00  0.00    +0.000 A 
ATOM     13  C   UNL     1       1.959   4.437  20.808  0.00  0.00    +0.000 A 
ATOM     14  C   UNL     1       2.894   4.455  19.762  0.00  0.00    +0.000 A 
ATOM     15  P   UNL     1       2.982   5.820  18.668  0.00  0.00    +0.000 P 
ATOM     16  O   UNL     1       1.678   6.341  18.121  0.00  0.00    +0.000 OA
ATOM     17  H   UNL     1       5.377   2.600  18.554  0.00  0.00    +0.000 HD
ENDROOT
BRANCH  15  18
ATOM     18  O   UNL     1       3.620   7.009  19.579  0.00  0.00    +0.000 OA
ATOM     19  H   UNL     1       3.444   7.887  19.197  0.00  0.00    +0.000 HD
ENDBRANCH  15  18
TORSDOF 1
ENDMDL
MODEL 7
REMARK VINA RESULT:      -6.4      2.452      2.916
REMARK  Name = 
REMARK  2 active torsions:
REMARK  status: ('A' for Active; 'I' for Inactive)
REMARK    1  A    between atoms: C_1  and  C_2
REMARK    2  A    between atoms: P_15  and  O_17
REMARK                            x       y       z     vdW  Elec       q    Type
REMARK                         _______ _______ _______ _____ _____    ______ ____
ROOT
ATOM      1  C   UNL     1       0.790   3.362  19.853  0.00  0.00    +0.000 C 
ATOM      2  C   UNL     1       2.120   3.825  19.335  0.00  0.00    +0.000 A 
ATOM      3  C   UNL     1       3.047   4.411  20.199  0.00  0.00    +0.000 A 
ATOM      4  C   UNL     1       4.287   4.814  19.718  0.00  0.00    +0.000 A 
ATOM      5  C   UNL     1       4.612   4.645  18.364  0.00  0.00    +0.000 A 
ATOM      6  C   UNL     1       3.698   4.065  17.478  0.00  0.00    +0.000 A 
ATOM      7  C   UNL     1       2.455   3.651  17.981  0.00  0.00    +0.000 A 
ATOM      8  N   UNL     1       4.021   3.848  16.125  0.00  0.00    +0.000 N 
ATOM      9  C   UNL     1       5.190   4.187  15.418  0.00  0.00    +0.000 A 
ATOM     10  C   UNL     1       5.295   3.881  14.053  0.00  0.00    +0.000 A 
ATOM     11  C   UNL     1       6.453   4.193  13.332  0.00  0.00    +0.000 A 
ATOM     12  C   UNL     1       7.529   4.805  13.967  0.00  0.00    +0.000 A 
ATOM     13  C   UNL     1       7.447   5.100  15.323  0.00  0.00    +0.000 A 
ATOM     14  C   UNL     1       6.285   4.791  16.049  0.00  0.00    +0.000 A 
ATOM     15  P   UNL     1       6.173   5.168  17.754  0.00  0.00    +0.000 P 
ATOM     16  O   UNL     1       7.356   4.805  18.615  0.00  0.00    +0.000 OA
ATOM     17  H   UNL     1       3.257   3.509  15.550  0.00  0.00    +0.000 HD
ENDROOT
BRANCH  15  18
ATOM     18  O   UNL     1       6.048   6.792  17.786  0.00  0.00    +0.000 OA
ATOM     19  H   UNL     1       6.877   7.209  18.081  0.00  0.00    +0.000 HD
ENDBRANCH  15  18
TORSDOF 1
ENDMDL
MODEL 8
REMARK VINA RESULT:      -6.3      2.728      3.512
REMARK  Name = 
REMARK  2 active torsions:
REMARK  status: ('A' for Active; 'I' for Inactive)
REMARK    1  A    between atoms: C_1  and  C_2
REMARK    2  A    between atoms: P_15  and  O_17
REMARK                            x       y       z     vdW  Elec       q    Type
REMARK                         _______ _______ _______ _____ _____    ______ ____
ROOT
ATOM      1  C   UNL     1       1.627   3.368  19.479  0.00  0.00    +0.000 C 
ATOM      2  C   UNL     1       2.838   3.941  18.803  0.00  0.00    +0.000 A 
ATOM      3  C   UNL     1       3.706   4.778  19.504  0.00  0.00    +0.000 A 
ATOM      4  C   UNL     1       4.840   5.284  18.879  0.00  0.00    +0.000 A 
ATOM      5  C   UNL     1       5.114   4.967  17.541  0.00  0.00    +0.000 A 
ATOM      6  C   UNL     1       4.256   4.134  16.816  0.00  0.00    +0.000 A 
ATOM      7  C   UNL     1       3.122   3.620  17.463  0.00  0.00    +0.000 A 
ATOM      8  N   UNL     1       4.535   3.770  15.485  0.00  0.00    +0.000 N 
ATOM      9  C   UNL     1       5.597   4.169  14.650  0.00  0.00    +0.000 A 
ATOM     10  C   UNL     1       5.675   3.684  13.337  0.00  0.00    +0.000 A 
ATOM     11  C   UNL     1       6.729   4.052  12.494  0.00  0.00    +0.000 A 
ATOM     12  C   UNL     1       7.728   4.904  12.955  0.00  0.00    +0.000 A 
ATOM     13  C   UNL     1       7.674   5.381  14.260  0.00  0.00    +0.000 A 
ATOM     14  C   UNL     1       6.616   5.014  15.107  0.00  0.00    +0.000 A 
ATOM     15  P   UNL     1       6.538   5.619  16.748  0.00  0.00    +0.000 P 
ATOM     16  O   UNL     1       7.808   5.566  17.558  0.00  0.00    +0.000 OA
ATOM     17  H   UNL     1       3.804   3.240  15.022  0.00  0.00    +0.000 HD
ENDROOT
BRANCH  15  18
ATOM     18  O   UNL     1       6.162   7.193  16.565  0.00  0.00    +0.000 OA
ATOM     19  H   UNL     1       5.270   7.390  16.904  0.00  0.00    +0.000 HD
ENDBRANCH  15  18
TORSDOF 1
ENDMDL
MODEL 9
REMARK VINA RESULT:      -6.3      1.074      5.294
REMARK  Name = 
REMARK  2 active torsions:
REMARK  status: ('A' for Active; 'I' for Inactive)
REMARK    1  A    between atoms: C_1  and  C_2
REMARK    2  A    between atoms: P_15  and  O_17
REMARK                            x       y       z     vdW  Elec       q    Type
REMARK                         _______ _______ _______ _____ _____    ______ ____
ROOT
ATOM      1  C   UNL     1       6.769   5.053  14.119  0.00  0.00    +0.000 C 
ATOM      2  C   UNL     1       5.878   4.873  15.312  0.00  0.00    +0.000 A 
ATOM      3  C   UNL     1       5.735   3.615  15.901  0.00  0.00    +0.000 A 
ATOM      4  C   UNL     1       4.928   3.460  17.022  0.00  0.00    +0.000 A 
ATOM      5  C   UNL     1       4.245   4.558  17.562  0.00  0.00    +0.000 A 
ATOM      6  C   UNL     1       4.367   5.827  16.987  0.00  0.00    +0.000 A 
ATOM      7  C   UNL     1       5.196   5.972  15.863  0.00  0.00    +0.000 A 
ATOM      8  N   UNL     1       3.723   6.951  17.539  0.00  0.00    +0.000 N 
ATOM      9  C   UNL     1       2.853   7.033  18.642  0.00  0.00    +0.000 A 
ATOM     10  C   UNL     1       2.311   8.271  19.015  0.00  0.00    +0.000 A 
ATOM     11  C   UNL     1       1.456   8.380  20.118  0.00  0.00    +0.000 A 
ATOM     12  C   UNL     1       1.138   7.255  20.871  0.00  0.00    +0.000 A 
ATOM     13  C   UNL     1       1.680   6.022  20.523  0.00  0.00    +0.000 A 
ATOM     14  C   UNL     1       2.536   5.909  19.416  0.00  0.00    +0.000 A 
ATOM     15  P   UNL     1       3.213   4.358  18.969  0.00  0.00    +0.000 P 
ATOM     16  O   UNL     1       3.793   3.519  20.078  0.00  0.00    +0.000 OA
ATOM     17  H   UNL     1       3.802   7.803  16.993  0.00  0.00    +0.000 HD
ENDROOT
BRANCH  15  18
ATOM     18  O   UNL     1       1.941   3.536  18.370  0.00  0.00    +0.000 OA
ATOM     19  H   UNL     1       1.498   4.031  17.659  0.00  0.00    +0.000 HD
ENDBRANCH  15  18
TORSDOF 1
ENDMDL
