MODEL 1
REMARK VINA RESULT:      -7.7      0.000      0.000
REMARK  Name = 
REMARK  2 active torsions:
REMARK  status: ('A' for Active; 'I' for Inactive)
REMARK    1  A    between atoms: C_2  and  C_3
REMARK    2  A    between atoms: C_4  and  C_5
REMARK                            x       y       z     vdW  Elec       q    Type
REMARK                         _______ _______ _______ _____ _____    ______ ____
ROOT
ATOM      1  O   UNL     1       4.252   7.509  17.284  0.00  0.00    +0.000 OA
ATOM      2  C   UNL     1       3.321   7.020  17.927  0.00  0.00    +0.000 C 
ATOM      3  N   UNL     1       3.221   5.623  18.023  0.00  0.00    +0.000 N 
ATOM      4  C   UNL     1       4.034   4.784  17.267  0.00  0.00    +0.000 A 
ATOM      5  C   UNL     1       3.391   3.582  17.116  0.00  0.00    +0.000 A 
ATOM      6  C   UNL     1       2.484   3.498  18.196  0.00  0.00    +0.000 A 
ATOM      7  C   UNL     1       1.788   2.411  18.755  0.00  0.00    +0.000 A 
ATOM      8  C   UNL     1       1.110   2.582  19.960  0.00  0.00    +0.000 A 
ATOM      9  C   UNL     1       1.049   3.835  20.560  0.00  0.00    +0.000 A 
ATOM     10  C   UNL     1       1.671   4.950  19.984  0.00  0.00    +0.000 A 
ATOM     11  C   UNL     1       2.413   4.768  18.799  0.00  0.00    +0.000 A 
ENDROOT
BRANCH   2  12
ATOM     12  C   UNL     1       2.295   7.855  18.584  0.00  0.00    +0.000 C 
ATOM     13  C   UNL     1       1.661   8.780  17.841  0.00  0.00    +0.000 C 
BRANCH  13  14
ATOM     14  C   UNL     1       0.717   9.708  18.451  0.00  0.00    +0.000 A 
ATOM     15  C   UNL     1      -0.521   9.911  17.835  0.00  0.00    +0.000 A 
ATOM     16  C   UNL     1      -1.445  10.802  18.380  0.00  0.00    +0.000 A 
ATOM     17  C   UNL     1      -1.131  11.496  19.547  0.00  0.00    +0.000 A 
ATOM     18  C   UNL     1       0.100  11.297  20.173  0.00  0.00    +0.000 A 
ATOM     19  C   UNL     1       1.027  10.399  19.628  0.00  0.00    +0.000 A 
ENDBRANCH  13  14
ENDBRANCH   2  12
TORSDOF 2
ENDMDL
MODEL 2
REMARK VINA RESULT:      -7.6      0.179      1.111
REMARK  Name = 
REMARK  2 active torsions:
REMARK  status: ('A' for Active; 'I' for Inactive)
REMARK    1  A    between atoms: C_2  and  C_3
REMARK    2  A    between atoms: C_4  and  C_5
REMARK                            x       y       z     vdW  Elec       q    Type
REMARK                         _______ _______ _______ _____ _____    ______ ____
ROOT
ATOM      1  O   UNL     1       4.325   7.433  17.267  0.00  0.00    +0.000 OA
ATOM      2  C   UNL     1       3.388   6.981  17.926  0.00  0.00    +0.000 C 
ATOM      3  N   UNL     1       3.223   5.588  18.009  0.00  0.00    +0.000 N 
ATOM      4  C   UNL     1       3.978   4.721  17.223  0.00  0.00    +0.000 A 
ATOM      5  C   UNL     1       3.275   3.554  17.073  0.00  0.00    +0.000 A 
ATOM      6  C   UNL     1       2.390   3.499  18.174  0.00  0.00    +0.000 A 
ATOM      7  C   UNL     1       1.656   2.439  18.736  0.00  0.00    +0.000 A 
ATOM      8  C   UNL     1       1.016   2.626  19.959  0.00  0.00    +0.000 A 
ATOM      9  C   UNL     1       1.028   3.873  20.575  0.00  0.00    +0.000 A 
ATOM     10  C   UNL     1       1.689   4.965  19.997  0.00  0.00    +0.000 A 
ATOM     11  C   UNL     1       2.394   4.763  18.793  0.00  0.00    +0.000 A 
ENDROOT
BRANCH   2  12
ATOM     12  C   UNL     1       2.419   7.854  18.617  0.00  0.00    +0.000 C 
ATOM     13  C   UNL     1       1.590   8.600  17.864  0.00  0.00    +0.000 C 
BRANCH  13  14
ATOM     14  C   UNL     1       0.685   9.563  18.479  0.00  0.00    +0.000 A 
ATOM     15  C   UNL     1       0.970  10.029  19.765  0.00  0.00    +0.000 A 
ATOM     16  C   UNL     1       0.120  10.940  20.392  0.00  0.00    +0.000 A 
ATOM     17  C   UNL     1      -1.023  11.387  19.732  0.00  0.00    +0.000 A 
ATOM     18  C   UNL     1      -1.314  10.931  18.446  0.00  0.00    +0.000 A 
ATOM     19  C   UNL     1      -0.459  10.019  17.814  0.00  0.00    +0.000 A 
ENDBRANCH  13  14
ENDBRANCH   2  12
TORSDOF 2
ENDMDL
MODEL 3
REMARK VINA RESULT:      -7.6      1.216      1.472
REMARK  Name = 
REMARK  2 active torsions:
REMARK  status: ('A' for Active; 'I' for Inactive)
REMARK    1  A    between atoms: C_2  and  C_3
REMARK    2  A    between atoms: C_4  and  C_5
REMARK                            x       y       z     vdW  Elec       q    Type
REMARK                         _______ _______ _______ _____ _____    ______ ____
ROOT
ATOM      1  O   UNL     1       4.672   6.303  16.582  0.00  0.00    +0.000 OA
ATOM      2  C   UNL     1       3.887   6.177  17.523  0.00  0.00    +0.000 C 
ATOM      3  N   UNL     1       3.425   4.893  17.856  0.00  0.00    +0.000 N 
ATOM      4  C   UNL     1       3.690   3.794  17.044  0.00  0.00    +0.000 A 
ATOM      5  C   UNL     1       2.716   2.853  17.261  0.00  0.00    +0.000 A 
ATOM      6  C   UNL     1       2.203   3.128  18.548  0.00  0.00    +0.000 A 
ATOM      7  C   UNL     1       1.433   2.356  19.437  0.00  0.00    +0.000 A 
ATOM      8  C   UNL     1       1.239   2.807  20.741  0.00  0.00    +0.000 A 
ATOM      9  C   UNL     1       1.727   4.048  21.134  0.00  0.00    +0.000 A 
ATOM     10  C   UNL     1       2.432   4.869  20.246  0.00  0.00    +0.000 A 
ATOM     11  C   UNL     1       2.688   4.389  18.946  0.00  0.00    +0.000 A 
ENDROOT
BRANCH   2  12
ATOM     12  C   UNL     1       3.398   7.333  18.300  0.00  0.00    +0.000 C 
ATOM     13  C   UNL     1       2.204   7.858  17.970  0.00  0.00    +0.000 C 
BRANCH  13  14
ATOM     14  C   UNL     1       1.712   9.064  18.624  0.00  0.00    +0.000 A 
ATOM     15  C   UNL     1       1.092   8.949  19.871  0.00  0.00    +0.000 A 
ATOM     16  C   UNL     1       0.596  10.078  20.522  0.00  0.00    +0.000 A 
ATOM     17  C   UNL     1       0.718  11.331  19.923  0.00  0.00    +0.000 A 
ATOM     18  C   UNL     1       1.340  11.458  18.680  0.00  0.00    +0.000 A 
ATOM     19  C   UNL     1       1.842  10.324  18.028  0.00  0.00    +0.000 A 
ENDBRANCH  13  14
ENDBRANCH   2  12
TORSDOF 2
ENDMDL
MODEL 4
REMARK VINA RESULT:      -7.6      1.300      1.479
REMARK  Name = 
REMARK  2 active torsions:
REMARK  status: ('A' for Active; 'I' for Inactive)
REMARK    1  A    between atoms: C_2  and  C_3
REMARK    2  A    between atoms: C_4  and  C_5
REMARK                            x       y       z     vdW  Elec       q    Type
REMARK                         _______ _______ _______ _____ _____    ______ ____
ROOT
ATOM      1  O   UNL     1       4.555   6.124  16.499  0.00  0.00    +0.000 OA
ATOM      2  C   UNL     1       3.830   6.039  17.492  0.00  0.00    +0.000 C 
ATOM      3  N   UNL     1       3.380   4.773  17.899  0.00  0.00    +0.000 N 
ATOM      4  C   UNL     1       3.582   3.644  17.111  0.00  0.00    +0.000 A 
ATOM      5  C   UNL     1       2.617   2.722  17.423  0.00  0.00    +0.000 A 
ATOM      6  C   UNL     1       2.189   3.047  18.730  0.00  0.00    +0.000 A 
ATOM      7  C   UNL     1       1.471   2.315  19.693  0.00  0.00    +0.000 A 
ATOM      8  C   UNL     1       1.365   2.813  20.989  0.00  0.00    +0.000 A 
ATOM      9  C   UNL     1       1.887   4.061  21.307  0.00  0.00    +0.000 A 
ATOM     10  C   UNL     1       2.541   4.843  20.347  0.00  0.00    +0.000 A 
ATOM     11  C   UNL     1       2.709   4.315  19.051  0.00  0.00    +0.000 A 
ENDROOT
BRANCH   2  12
ATOM     12  C   UNL     1       3.402   7.227  18.257  0.00  0.00    +0.000 C 
ATOM     13  C   UNL     1       2.180   7.732  18.011  0.00  0.00    +0.000 C 
BRANCH  13  14
ATOM     14  C   UNL     1       1.737   8.964  18.651  0.00  0.00    +0.000 A 
ATOM     15  C   UNL     1       1.933  10.177  17.986  0.00  0.00    +0.000 A 
ATOM     16  C   UNL     1       1.536  11.378  18.572  0.00  0.00    +0.000 A 
ATOM     17  C   UNL     1       0.939  11.369  19.832  0.00  0.00    +0.000 A 
ATOM     18  C   UNL     1       0.734  10.163  20.503  0.00  0.00    +0.000 A 
ATOM     19  C   UNL     1       1.130   8.955  19.913  0.00  0.00    +0.000 A 
ENDBRANCH  13  14
ENDBRANCH   2  12
TORSDOF 2
ENDMDL
MODEL 5
REMARK VINA RESULT:      -7.6      1.601      2.123
REMARK  Name = 
REMARK  2 active torsions:
REMARK  status: ('A' for Active; 'I' for Inactive)
REMARK    1  A    between atoms: C_2  and  C_3
REMARK    2  A    between atoms: C_4  and  C_5
REMARK                            x       y       z     vdW  Elec       q    Type
REMARK                         _______ _______ _______ _____ _____    ______ ____
ROOT
ATOM      1  O   UNL     1       3.254   7.916  18.084  0.00  0.00    +0.000 OA
ATOM      2  C   UNL     1       2.648   7.208  18.890  0.00  0.00    +0.000 C 
ATOM      3  N   UNL     1       2.721   5.812  18.759  0.00  0.00    +0.000 N 
ATOM      4  C   UNL     1       3.308   5.218  17.644  0.00  0.00    +0.000 A 
ATOM      5  C   UNL     1       2.771   3.966  17.491  0.00  0.00    +0.000 A 
ATOM      6  C   UNL     1       2.296   3.597  18.769  0.00  0.00    +0.000 A 
ATOM      7  C   UNL     1       1.939   2.351  19.315  0.00  0.00    +0.000 A 
ATOM      8  C   UNL     1       1.696   2.249  20.683  0.00  0.00    +0.000 A 
ATOM      9  C   UNL     1       1.720   3.382  21.486  0.00  0.00    +0.000 A 
ATOM     10  C   UNL     1       1.999   4.648  20.954  0.00  0.00    +0.000 A 
ATOM     11  C   UNL     1       2.311   4.746  19.583  0.00  0.00    +0.000 A 
ENDROOT
BRANCH   2  12
ATOM     12  C   UNL     1       1.829   7.779  19.978  0.00  0.00    +0.000 C 
ATOM     13  C   UNL     1       1.255   8.978  19.776  0.00  0.00    +0.000 C 
BRANCH  13  14
ATOM     14  C   UNL     1       0.525   9.647  20.846  0.00  0.00    +0.000 A 
ATOM     15  C   UNL     1       0.466   9.040  22.103  0.00  0.00    +0.000 A 
ATOM     16  C   UNL     1      -0.234   9.642  23.148  0.00  0.00    +0.000 A 
ATOM     17  C   UNL     1      -0.882  10.858  22.936  0.00  0.00    +0.000 A 
ATOM     18  C   UNL     1      -0.825  11.475  21.686  0.00  0.00    +0.000 A 
ATOM     19  C   UNL     1      -0.118  10.873  20.637  0.00  0.00    +0.000 A 
ENDBRANCH  13  14
ENDBRANCH   2  12
TORSDOF 2
ENDMDL
MODEL 6
REMARK VINA RESULT:      -7.3      2.017      6.691
REMARK  Name = 
REMARK  2 active torsions:
REMARK  status: ('A' for Active; 'I' for Inactive)
REMARK    1  A    between atoms: C_2  and  C_3
REMARK    2  A    between atoms: C_4  and  C_5
REMARK                            x       y       z     vdW  Elec       q    Type
REMARK                         _______ _______ _______ _____ _____    ______ ____
ROOT
ATOM      1  O   UNL     1       2.263   8.740  17.378  0.00  0.00    +0.000 OA
ATOM      2  C   UNL     1       1.980   8.582  18.567  0.00  0.00    +0.000 C 
ATOM      3  N   UNL     1       1.251   9.581  19.232  0.00  0.00    +0.000 N 
ATOM      4  C   UNL     1       1.000  10.813  18.635  0.00  0.00    +0.000 A 
ATOM      5  C   UNL     1       0.801  11.739  19.627  0.00  0.00    +0.000 A 
ATOM      6  C   UNL     1       0.394  11.000  20.760  0.00  0.00    +0.000 A 
ATOM      7  C   UNL     1      -0.239  11.387  21.955  0.00  0.00    +0.000 A 
ATOM      8  C   UNL     1      -0.715  10.407  22.824  0.00  0.00    +0.000 A 
ATOM      9  C   UNL     1      -0.489   9.062  22.556  0.00  0.00    +0.000 A 
ATOM     10  C   UNL     1       0.204   8.654  21.410  0.00  0.00    +0.000 A 
ATOM     11  C   UNL     1       0.630   9.638  20.495  0.00  0.00    +0.000 A 
ENDROOT
BRANCH   2  12
ATOM     12  C   UNL     1       2.400   7.385  19.323  0.00  0.00    +0.000 C 
ATOM     13  C   UNL     1       2.068   6.177  18.832  0.00  0.00    +0.000 C 
BRANCH  13  14
ATOM     14  C   UNL     1       2.356   4.961  19.581  0.00  0.00    +0.000 A 
ATOM     15  C   UNL     1       3.457   4.185  19.208  0.00  0.00    +0.000 A 
ATOM     16  C   UNL     1       3.756   3.007  19.892  0.00  0.00    +0.000 A 
ATOM     17  C   UNL     1       2.951   2.599  20.954  0.00  0.00    +0.000 A 
ATOM     18  C   UNL     1       1.852   3.369  21.337  0.00  0.00    +0.000 A 
ATOM     19  C   UNL     1       1.553   4.555  20.653  0.00  0.00    +0.000 A 
ENDBRANCH  13  14
ENDBRANCH   2  12
TORSDOF 2
ENDMDL
MODEL 7
REMARK VINA RESULT:      -7.2      2.053      6.790
REMARK  Name = 
REMARK  2 active torsions:
REMARK  status: ('A' for Active; 'I' for Inactive)
REMARK    1  A    between atoms: C_2  and  C_3
REMARK    2  A    between atoms: C_4  and  C_5
REMARK                            x       y       z     vdW  Elec       q    Type
REMARK                         _______ _______ _______ _____ _____    ______ ____
ROOT
ATOM      1  O   UNL     1       2.273   8.591  17.543  0.00  0.00    +0.000 OA
ATOM      2  C   UNL     1       1.950   8.498  18.729  0.00  0.00    +0.000 C 
ATOM      3  N   UNL     1       1.261   9.562  19.332  0.00  0.00    +0.000 N 
ATOM      4  C   UNL     1       1.095  10.781  18.680  0.00  0.00    +0.000 A 
ATOM      5  C   UNL     1       0.922  11.756  19.628  0.00  0.00    +0.000 A 
ATOM      6  C   UNL     1       0.445  11.088  20.778  0.00  0.00    +0.000 A 
ATOM      7  C   UNL     1      -0.197  11.558  21.938  0.00  0.00    +0.000 A 
ATOM      8  C   UNL     1      -0.749  10.643  22.831  0.00  0.00    +0.000 A 
ATOM      9  C   UNL     1      -0.593   9.277  22.623  0.00  0.00    +0.000 A 
ATOM     10  C   UNL     1       0.107   8.784  21.514  0.00  0.00    +0.000 A 
ATOM     11  C   UNL     1       0.611   9.705  20.574  0.00  0.00    +0.000 A 
ENDROOT
BRANCH   2  12
ATOM     12  C   UNL     1       2.282   7.312  19.543  0.00  0.00    +0.000 C 
ATOM     13  C   UNL     1       2.424   6.132  18.914  0.00  0.00    +0.000 C 
BRANCH  13  14
ATOM     14  C   UNL     1       2.644   4.904  19.668  0.00  0.00    +0.000 A 
ATOM     15  C   UNL     1       1.895   4.682  20.826  0.00  0.00    +0.000 A 
ATOM     16  C   UNL     1       2.087   3.526  21.583  0.00  0.00    +0.000 A 
ATOM     17  C   UNL     1       3.034   2.585  21.181  0.00  0.00    +0.000 A 
ATOM     18  C   UNL     1       3.784   2.795  20.023  0.00  0.00    +0.000 A 
ATOM     19  C   UNL     1       3.589   3.955  19.261  0.00  0.00    +0.000 A 
ENDBRANCH  13  14
ENDBRANCH   2  12
TORSDOF 2
ENDMDL
MODEL 8
REMARK VINA RESULT:      -7.1      2.987      6.447
REMARK  Name = 
REMARK  2 active torsions:
REMARK  status: ('A' for Active; 'I' for Inactive)
REMARK    1  A    between atoms: C_2  and  C_3
REMARK    2  A    between atoms: C_4  and  C_5
REMARK                            x       y       z     vdW  Elec       q    Type
REMARK                         _______ _______ _______ _____ _____    ______ ____
ROOT
ATOM      1  O   UNL     1       4.057   7.628  17.755  0.00  0.00    +0.000 OA
ATOM      2  C   UNL     1       3.813   6.421  17.706  0.00  0.00    +0.000 C 
ATOM      3  N   UNL     1       2.909   5.871  18.629  0.00  0.00    +0.000 N 
ATOM      4  C   UNL     1       2.426   6.615  19.702  0.00  0.00    +0.000 A 
ATOM      5  C   UNL     1       2.058   5.747  20.697  0.00  0.00    +0.000 A 
ATOM      6  C   UNL     1       1.802   4.516  20.052  0.00  0.00    +0.000 A 
ATOM      7  C   UNL     1       1.110   3.364  20.468  0.00  0.00    +0.000 A 
ATOM      8  C   UNL     1       0.832   2.363  19.540  0.00  0.00    +0.000 A 
ATOM      9  C   UNL     1       1.309   2.460  18.238  0.00  0.00    +0.000 A 
ATOM     10  C   UNL     1       2.064   3.563  17.818  0.00  0.00    +0.000 A 
ATOM     11  C   UNL     1       2.292   4.609  18.735  0.00  0.00    +0.000 A 
ENDROOT
BRANCH   2  12
ATOM     12  C   UNL     1       4.455   5.528  16.720  0.00  0.00    +0.000 C 
ATOM     13  C   UNL     1       5.248   6.083  15.786  0.00  0.00    +0.000 C 
BRANCH  13  14
ATOM     14  C   UNL     1       5.826   5.275  14.720  0.00  0.00    +0.000 A 
ATOM     15  C   UNL     1       7.119   5.567  14.278  0.00  0.00    +0.000 A 
ATOM     16  C   UNL     1       7.700   4.825  13.250  0.00  0.00    +0.000 A 
ATOM     17  C   UNL     1       6.985   3.784  12.658  0.00  0.00    +0.000 A 
ATOM     18  C   UNL     1       5.695   3.482  13.095  0.00  0.00    +0.000 A 
ATOM     19  C   UNL     1       5.112   4.224  14.130  0.00  0.00    +0.000 A 
ENDBRANCH  13  14
ENDBRANCH   2  12
TORSDOF 2
ENDMDL
MODEL 9
REMARK VINA RESULT:      -7.1      2.170      6.779
REMARK  Name = 
REMARK  2 active torsions:
REMARK  status: ('A' for Active; 'I' for Inactive)
REMARK    1  A    between atoms: C_2  and  C_3
REMARK    2  A    between atoms: C_4  and  C_5
REMARK                            x       y       z     vdW  Elec       q    Type
REMARK                         _______ _______ _______ _____ _____    ______ ____
ROOT
ATOM      1  O   UNL     1       1.906   9.488  17.296  0.00  0.00    +0.000 OA
ATOM      2  C   UNL     1       1.699   9.138  18.460  0.00  0.00    +0.000 C 
ATOM      3  N   UNL     1       0.984   9.997  19.311  0.00  0.00    +0.000 N 
ATOM      4  C   UNL     1       0.665  11.296  18.928  0.00  0.00    +0.000 A 
ATOM      5  C   UNL     1       0.501  12.051  20.061  0.00  0.00    +0.000 A 
ATOM      6  C   UNL     1       0.181  11.133  21.086  0.00  0.00    +0.000 A 
ATOM      7  C   UNL     1      -0.389  11.309  22.359  0.00  0.00    +0.000 A 
ATOM      8  C   UNL     1      -0.787  10.190  23.089  0.00  0.00    +0.000 A 
ATOM      9  C   UNL     1      -0.542   8.911  22.603  0.00  0.00    +0.000 A 
ATOM     10  C   UNL     1       0.093   8.709  21.371  0.00  0.00    +0.000 A 
ATOM     11  C   UNL     1       0.437   9.837  20.599  0.00  0.00    +0.000 A 
ENDROOT
BRANCH   2  12
ATOM     12  C   UNL     1       2.194   7.855  18.996  0.00  0.00    +0.000 C 
ATOM     13  C   UNL     1       2.706   6.962  18.129  0.00  0.00    +0.000 C 
BRANCH  13  14
ATOM     14  C   UNL     1       3.112   5.635  18.576  0.00  0.00    +0.000 A 
ATOM     15  C   UNL     1       4.468   5.390  18.812  0.00  0.00    +0.000 A 
ATOM     16  C   UNL     1       4.897   4.130  19.227  0.00  0.00    +0.000 A 
ATOM     17  C   UNL     1       3.967   3.107  19.406  0.00  0.00    +0.000 A 
ATOM     18  C   UNL     1       2.612   3.342  19.177  0.00  0.00    +0.000 A 
ATOM     19  C   UNL     1       2.179   4.609  18.764  0.00  0.00    +0.000 A 
ENDBRANCH  13  14
ENDBRANCH   2  12
TORSDOF 2
ENDMDL
