MODEL 1
REMARK VINA RESULT:      -6.1      0.000      0.000
REMARK  Name = 
REMARK  2 active torsions:
REMARK  status: ('A' for Active; 'I' for Inactive)
REMARK    1  A    between atoms: N_1  and  C_2
REMARK    2  A    between atoms: C_2  and  C_3
REMARK                            x       y       z     vdW  Elec       q    Type
REMARK                         _______ _______ _______ _____ _____    ______ ____
ROOT
ATOM      1  C   UNL     1       4.918   5.066  17.257  0.00  0.00    +0.000 A 
ATOM      2  C   UNL     1       4.802   6.467  17.345  0.00  0.00    +0.000 A 
ATOM      3  C   UNL     1       3.610   7.063  17.739  0.00  0.00    +0.000 A 
ATOM      4  C   UNL     1       2.515   6.270  18.062  0.00  0.00    +0.000 A 
ATOM      5  C   UNL     1       2.597   4.872  18.010  0.00  0.00    +0.000 A 
ATOM      6  C   UNL     1       1.479   4.095  18.351  0.00  0.00    +0.000 A 
ATOM      7  C   UNL     1       1.533   2.704  18.321  0.00  0.00    +0.000 A 
ATOM      8  C   UNL     1       2.711   2.071  17.955  0.00  0.00    +0.000 A 
ATOM      9  C   UNL     1       3.834   2.829  17.608  0.00  0.00    +0.000 A 
ATOM     10  C   UNL     1       3.809   4.245  17.616  0.00  0.00    +0.000 A 
ENDROOT
BRANCH   1  11
ATOM     11  C   UNL     1       6.243   4.507  16.785  0.00  0.00    +0.000 C 
BRANCH  11  12
ATOM     12  N   UNL     1       7.165   4.288  17.891  0.00  0.00    +0.000 NA
ATOM     13  H   UNL     1       6.985   4.978  18.617  0.00  0.00    +0.000 HD
ATOM     14  H   UNL     1       8.117   4.448  17.566  0.00  0.00    +0.000 HD
ENDBRANCH  11  12
ENDBRANCH   1  11
TORSDOF 2
ENDMDL
MODEL 2
REMARK VINA RESULT:      -6.0      2.576      4.611
REMARK  Name = 
REMARK  2 active torsions:
REMARK  status: ('A' for Active; 'I' for Inactive)
REMARK    1  A    between atoms: N_1  and  C_2
REMARK    2  A    between atoms: C_2  and  C_3
REMARK                            x       y       z     vdW  Elec       q    Type
REMARK                         _______ _______ _______ _____ _____    ______ ____
ROOT
ATOM      1  C   UNL     1       1.753   3.213  19.945  0.00  0.00    +0.000 A 
ATOM      2  C   UNL     1       1.947   2.199  18.987  0.00  0.00    +0.000 A 
ATOM      3  C   UNL     1       2.336   2.505  17.689  0.00  0.00    +0.000 A 
ATOM      4  C   UNL     1       2.546   3.831  17.326  0.00  0.00    +0.000 A 
ATOM      5  C   UNL     1       2.385   4.867  18.256  0.00  0.00    +0.000 A 
ATOM      6  C   UNL     1       2.614   6.196  17.865  0.00  0.00    +0.000 A 
ATOM      7  C   UNL     1       2.475   7.246  18.768  0.00  0.00    +0.000 A 
ATOM      8  C   UNL     1       2.110   6.979  20.080  0.00  0.00    +0.000 A 
ATOM      9  C   UNL     1       1.875   5.661  20.485  0.00  0.00    +0.000 A 
ATOM     10  C   UNL     1       1.996   4.572  19.589  0.00  0.00    +0.000 A 
ENDROOT
BRANCH   1  11
ATOM     11  C   UNL     1       1.294   2.788  21.323  0.00  0.00    +0.000 C 
BRANCH  11  12
ATOM     12  N   UNL     1       2.418   2.550  22.219  0.00  0.00    +0.000 NA
ATOM     13  H   UNL     1       2.696   3.431  22.649  0.00  0.00    +0.000 HD
ATOM     14  H   UNL     1       3.215   2.227  21.674  0.00  0.00    +0.000 HD
ENDBRANCH  11  12
ENDBRANCH   1  11
TORSDOF 2
ENDMDL
MODEL 3
REMARK VINA RESULT:      -6.0      1.945      3.910
REMARK  Name = 
REMARK  2 active torsions:
REMARK  status: ('A' for Active; 'I' for Inactive)
REMARK    1  A    between atoms: N_1  and  C_2
REMARK    2  A    between atoms: C_2  and  C_3
REMARK                            x       y       z     vdW  Elec       q    Type
REMARK                         _______ _______ _______ _____ _____    ______ ____
ROOT
ATOM      1  C   UNL     1       2.544   2.840  18.722  0.00  0.00    +0.000 A 
ATOM      2  C   UNL     1       1.722   2.310  19.735  0.00  0.00    +0.000 A 
ATOM      3  C   UNL     1       1.117   3.138  20.673  0.00  0.00    +0.000 A 
ATOM      4  C   UNL     1       1.317   4.513  20.611  0.00  0.00    +0.000 A 
ATOM      5  C   UNL     1       2.110   5.081  19.604  0.00  0.00    +0.000 A 
ATOM      6  C   UNL     1       2.287   6.473  19.559  0.00  0.00    +0.000 A 
ATOM      7  C   UNL     1       3.057   7.069  18.565  0.00  0.00    +0.000 A 
ATOM      8  C   UNL     1       3.659   6.278  17.596  0.00  0.00    +0.000 A 
ATOM      9  C   UNL     1       3.497   4.889  17.629  0.00  0.00    +0.000 A 
ATOM     10  C   UNL     1       2.729   4.251  18.633  0.00  0.00    +0.000 A 
ENDROOT
BRANCH   1  11
ATOM     11  C   UNL     1       3.190   1.859  17.767  0.00  0.00    +0.000 C 
BRANCH  11  12
ATOM     12  N   UNL     1       3.966   0.847  18.470  0.00  0.00    +0.000 NA
ATOM     13  H   UNL     1       4.391   0.219  17.791  0.00  0.00    +0.000 HD
ATOM     14  H   UNL     1       3.337   0.281  19.037  0.00  0.00    +0.000 HD
ENDBRANCH  11  12
ENDBRANCH   1  11
TORSDOF 2
ENDMDL
MODEL 4
REMARK VINA RESULT:      -5.8      2.441      3.930
REMARK  Name = 
REMARK  2 active torsions:
REMARK  status: ('A' for Active; 'I' for Inactive)
REMARK    1  A    between atoms: N_1  and  C_2
REMARK    2  A    between atoms: C_2  and  C_3
REMARK                            x       y       z     vdW  Elec       q    Type
REMARK                         _______ _______ _______ _____ _____    ______ ____
ROOT
ATOM      1  C   UNL     1       2.050   3.620  19.239  0.00  0.00    +0.000 A 
ATOM      2  C   UNL     1       1.427   4.360  20.263  0.00  0.00    +0.000 A 
ATOM      3  C   UNL     1       1.720   5.705  20.455  0.00  0.00    +0.000 A 
ATOM      4  C   UNL     1       2.634   6.338  19.621  0.00  0.00    +0.000 A 
ATOM      5  C   UNL     1       3.259   5.643  18.576  0.00  0.00    +0.000 A 
ATOM      6  C   UNL     1       4.171   6.310  17.743  0.00  0.00    +0.000 A 
ATOM      7  C   UNL     1       4.797   5.652  16.689  0.00  0.00    +0.000 A 
ATOM      8  C   UNL     1       4.514   4.314  16.450  0.00  0.00    +0.000 A 
ATOM      9  C   UNL     1       3.611   3.634  17.273  0.00  0.00    +0.000 A 
ATOM     10  C   UNL     1       2.966   4.270  18.360  0.00  0.00    +0.000 A 
ENDROOT
BRANCH   1  11
ATOM     11  C   UNL     1       1.697   2.153  19.127  0.00  0.00    +0.000 C 
BRANCH  11  12
ATOM     12  N   UNL     1       0.419   1.952  18.458  0.00  0.00    +0.000 NA
ATOM     13  H   UNL     1       0.509   1.193  17.785  0.00  0.00    +0.000 HD
ATOM     14  H   UNL     1       0.187   2.788  17.925  0.00  0.00    +0.000 HD
ENDBRANCH  11  12
ENDBRANCH   1  11
TORSDOF 2
ENDMDL
MODEL 5
REMARK VINA RESULT:      -5.8      1.651      3.513
REMARK  Name = 
REMARK  2 active torsions:
REMARK  status: ('A' for Active; 'I' for Inactive)
REMARK    1  A    between atoms: N_1  and  C_2
REMARK    2  A    between atoms: C_2  and  C_3
REMARK                            x       y       z     vdW  Elec       q    Type
REMARK                         _______ _______ _______ _____ _____    ______ ____
ROOT
ATOM      1  C   UNL     1       2.970   3.473  18.190  0.00  0.00    +0.000 A 
ATOM      2  C   UNL     1       2.105   3.873  19.226  0.00  0.00    +0.000 A 
ATOM      3  C   UNL     1       2.007   5.207  19.604  0.00  0.00    +0.000 A 
ATOM      4  C   UNL     1       2.767   6.168  18.946  0.00  0.00    +0.000 A 
ATOM      5  C   UNL     1       3.623   5.814  17.894  0.00  0.00    +0.000 A 
ATOM      6  C   UNL     1       4.372   6.806  17.241  0.00  0.00    +0.000 A 
ATOM      7  C   UNL     1       5.221   6.488  16.185  0.00  0.00    +0.000 A 
ATOM      8  C   UNL     1       5.329   5.170  15.764  0.00  0.00    +0.000 A 
ATOM      9  C   UNL     1       4.593   4.169  16.406  0.00  0.00    +0.000 A 
ATOM     10  C   UNL     1       3.730   4.456  17.490  0.00  0.00    +0.000 A 
ENDROOT
BRANCH   1  11
ATOM     11  C   UNL     1       3.038   1.995  17.872  0.00  0.00    +0.000 C 
BRANCH  11  12
ATOM     12  N   UNL     1       4.095   1.327  18.619  0.00  0.00    +0.000 NA
ATOM     13  H   UNL     1       4.547   0.641  18.018  0.00  0.00    +0.000 HD
ATOM     14  H   UNL     1       3.681   0.811  19.392  0.00  0.00    +0.000 HD
ENDBRANCH  11  12
ENDBRANCH   1  11
TORSDOF 2
ENDMDL
MODEL 6
REMARK VINA RESULT:      -5.7      2.144      3.742
REMARK  Name = 
REMARK  2 active torsions:
REMARK  status: ('A' for Active; 'I' for Inactive)
REMARK    1  A    between atoms: N_1  and  C_2
REMARK    2  A    between atoms: C_2  and  C_3
REMARK                            x       y       z     vdW  Elec       q    Type
REMARK                         _______ _______ _______ _____ _____    ______ ____
ROOT
ATOM      1  C   UNL     1       6.497   5.328  18.514  0.00  0.00    +0.000 A 
ATOM      2  C   UNL     1       5.433   5.162  19.421  0.00  0.00    +0.000 A 
ATOM      3  C   UNL     1       4.193   4.699  18.996  0.00  0.00    +0.000 A 
ATOM      4  C   UNL     1       3.997   4.385  17.656  0.00  0.00    +0.000 A 
ATOM      5  C   UNL     1       5.037   4.514  16.725  0.00  0.00    +0.000 A 
ATOM      6  C   UNL     1       4.814   4.180  15.380  0.00  0.00    +0.000 A 
ATOM      7  C   UNL     1       5.830   4.285  14.434  0.00  0.00    +0.000 A 
ATOM      8  C   UNL     1       7.088   4.722  14.824  0.00  0.00    +0.000 A 
ATOM      9  C   UNL     1       7.327   5.063  16.160  0.00  0.00    +0.000 A 
ATOM     10  C   UNL     1       6.313   4.979  17.144  0.00  0.00    +0.000 A 
ENDROOT
BRANCH   1  11
ATOM     11  C   UNL     1       7.799   5.871  19.061  0.00  0.00    +0.000 C 
BRANCH  11  12
ATOM     12  N   UNL     1       8.034   5.438  20.432  0.00  0.00    +0.000 NA
ATOM     13  H   UNL     1       7.659   6.134  21.072  0.00  0.00    +0.000 HD
ATOM     14  H   UNL     1       9.038   5.398  20.600  0.00  0.00    +0.000 HD
ENDBRANCH  11  12
ENDBRANCH   1  11
TORSDOF 2
ENDMDL
MODEL 7
REMARK VINA RESULT:      -5.7      1.673      3.364
REMARK  Name = 
REMARK  2 active torsions:
REMARK  status: ('A' for Active; 'I' for Inactive)
REMARK    1  A    between atoms: N_1  and  C_2
REMARK    2  A    between atoms: C_2  and  C_3
REMARK                            x       y       z     vdW  Elec       q    Type
REMARK                         _______ _______ _______ _____ _____    ______ ____
ROOT
ATOM      1  C   UNL     1       3.775   4.007  18.504  0.00  0.00    +0.000 A 
ATOM      2  C   UNL     1       3.060   4.921  19.302  0.00  0.00    +0.000 A 
ATOM      3  C   UNL     1       3.031   6.275  18.991  0.00  0.00    +0.000 A 
ATOM      4  C   UNL     1       3.709   6.739  17.869  0.00  0.00    +0.000 A 
ATOM      5  C   UNL     1       4.414   5.859  17.037  0.00  0.00    +0.000 A 
ATOM      6  C   UNL     1       5.082   6.354  15.905  0.00  0.00    +0.000 A 
ATOM      7  C   UNL     1       5.779   5.504  15.051  0.00  0.00    +0.000 A 
ATOM      8  C   UNL     1       5.812   4.142  15.317  0.00  0.00    +0.000 A 
ATOM      9  C   UNL     1       5.156   3.633  16.441  0.00  0.00    +0.000 A 
ATOM     10  C   UNL     1       4.448   4.471  17.336  0.00  0.00    +0.000 A 
ENDROOT
BRANCH   1  11
ATOM     11  C   UNL     1       3.781   2.558  18.941  0.00  0.00    +0.000 C 
BRANCH  11  12
ATOM     12  N   UNL     1       4.913   2.257  19.806  0.00  0.00    +0.000 NA
ATOM     13  H   UNL     1       4.899   1.267  20.043  0.00  0.00    +0.000 HD
ATOM     14  H   UNL     1       4.808   2.767  20.681  0.00  0.00    +0.000 HD
ENDBRANCH  11  12
ENDBRANCH   1  11
TORSDOF 2
ENDMDL
MODEL 8
REMARK VINA RESULT:      -5.7      1.864      3.073
REMARK  Name = 
REMARK  2 active torsions:
REMARK  status: ('A' for Active; 'I' for Inactive)
REMARK    1  A    between atoms: N_1  and  C_2
REMARK    2  A    between atoms: C_2  and  C_3
REMARK                            x       y       z     vdW  Elec       q    Type
REMARK                         _______ _______ _______ _____ _____    ______ ____
ROOT
ATOM      1  C   UNL     1       3.438   3.321  17.828  0.00  0.00    +0.000 A 
ATOM      2  C   UNL     1       4.358   3.798  16.874  0.00  0.00    +0.000 A 
ATOM      3  C   UNL     1       4.671   5.150  16.795  0.00  0.00    +0.000 A 
ATOM      4  C   UNL     1       4.076   6.049  17.673  0.00  0.00    +0.000 A 
ATOM      5  C   UNL     1       3.173   5.611  18.651  0.00  0.00    +0.000 A 
ATOM      6  C   UNL     1       2.595   6.539  19.531  0.00  0.00    +0.000 A 
ATOM      7  C   UNL     1       1.705   6.134  20.522  0.00  0.00    +0.000 A 
ATOM      8  C   UNL     1       1.384   4.790  20.648  0.00  0.00    +0.000 A 
ATOM      9  C   UNL     1       1.948   3.853  19.777  0.00  0.00    +0.000 A 
ATOM     10  C   UNL     1       2.847   4.232  18.752  0.00  0.00    +0.000 A 
ENDROOT
BRANCH   1  11
ATOM     11  C   UNL     1       3.131   1.839  17.818  0.00  0.00    +0.000 C 
BRANCH  11  12
ATOM     12  N   UNL     1       4.189   1.062  18.450  0.00  0.00    +0.000 NA
ATOM     13  H   UNL     1       4.374   0.232  17.891  0.00  0.00    +0.000 HD
ATOM     14  H   UNL     1       3.863   0.735  19.358  0.00  0.00    +0.000 HD
ENDBRANCH  11  12
ENDBRANCH   1  11
TORSDOF 2
ENDMDL
MODEL 9
REMARK VINA RESULT:      -5.7      2.057      3.115
REMARK  Name = 
REMARK  2 active torsions:
REMARK  status: ('A' for Active; 'I' for Inactive)
REMARK    1  A    between atoms: N_1  and  C_2
REMARK    2  A    between atoms: C_2  and  C_3
REMARK                            x       y       z     vdW  Elec       q    Type
REMARK                         _______ _______ _______ _____ _____    ______ ____
ROOT
ATOM      1  C   UNL     1       3.253   6.538  17.827  0.00  0.00    +0.000 A 
ATOM      2  C   UNL     1       4.429   6.891  17.137  0.00  0.00    +0.000 A 
ATOM      3  C   UNL     1       5.239   5.921  16.558  0.00  0.00    +0.000 A 
ATOM      4  C   UNL     1       4.883   4.580  16.650  0.00  0.00    +0.000 A 
ATOM      5  C   UNL     1       3.709   4.189  17.308  0.00  0.00    +0.000 A 
ATOM      6  C   UNL     1       3.368   2.829  17.377  0.00  0.00    +0.000 A 
ATOM      7  C   UNL     1       2.203   2.410  18.012  0.00  0.00    +0.000 A 
ATOM      8  C   UNL     1       1.357   3.350  18.583  0.00  0.00    +0.000 A 
ATOM      9  C   UNL     1       1.682   4.709  18.527  0.00  0.00    +0.000 A 
ATOM     10  C   UNL     1       2.866   5.168  17.899  0.00  0.00    +0.000 A 
ENDROOT
BRANCH   1  11
ATOM     11  C   UNL     1       2.453   7.657  18.456  0.00  0.00    +0.000 C 
BRANCH  11  12
ATOM     12  N   UNL     1       2.252   8.766  17.533  0.00  0.00    +0.000 NA
ATOM     13  H   UNL     1       2.093   9.620  18.064  0.00  0.00    +0.000 HD
ATOM     14  H   UNL     1       1.406   8.598  16.991  0.00  0.00    +0.000 HD
ENDBRANCH  11  12
ENDBRANCH   1  11
TORSDOF 2
ENDMDL
