MODEL 1
REMARK VINA RESULT:      -8.3      0.000      0.000
REMARK  Name = 
REMARK  7 active torsions:
REMARK  status: ('A' for Active; 'I' for Inactive)
REMARK    1  A    between atoms: O_1  and  C_2
REMARK    2  A    between atoms: C_5  and  C_6
REMARK    3  A    between atoms: C_6  and  N_7
REMARK    4  A    between atoms: N_7  and  C_8
REMARK    5  A    between atoms: C_8  and  C_9
REMARK    6  A    between atoms: C_21  and  C_22
REMARK    7  A    between atoms: C_22  and  N_23
REMARK                            x       y       z     vdW  Elec       q    Type
REMARK                         _______ _______ _______ _____ _____    ______ ____
ROOT
ATOM      1  C   UNL     1       0.229   9.397  20.786  0.00  0.00    +0.000 A 
ATOM      2  C   UNL     1       0.937   8.353  21.382  0.00  0.00    +0.000 A 
ATOM      3  C   UNL     1       1.838   7.613  20.622  0.00  0.00    +0.000 A 
ATOM      4  C   UNL     1       2.034   7.905  19.263  0.00  0.00    +0.000 A 
ATOM      5  C   UNL     1       1.332   8.965  18.687  0.00  0.00    +0.000 A 
ATOM      6  C   UNL     1       0.412   9.716  19.434  0.00  0.00    +0.000 A 
ENDROOT
BRANCH   1   7
ATOM      7  O   UNL     1      -0.662  10.114  21.539  0.00  0.00    +0.000 OA
ATOM      8  H   UNL     1      -1.118   9.508  22.145  0.00  0.00    +0.000 HD
ENDBRANCH   1   7
BRANCH   4   9
ATOM      9  C   UNL     1       2.867   6.991  18.404  0.00  0.00    +0.000 C 
BRANCH   9  10
ATOM     10  N   UNL     1       3.651   5.994  19.139  0.00  0.00    +0.000 NA
ATOM     11  H   UNL     1       3.230   5.861  20.060  0.00  0.00    +0.000 HD
BRANCH  10  12
ATOM     12  C   UNL     1       3.744   4.671  18.472  0.00  0.00    +0.000 C 
ATOM     13  C   UNL     1       3.824   3.485  19.477  0.00  0.00    +0.000 C 
ATOM     14  C   UNL     1       3.444   2.249  18.672  0.00  0.00    +0.000 C 
ATOM     15  C   UNL     1       2.455   2.745  17.621  0.00  0.00    +0.000 C 
ATOM     16  C   UNL     1       2.422   4.268  17.747  0.00  0.00    +0.000 C 
BRANCH  12  17
ATOM     17  C   UNL     1       4.932   4.704  17.471  0.00  0.00    +0.000 A 
ATOM     18  C   UNL     1       4.711   4.687  16.077  0.00  0.00    +0.000 A 
ATOM     19  C   UNL     1       5.768   4.603  15.155  0.00  0.00    +0.000 A 
ATOM     20  C   UNL     1       7.083   4.571  15.605  0.00  0.00    +0.000 A 
ATOM     21  C   UNL     1       7.335   4.666  16.966  0.00  0.00    +0.000 A 
ATOM     22  C   UNL     1       6.274   4.755  17.873  0.00  0.00    +0.000 A 
ATOM     23  F   UNL     1       6.614   4.903  19.163  0.00  0.00    +0.000 F 
ENDBRANCH  12  17
ENDBRANCH  10  12
ENDBRANCH   9  10
ENDBRANCH   4   9
BRANCH   6  24
ATOM     24  C   UNL     1      -0.310  10.857  18.757  0.00  0.00    +0.000 C 
BRANCH  24  25
ATOM     25  N   UNL     1      -1.767  10.634  18.536  0.00  0.00    +0.000 NA
ATOM     26  C   UNL     1      -2.479  11.925  18.527  0.00  0.00    +0.000 C 
ATOM     27  C   UNL     1      -3.905  11.867  17.972  0.00  0.00    +0.000 C 
ATOM     28  C   UNL     1      -3.946  11.179  16.616  0.00  0.00    +0.000 C 
ATOM     29  C   UNL     1      -3.348   9.789  16.752  0.00  0.00    +0.000 C 
ATOM     30  C   UNL     1      -1.922   9.862  17.292  0.00  0.00    +0.000 C 
ENDBRANCH  24  25
ENDBRANCH   6  24
TORSDOF 7
ENDMDL
MODEL 2
REMARK VINA RESULT:      -8.3      1.805      3.422
REMARK  Name = 
REMARK  7 active torsions:
REMARK  status: ('A' for Active; 'I' for Inactive)
REMARK    1  A    between atoms: O_1  and  C_2
REMARK    2  A    between atoms: C_5  and  C_6
REMARK    3  A    between atoms: C_6  and  N_7
REMARK    4  A    between atoms: N_7  and  C_8
REMARK    5  A    between atoms: C_8  and  C_9
REMARK    6  A    between atoms: C_21  and  C_22
REMARK    7  A    between atoms: C_22  and  N_23
REMARK                            x       y       z     vdW  Elec       q    Type
REMARK                         _______ _______ _______ _____ _____    ______ ____
ROOT
ATOM      1  C   UNL     1      -0.124  10.031  20.349  0.00  0.00    +0.000 A 
ATOM      2  C   UNL     1       0.724   9.094  20.941  0.00  0.00    +0.000 A 
ATOM      3  C   UNL     1       1.668   8.433  20.160  0.00  0.00    +0.000 A 
ATOM      4  C   UNL     1       1.769   8.699  18.786  0.00  0.00    +0.000 A 
ATOM      5  C   UNL     1       0.926   9.653  18.213  0.00  0.00    +0.000 A 
ATOM      6  C   UNL     1      -0.039  10.321  18.982  0.00  0.00    +0.000 A 
ENDROOT
BRANCH   1   7
ATOM      7  O   UNL     1      -1.056  10.669  21.123  0.00  0.00    +0.000 OA
ATOM      8  H   UNL     1      -1.341  11.477  20.667  0.00  0.00    +0.000 HD
ENDBRANCH   1   7
BRANCH   4   9
ATOM      9  C   UNL     1       2.661   7.854  17.915  0.00  0.00    +0.000 C 
BRANCH   9  10
ATOM     10  N   UNL     1       2.225   6.465  17.743  0.00  0.00    +0.000 NA
ATOM     11  H   UNL     1       2.066   6.293  16.750  0.00  0.00    +0.000 HD
BRANCH  10  12
ATOM     12  C   UNL     1       3.186   5.452  18.246  0.00  0.00    +0.000 C 
ATOM     13  C   UNL     1       3.893   4.662  17.106  0.00  0.00    +0.000 C 
ATOM     14  C   UNL     1       5.128   4.045  17.750  0.00  0.00    +0.000 C 
ATOM     15  C   UNL     1       5.545   5.028  18.839  0.00  0.00    +0.000 C 
ATOM     16  C   UNL     1       4.450   6.094  18.898  0.00  0.00    +0.000 C 
BRANCH  12  17
ATOM     17  C   UNL     1       2.452   4.533  19.261  0.00  0.00    +0.000 A 
ATOM     18  C   UNL     1       2.668   4.660  20.649  0.00  0.00    +0.000 A 
ATOM     19  C   UNL     1       2.103   3.769  21.578  0.00  0.00    +0.000 A 
ATOM     20  C   UNL     1       1.272   2.744  21.142  0.00  0.00    +0.000 A 
ATOM     21  C   UNL     1       0.977   2.642  19.790  0.00  0.00    +0.000 A 
ATOM     22  C   UNL     1       1.541   3.538  18.877  0.00  0.00    +0.000 A 
ATOM     23  F   UNL     1       1.153   3.399  17.599  0.00  0.00    +0.000 F 
ENDBRANCH  12  17
ENDBRANCH  10  12
ENDBRANCH   9  10
ENDBRANCH   4   9
BRANCH   6  24
ATOM     24  C   UNL     1      -0.915  11.350  18.307  0.00  0.00    +0.000 C 
BRANCH  24  25
ATOM     25  N   UNL     1      -2.309  10.902  18.029  0.00  0.00    +0.000 NA
ATOM     26  C   UNL     1      -3.269  11.779  18.722  0.00  0.00    +0.000 C 
ATOM     27  C   UNL     1      -4.719  11.643  18.249  0.00  0.00    +0.000 C 
ATOM     28  C   UNL     1      -4.822  11.762  16.736  0.00  0.00    +0.000 C 
ATOM     29  C   UNL     1      -3.932  10.709  16.099  0.00  0.00    +0.000 C 
ATOM     30  C   UNL     1      -2.487  10.865  16.568  0.00  0.00    +0.000 C 
ENDBRANCH  24  25
ENDBRANCH   6  24
TORSDOF 7
ENDMDL
MODEL 3
REMARK VINA RESULT:      -8.1      1.706      2.584
REMARK  Name = 
REMARK  7 active torsions:
REMARK  status: ('A' for Active; 'I' for Inactive)
REMARK    1  A    between atoms: O_1  and  C_2
REMARK    2  A    between atoms: C_5  and  C_6
REMARK    3  A    between atoms: C_6  and  N_7
REMARK    4  A    between atoms: N_7  and  C_8
REMARK    5  A    between atoms: C_8  and  C_9
REMARK    6  A    between atoms: C_21  and  C_22
REMARK    7  A    between atoms: C_22  and  N_23
REMARK                            x       y       z     vdW  Elec       q    Type
REMARK                         _______ _______ _______ _____ _____    ______ ____
ROOT
ATOM      1  C   UNL     1       0.340   9.643  20.636  0.00  0.00    +0.000 A 
ATOM      2  C   UNL     1       0.851   8.518  21.285  0.00  0.00    +0.000 A 
ATOM      3  C   UNL     1       1.697   7.654  20.595  0.00  0.00    +0.000 A 
ATOM      4  C   UNL     1       2.034   7.902  19.256  0.00  0.00    +0.000 A 
ATOM      5  C   UNL     1       1.530   9.042  18.628  0.00  0.00    +0.000 A 
ATOM      6  C   UNL     1       0.667   9.920  19.303  0.00  0.00    +0.000 A 
ENDROOT
BRANCH   1   7
ATOM      7  O   UNL     1      -0.498  10.483  21.319  0.00  0.00    +0.000 OA
ATOM      8  H   UNL     1      -1.402  10.365  20.982  0.00  0.00    +0.000 HD
ENDBRANCH   1   7
BRANCH   4   9
ATOM      9  C   UNL     1       2.797   6.873  18.463  0.00  0.00    +0.000 C 
BRANCH   9  10
ATOM     10  N   UNL     1       3.481   5.856  19.265  0.00  0.00    +0.000 NA
ATOM     11  H   UNL     1       2.959   5.717  20.131  0.00  0.00    +0.000 HD
BRANCH  10  12
ATOM     12  C   UNL     1       3.632   4.541  18.593  0.00  0.00    +0.000 C 
ATOM     13  C   UNL     1       3.647   3.344  19.589  0.00  0.00    +0.000 C 
ATOM     14  C   UNL     1       3.334   2.115  18.745  0.00  0.00    +0.000 C 
ATOM     15  C   UNL     1       2.420   2.616  17.631  0.00  0.00    +0.000 C 
ATOM     16  C   UNL     1       2.368   4.138  17.770  0.00  0.00    +0.000 C 
BRANCH  12  17
ATOM     17  C   UNL     1       4.888   4.592  17.680  0.00  0.00    +0.000 A 
ATOM     18  C   UNL     1       4.775   4.475  16.278  0.00  0.00    +0.000 A 
ATOM     19  C   UNL     1       5.903   4.406  15.442  0.00  0.00    +0.000 A 
ATOM     20  C   UNL     1       7.179   4.490  15.987  0.00  0.00    +0.000 A 
ATOM     21  C   UNL     1       7.320   4.685  17.353  0.00  0.00    +0.000 A 
ATOM     22  C   UNL     1       6.190   4.758  18.174  0.00  0.00    +0.000 A 
ATOM     23  F   UNL     1       6.421   5.006  19.472  0.00  0.00    +0.000 F 
ENDBRANCH  12  17
ENDBRANCH  10  12
ENDBRANCH   9  10
ENDBRANCH   4   9
BRANCH   6  24
ATOM     24  C   UNL     1       0.163  11.142  18.573  0.00  0.00    +0.000 C 
BRANCH  24  25
ATOM     25  N   UNL     1       0.446  12.439  19.251  0.00  0.00    +0.000 NA
ATOM     26  C   UNL     1       1.896  12.701  19.251  0.00  0.00    +0.000 C 
ATOM     27  C   UNL     1       2.287  14.140  19.601  0.00  0.00    +0.000 C 
ATOM     28  C   UNL     1       1.522  15.145  18.754  0.00  0.00    +0.000 C 
ATOM     29  C   UNL     1       0.033  14.915  18.944  0.00  0.00    +0.000 C 
ATOM     30  C   UNL     1      -0.346  13.482  18.577  0.00  0.00    +0.000 C 
ENDBRANCH  24  25
ENDBRANCH   6  24
TORSDOF 7
ENDMDL
MODEL 4
REMARK VINA RESULT:      -8.1      2.061      2.694
REMARK  Name = 
REMARK  7 active torsions:
REMARK  status: ('A' for Active; 'I' for Inactive)
REMARK    1  A    between atoms: O_1  and  C_2
REMARK    2  A    between atoms: C_5  and  C_6
REMARK    3  A    between atoms: C_6  and  N_7
REMARK    4  A    between atoms: N_7  and  C_8
REMARK    5  A    between atoms: C_8  and  C_9
REMARK    6  A    between atoms: C_21  and  C_22
REMARK    7  A    between atoms: C_22  and  N_23
REMARK                            x       y       z     vdW  Elec       q    Type
REMARK                         _______ _______ _______ _____ _____    ______ ____
ROOT
ATOM      1  C   UNL     1       1.558  10.076  18.551  0.00  0.00    +0.000 A 
ATOM      2  C   UNL     1       1.902   9.053  17.665  0.00  0.00    +0.000 A 
ATOM      3  C   UNL     1       2.075   7.759  18.146  0.00  0.00    +0.000 A 
ATOM      4  C   UNL     1       1.911   7.476  19.511  0.00  0.00    +0.000 A 
ATOM      5  C   UNL     1       1.548   8.506  20.380  0.00  0.00    +0.000 A 
ATOM      6  C   UNL     1       1.380   9.820  19.916  0.00  0.00    +0.000 A 
ENDROOT
BRANCH   1   7
ATOM      7  O   UNL     1       1.400  11.348  18.071  0.00  0.00    +0.000 OA
ATOM      8  H   UNL     1       0.703  11.791  18.582  0.00  0.00    +0.000 HD
ENDBRANCH   1   7
BRANCH   4   9
ATOM      9  C   UNL     1       2.276   6.119  20.052  0.00  0.00    +0.000 C 
BRANCH   9  10
ATOM     10  N   UNL     1       3.638   5.675  19.745  0.00  0.00    +0.000 NA
ATOM     11  H   UNL     1       4.139   5.525  20.622  0.00  0.00    +0.000 HD
BRANCH  10  12
ATOM     12  C   UNL     1       3.713   4.428  18.943  0.00  0.00    +0.000 C 
ATOM     13  C   UNL     1       3.819   3.145  19.819  0.00  0.00    +0.000 C 
ATOM     14  C   UNL     1       3.416   1.998  18.901  0.00  0.00    +0.000 C 
ATOM     15  C   UNL     1       2.399   2.596  17.935  0.00  0.00    +0.000 C 
ATOM     16  C   UNL     1       2.371   4.099  18.217  0.00  0.00    +0.000 C 
BRANCH  12  17
ATOM     17  C   UNL     1       4.872   4.566  17.918  0.00  0.00    +0.000 A 
ATOM     18  C   UNL     1       4.623   4.552  16.530  0.00  0.00    +0.000 A 
ATOM     19  C   UNL     1       5.663   4.563  15.585  0.00  0.00    +0.000 A 
ATOM     20  C   UNL     1       6.986   4.624  16.006  0.00  0.00    +0.000 A 
ATOM     21  C   UNL     1       7.259   4.718  17.363  0.00  0.00    +0.000 A 
ATOM     22  C   UNL     1       6.215   4.713  18.293  0.00  0.00    +0.000 A 
ATOM     23  F   UNL     1       6.571   4.867  19.579  0.00  0.00    +0.000 F 
ENDBRANCH  12  17
ENDBRANCH  10  12
ENDBRANCH   9  10
ENDBRANCH   4   9
BRANCH   6  24
ATOM     24  C   UNL     1       0.977  10.890  20.904  0.00  0.00    +0.000 C 
BRANCH  24  25
ATOM     25  N   UNL     1      -0.474  10.914  21.244  0.00  0.00    +0.000 NA
ATOM     26  C   UNL     1      -0.648  11.024  22.703  0.00  0.00    +0.000 C 
ATOM     27  C   UNL     1      -2.061  11.403  23.154  0.00  0.00    +0.000 C 
ATOM     28  C   UNL     1      -2.565  12.637  22.422  0.00  0.00    +0.000 C 
ATOM     29  C   UNL     1      -2.512  12.377  20.926  0.00  0.00    +0.000 C 
ATOM     30  C   UNL     1      -1.096  12.015  20.488  0.00  0.00    +0.000 C 
ENDBRANCH  24  25
ENDBRANCH   6  24
TORSDOF 7
ENDMDL
MODEL 5
REMARK VINA RESULT:      -7.8      0.947      1.094
REMARK  Name = 
REMARK  7 active torsions:
REMARK  status: ('A' for Active; 'I' for Inactive)
REMARK    1  A    between atoms: O_1  and  C_2
REMARK    2  A    between atoms: C_5  and  C_6
REMARK    3  A    between atoms: C_6  and  N_7
REMARK    4  A    between atoms: N_7  and  C_8
REMARK    5  A    between atoms: C_8  and  C_9
REMARK    6  A    between atoms: C_21  and  C_22
REMARK    7  A    between atoms: C_22  and  N_23
REMARK                            x       y       z     vdW  Elec       q    Type
REMARK                         _______ _______ _______ _____ _____    ______ ____
ROOT
ATOM      1  C   UNL     1      -0.139  10.498  21.145  0.00  0.00    +0.000 A 
ATOM      2  C   UNL     1       0.413   9.786  22.211  0.00  0.00    +0.000 A 
ATOM      3  C   UNL     1       1.197   8.665  21.954  0.00  0.00    +0.000 A 
ATOM      4  C   UNL     1       1.431   8.245  20.635  0.00  0.00    +0.000 A 
ATOM      5  C   UNL     1       0.888   8.980  19.581  0.00  0.00    +0.000 A 
ATOM      6  C   UNL     1       0.086  10.106  19.820  0.00  0.00    +0.000 A 
ENDROOT
BRANCH   1   7
ATOM      7  O   UNL     1      -0.916  11.594  21.408  0.00  0.00    +0.000 OA
ATOM      8  H   UNL     1      -1.821  11.297  21.600  0.00  0.00    +0.000 HD
ENDBRANCH   1   7
BRANCH   4   9
ATOM      9  C   UNL     1       2.124   6.934  20.370  0.00  0.00    +0.000 C 
BRANCH   9  10
ATOM     10  N   UNL     1       2.899   6.883  19.127  0.00  0.00    +0.000 NA
ATOM     11  H   UNL     1       3.775   7.386  19.267  0.00  0.00    +0.000 HD
BRANCH  10  12
ATOM     12  C   UNL     1       3.216   5.511  18.656  0.00  0.00    +0.000 C 
ATOM     13  C   UNL     1       3.223   4.458  19.803  0.00  0.00    +0.000 C 
ATOM     14  C   UNL     1       3.092   3.108  19.110  0.00  0.00    +0.000 C 
ATOM     15  C   UNL     1       2.258   3.379  17.861  0.00  0.00    +0.000 C 
ATOM     16  C   UNL     1       2.076   4.895  17.786  0.00  0.00    +0.000 C 
BRANCH  12  17
ATOM     17  C   UNL     1       4.550   5.556  17.861  0.00  0.00    +0.000 A 
ATOM     18  C   UNL     1       4.557   5.662  16.454  0.00  0.00    +0.000 A 
ATOM     19  C   UNL     1       5.745   5.592  15.706  0.00  0.00    +0.000 A 
ATOM     20  C   UNL     1       6.967   5.451  16.352  0.00  0.00    +0.000 A 
ATOM     21  C   UNL     1       6.999   5.425  17.739  0.00  0.00    +0.000 A 
ATOM     22  C   UNL     1       5.811   5.501  18.472  0.00  0.00    +0.000 A 
ATOM     23  F   UNL     1       5.944   5.527  19.808  0.00  0.00    +0.000 F 
ENDBRANCH  12  17
ENDBRANCH  10  12
ENDBRANCH   9  10
ENDBRANCH   4   9
BRANCH   6  24
ATOM     24  C   UNL     1      -0.465  10.866  18.636  0.00  0.00    +0.000 C 
BRANCH  24  25
ATOM     25  N   UNL     1      -1.868  10.523  18.269  0.00  0.00    +0.000 NA
ATOM     26  C   UNL     1      -2.727  11.714  18.393  0.00  0.00    +0.000 C 
ATOM     27  C   UNL     1      -4.098  11.588  17.724  0.00  0.00    +0.000 C 
ATOM     28  C   UNL     1      -3.972  11.118  16.283  0.00  0.00    +0.000 C 
ATOM     29  C   UNL     1      -3.222   9.797  16.261  0.00  0.00    +0.000 C 
ATOM     30  C   UNL     1      -1.851   9.941  16.917  0.00  0.00    +0.000 C 
ENDBRANCH  24  25
ENDBRANCH   6  24
TORSDOF 7
ENDMDL
MODEL 6
REMARK VINA RESULT:      -7.8      1.264      1.742
REMARK  Name = 
REMARK  7 active torsions:
REMARK  status: ('A' for Active; 'I' for Inactive)
REMARK    1  A    between atoms: O_1  and  C_2
REMARK    2  A    between atoms: C_5  and  C_6
REMARK    3  A    between atoms: C_6  and  N_7
REMARK    4  A    between atoms: N_7  and  C_8
REMARK    5  A    between atoms: C_8  and  C_9
REMARK    6  A    between atoms: C_21  and  C_22
REMARK    7  A    between atoms: C_22  and  N_23
REMARK                            x       y       z     vdW  Elec       q    Type
REMARK                         _______ _______ _______ _____ _____    ______ ____
ROOT
ATOM      1  C   UNL     1       1.810   9.778  18.323  0.00  0.00    +0.000 A 
ATOM      2  C   UNL     1       2.524   8.825  17.595  0.00  0.00    +0.000 A 
ATOM      3  C   UNL     1       2.697   7.548  18.119  0.00  0.00    +0.000 A 
ATOM      4  C   UNL     1       2.163   7.214  19.374  0.00  0.00    +0.000 A 
ATOM      5  C   UNL     1       1.435   8.171  20.081  0.00  0.00    +0.000 A 
ATOM      6  C   UNL     1       1.260   9.468  19.573  0.00  0.00    +0.000 A 
ENDROOT
BRANCH   1   7
ATOM      7  O   UNL     1       1.653  11.035  17.804  0.00  0.00    +0.000 OA
ATOM      8  H   UNL     1       2.329  11.618  18.186  0.00  0.00    +0.000 HD
ENDBRANCH   1   7
BRANCH   4   9
ATOM      9  C   UNL     1       2.507   5.895  20.016  0.00  0.00    +0.000 C 
BRANCH   9  10
ATOM     10  N   UNL     1       3.857   5.400  19.730  0.00  0.00    +0.000 NA
ATOM     11  H   UNL     1       4.321   5.190  20.615  0.00  0.00    +0.000 HD
BRANCH  10  12
ATOM     12  C   UNL     1       3.899   4.185  18.879  0.00  0.00    +0.000 C 
ATOM     13  C   UNL     1       4.139   2.879  19.690  0.00  0.00    +0.000 C 
ATOM     14  C   UNL     1       3.692   1.748  18.773  0.00  0.00    +0.000 C 
ATOM     15  C   UNL     1       2.563   2.337  17.932  0.00  0.00    +0.000 C 
ATOM     16  C   UNL     1       2.506   3.826  18.273  0.00  0.00    +0.000 C 
BRANCH  12  17
ATOM     17  C   UNL     1       4.947   4.405  17.753  0.00  0.00    +0.000 A 
ATOM     18  C   UNL     1       4.566   4.420  16.395  0.00  0.00    +0.000 A 
ATOM     19  C   UNL     1       5.508   4.505  15.355  0.00  0.00    +0.000 A 
ATOM     20  C   UNL     1       6.862   4.616  15.651  0.00  0.00    +0.000 A 
ATOM     21  C   UNL     1       7.261   4.684  16.978  0.00  0.00    +0.000 A 
ATOM     22  C   UNL     1       6.312   4.605  18.003  0.00  0.00    +0.000 A 
ATOM     23  F   UNL     1       6.784   4.739  19.252  0.00  0.00    +0.000 F 
ENDBRANCH  12  17
ENDBRANCH  10  12
ENDBRANCH   9  10
ENDBRANCH   4   9
BRANCH   6  24
ATOM     24  C   UNL     1       0.453  10.458  20.381  0.00  0.00    +0.000 C 
BRANCH  24  25
ATOM     25  N   UNL     1      -0.983  10.559  19.995  0.00  0.00    +0.000 NA
ATOM     26  C   UNL     1      -1.403  11.971  19.980  0.00  0.00    +0.000 C 
ATOM     27  C   UNL     1      -2.737  12.236  19.276  0.00  0.00    +0.000 C 
ATOM     28  C   UNL     1      -2.765  11.613  17.888  0.00  0.00    +0.000 C 
ATOM     29  C   UNL     1      -2.491  10.124  18.012  0.00  0.00    +0.000 C 
ATOM     30  C   UNL     1      -1.153   9.875  18.702  0.00  0.00    +0.000 C 
ENDBRANCH  24  25
ENDBRANCH   6  24
TORSDOF 7
ENDMDL
MODEL 7
REMARK VINA RESULT:      -7.7      6.174      9.101
REMARK  Name = 
REMARK  7 active torsions:
REMARK  status: ('A' for Active; 'I' for Inactive)
REMARK    1  A    between atoms: O_1  and  C_2
REMARK    2  A    between atoms: C_5  and  C_6
REMARK    3  A    between atoms: C_6  and  N_7
REMARK    4  A    between atoms: N_7  and  C_8
REMARK    5  A    between atoms: C_8  and  C_9
REMARK    6  A    between atoms: C_21  and  C_22
REMARK    7  A    between atoms: C_22  and  N_23
REMARK                            x       y       z     vdW  Elec       q    Type
REMARK                         _______ _______ _______ _____ _____    ______ ____
ROOT
ATOM      1  C   UNL     1       7.122   5.462  18.445  0.00  0.00    +0.000 A 
ATOM      2  C   UNL     1       8.199   5.964  19.176  0.00  0.00    +0.000 A 
ATOM      3  C   UNL     1       8.568   7.298  19.026  0.00  0.00    +0.000 A 
ATOM      4  C   UNL     1       7.870   8.136  18.143  0.00  0.00    +0.000 A 
ATOM      5  C   UNL     1       6.783   7.623  17.434  0.00  0.00    +0.000 A 
ATOM      6  C   UNL     1       6.402   6.279  17.564  0.00  0.00    +0.000 A 
ENDROOT
BRANCH   1   7
ATOM      7  O   UNL     1       6.771   4.147  18.592  0.00  0.00    +0.000 OA
ATOM      8  H   UNL     1       6.822   3.913  19.533  0.00  0.00    +0.000 HD
ENDBRANCH   1   7
BRANCH   4   9
ATOM      9  C   UNL     1       8.384   9.521  17.847  0.00  0.00    +0.000 C 
BRANCH   9  10
ATOM     10  N   UNL     1       8.520  10.394  19.017  0.00  0.00    +0.000 NA
ATOM     11  H   UNL     1       8.756   9.820  19.827  0.00  0.00    +0.000 HD
BRANCH  10  12
ATOM     12  C   UNL     1       9.550  11.453  18.877  0.00  0.00    +0.000 C 
ATOM     13  C   UNL     1      10.661  11.372  19.965  0.00  0.00    +0.000 C 
ATOM     14  C   UNL     1      11.826  12.182  19.411  0.00  0.00    +0.000 C 
ATOM     15  C   UNL     1      11.746  12.015  17.897  0.00  0.00    +0.000 C 
ATOM     16  C   UNL     1      10.450  11.255  17.617  0.00  0.00    +0.000 C 
BRANCH  12  17
ATOM     17  C   UNL     1       8.840  12.834  18.833  0.00  0.00    +0.000 A 
ATOM     18  C   UNL     1       9.025  13.783  19.860  0.00  0.00    +0.000 A 
ATOM     19  C   UNL     1       8.308  14.991  19.899  0.00  0.00    +0.000 A 
ATOM     20  C   UNL     1       7.408  15.299  18.886  0.00  0.00    +0.000 A 
ATOM     21  C   UNL     1       7.263  14.421  17.821  0.00  0.00    +0.000 A 
ATOM     22  C   UNL     1       7.987  13.225  17.791  0.00  0.00    +0.000 A 
ATOM     23  F   UNL     1       7.826  12.468  16.695  0.00  0.00    +0.000 F 
ENDBRANCH  12  17
ENDBRANCH  10  12
ENDBRANCH   9  10
ENDBRANCH   4   9
BRANCH   6  24
ATOM     24  C   UNL     1       5.211   5.785  16.777  0.00  0.00    +0.000 C 
BRANCH  24  25
ATOM     25  N   UNL     1       4.206   5.024  17.573  0.00  0.00    +0.000 NA
ATOM     26  C   UNL     1       3.123   5.923  18.009  0.00  0.00    +0.000 C 
ATOM     27  C   UNL     1       1.871   5.213  18.530  0.00  0.00    +0.000 C 
ATOM     28  C   UNL     1       1.381   4.160  17.548  0.00  0.00    +0.000 C 
ATOM     29  C   UNL     1       2.507   3.174  17.284  0.00  0.00    +0.000 C 
ATOM     30  C   UNL     1       3.743   3.893  16.751  0.00  0.00    +0.000 C 
ENDBRANCH  24  25
ENDBRANCH   6  24
TORSDOF 7
ENDMDL
MODEL 8
REMARK VINA RESULT:      -7.7      2.079      3.817
REMARK  Name = 
REMARK  7 active torsions:
REMARK  status: ('A' for Active; 'I' for Inactive)
REMARK    1  A    between atoms: O_1  and  C_2
REMARK    2  A    between atoms: C_5  and  C_6
REMARK    3  A    between atoms: C_6  and  N_7
REMARK    4  A    between atoms: N_7  and  C_8
REMARK    5  A    between atoms: C_8  and  C_9
REMARK    6  A    between atoms: C_21  and  C_22
REMARK    7  A    between atoms: C_22  and  N_23
REMARK                            x       y       z     vdW  Elec       q    Type
REMARK                         _______ _______ _______ _____ _____    ______ ____
ROOT
ATOM      1  C   UNL     1       0.955   9.201  20.428  0.00  0.00    +0.000 A 
ATOM      2  C   UNL     1       1.447   7.973  20.873  0.00  0.00    +0.000 A 
ATOM      3  C   UNL     1       2.150   7.156  19.992  0.00  0.00    +0.000 A 
ATOM      4  C   UNL     1       2.362   7.555  18.663  0.00  0.00    +0.000 A 
ATOM      5  C   UNL     1       1.880   8.794  18.240  0.00  0.00    +0.000 A 
ATOM      6  C   UNL     1       1.160   9.627  19.109  0.00  0.00    +0.000 A 
ENDROOT
BRANCH   1   7
ATOM      7  O   UNL     1       0.256   9.994  21.298  0.00  0.00    +0.000 OA
ATOM      8  H   UNL     1      -0.330  10.577  20.789  0.00  0.00    +0.000 HD
ENDBRANCH   1   7
BRANCH   4   9
ATOM      9  C   UNL     1       2.960   6.593  17.670  0.00  0.00    +0.000 C 
BRANCH   9  10
ATOM     10  N   UNL     1       4.381   6.804  17.382  0.00  0.00    +0.000 NA
ATOM     11  H   UNL     1       4.826   7.209  18.207  0.00  0.00    +0.000 HD
BRANCH  10  12
ATOM     12  C   UNL     1       5.122   5.574  17.006  0.00  0.00    +0.000 C 
ATOM     13  C   UNL     1       5.236   5.376  15.466  0.00  0.00    +0.000 C 
ATOM     14  C   UNL     1       6.378   4.387  15.271  0.00  0.00    +0.000 C 
ATOM     15  C   UNL     1       7.338   4.651  16.427  0.00  0.00    +0.000 C 
ATOM     16  C   UNL     1       6.645   5.663  17.338  0.00  0.00    +0.000 C 
BRANCH  12  17
ATOM     17  C   UNL     1       4.472   4.363  17.730  0.00  0.00    +0.000 A 
ATOM     18  C   UNL     1       3.597   3.490  17.050  0.00  0.00    +0.000 A 
ATOM     19  C   UNL     1       2.911   2.456  17.710  0.00  0.00    +0.000 A 
ATOM     20  C   UNL     1       3.113   2.245  19.069  0.00  0.00    +0.000 A 
ATOM     21  C   UNL     1       4.027   3.036  19.749  0.00  0.00    +0.000 A 
ATOM     22  C   UNL     1       4.708   4.058  19.079  0.00  0.00    +0.000 A 
ATOM     23  F   UNL     1       5.615   4.733  19.802  0.00  0.00    +0.000 F 
ENDBRANCH  12  17
ENDBRANCH  10  12
ENDBRANCH   9  10
ENDBRANCH   4   9
BRANCH   6  24
ATOM     24  C   UNL     1       0.672  10.961  18.595  0.00  0.00    +0.000 C 
BRANCH  24  25
ATOM     25  N   UNL     1       1.363  12.147  19.175  0.00  0.00    +0.000 NA
ATOM     26  C   UNL     1       2.444  12.590  18.277  0.00  0.00    +0.000 C 
ATOM     27  C   UNL     1       2.998  13.985  18.579  0.00  0.00    +0.000 C 
ATOM     28  C   UNL     1       1.884  15.014  18.687  0.00  0.00    +0.000 C 
ATOM     29  C   UNL     1       0.902  14.565  19.755  0.00  0.00    +0.000 C 
ATOM     30  C   UNL     1       0.346  13.180  19.434  0.00  0.00    +0.000 C 
ENDBRANCH  24  25
ENDBRANCH   6  24
TORSDOF 7
ENDMDL
MODEL 9
REMARK VINA RESULT:      -7.6      1.595      2.412
REMARK  Name = 
REMARK  7 active torsions:
REMARK  status: ('A' for Active; 'I' for Inactive)
REMARK    1  A    between atoms: O_1  and  C_2
REMARK    2  A    between atoms: C_5  and  C_6
REMARK    3  A    between atoms: C_6  and  N_7
REMARK    4  A    between atoms: N_7  and  C_8
REMARK    5  A    between atoms: C_8  and  C_9
REMARK    6  A    between atoms: C_21  and  C_22
REMARK    7  A    between atoms: C_22  and  N_23
REMARK                            x       y       z     vdW  Elec       q    Type
REMARK                         _______ _______ _______ _____ _____    ______ ____
ROOT
ATOM      1  C   UNL     1       2.018   9.781  18.271  0.00  0.00    +0.000 A 
ATOM      2  C   UNL     1       2.631   8.814  17.472  0.00  0.00    +0.000 A 
ATOM      3  C   UNL     1       2.688   7.496  17.913  0.00  0.00    +0.000 A 
ATOM      4  C   UNL     1       2.140   7.134  19.153  0.00  0.00    +0.000 A 
ATOM      5  C   UNL     1       1.514   8.108  19.931  0.00  0.00    +0.000 A 
ATOM      6  C   UNL     1       1.455   9.445  19.509  0.00  0.00    +0.000 A 
ENDROOT
BRANCH   1   7
ATOM      7  O   UNL     1       1.974  11.077  17.833  0.00  0.00    +0.000 OA
ATOM      8  H   UNL     1       1.554  11.624  18.517  0.00  0.00    +0.000 HD
ENDBRANCH   1   7
BRANCH   4   9
ATOM      9  C   UNL     1       2.365   5.750  19.706  0.00  0.00    +0.000 C 
BRANCH   9  10
ATOM     10  N   UNL     1       2.142   4.659  18.754  0.00  0.00    +0.000 NA
ATOM     11  H   UNL     1       2.014   5.058  17.823  0.00  0.00    +0.000 HD
BRANCH  10  12
ATOM     12  C   UNL     1       3.243   3.664  18.689  0.00  0.00    +0.000 C 
ATOM     13  C   UNL     1       3.698   3.167  20.093  0.00  0.00    +0.000 C 
ATOM     14  C   UNL     1       4.451   1.868  19.833  0.00  0.00    +0.000 C 
ATOM     15  C   UNL     1       3.783   1.256  18.605  0.00  0.00    +0.000 C 
ATOM     16  C   UNL     1       2.782   2.295  18.099  0.00  0.00    +0.000 C 
BRANCH  12  17
ATOM     17  C   UNL     1       4.403   4.262  17.847  0.00  0.00    +0.000 A 
ATOM     18  C   UNL     1       4.449   4.095  16.447  0.00  0.00    +0.000 A 
ATOM     19  C   UNL     1       5.544   4.530  15.679  0.00  0.00    +0.000 A 
ATOM     20  C   UNL     1       6.609   5.179  16.291  0.00  0.00    +0.000 A 
ATOM     21  C   UNL     1       6.556   5.428  17.655  0.00  0.00    +0.000 A 
ATOM     22  C   UNL     1       5.459   4.996  18.407  0.00  0.00    +0.000 A 
ATOM     23  F   UNL     1       5.467   5.333  19.706  0.00  0.00    +0.000 F 
ENDBRANCH  12  17
ENDBRANCH  10  12
ENDBRANCH   9  10
ENDBRANCH   4   9
BRANCH   6  24
ATOM     24  C   UNL     1       0.755  10.452  20.390  0.00  0.00    +0.000 C 
BRANCH  24  25
ATOM     25  N   UNL     1      -0.177  11.371  19.675  0.00  0.00    +0.000 NA
ATOM     26  C   UNL     1      -1.314  10.610  19.129  0.00  0.00    +0.000 C 
ATOM     27  C   UNL     1      -2.501  11.466  18.679  0.00  0.00    +0.000 C 
ATOM     28  C   UNL     1      -2.930  12.437  19.768  0.00  0.00    +0.000 C 
ATOM     29  C   UNL     1      -1.740  13.299  20.153  0.00  0.00    +0.000 C 
ATOM     30  C   UNL     1      -0.570  12.435  20.614  0.00  0.00    +0.000 C 
ENDBRANCH  24  25
ENDBRANCH   6  24
TORSDOF 7
ENDMDL
