MODEL 1
REMARK VINA RESULT:      -7.6      0.000      0.000
REMARK  Name = 
REMARK  4 active torsions:
REMARK  status: ('A' for Active; 'I' for Inactive)
REMARK    1  A    between atoms: C_1  and  C_2
REMARK    2  A    between atoms: C_4  and  C_5
REMARK    3  A    between atoms: C_13  and  C_14
REMARK    4  A    between atoms: N_15  and  C_16
REMARK                            x       y       z     vdW  Elec       q    Type
REMARK                         _______ _______ _______ _____ _____    ______ ____
ROOT
ATOM      1  C   UNL     1       2.298   7.576  18.439  0.00  0.00    +0.000 C 
ATOM      2  C   UNL     1       3.295   6.649  17.826  0.00  0.00    +0.000 A 
ATOM      3  C   UNL     1       4.240   7.006  16.884  0.00  0.00    +0.000 A 
ATOM      4  C   UNL     1       5.059   5.893  16.655  0.00  0.00    +0.000 A 
ATOM      5  C   UNL     1       4.609   4.848  17.442  0.00  0.00    +0.000 A 
ATOM      6  C   UNL     1       5.107   3.435  17.433  0.00  0.00    +0.000 C 
ATOM      7  N   UNL     1       3.502   5.307  18.180  0.00  0.00    +0.000 N 
ENDROOT
BRANCH   4   8
ATOM      8  C   UNL     1       6.154   5.835  15.746  0.00  0.00    +0.000 C 
ATOM      9  C   UNL     1       6.216   5.074  14.645  0.00  0.00    +0.000 C 
ATOM     10  S   UNL     1       5.027   3.982  14.049  0.00  0.00    +0.000 S 
ATOM     11  C   UNL     1       6.116   3.537  12.767  0.00  0.00    +0.000 C 
ATOM     12  N   UNL     1       5.693   2.582  11.904  0.00  0.00    +0.000 N 
ATOM     13  N   UNL     1       7.248   4.145  12.715  0.00  0.00    +0.000 NA
ATOM     14  C   UNL     1       7.408   5.046  13.747  0.00  0.00    +0.000 C 
ATOM     15  O   UNL     1       8.397   5.746  13.920  0.00  0.00    +0.000 OA
ATOM     16  H   UNL     1       4.697   2.432  11.843  0.00  0.00    +0.000 HD
ATOM     17  H   UNL     1       6.197   2.542  11.025  0.00  0.00    +0.000 HD
ENDBRANCH   4   8
BRANCH   7  18
ATOM     18  C   UNL     1       2.713   4.529  19.097  0.00  0.00    +0.000 A 
ATOM     19  C   UNL     1       1.645   3.744  18.644  0.00  0.00    +0.000 A 
ATOM     20  C   UNL     1       0.812   3.071  19.543  0.00  0.00    +0.000 A 
ATOM     21  C   UNL     1       1.076   3.120  20.907  0.00  0.00    +0.000 A 
ATOM     22  C   UNL     1       2.165   3.849  21.370  0.00  0.00    +0.000 A 
ATOM     23  C   UNL     1       2.967   4.565  20.474  0.00  0.00    +0.000 A 
ENDBRANCH   7  18
TORSDOF 2
ENDMDL
MODEL 2
REMARK VINA RESULT:      -7.6      0.114      1.053
REMARK  Name = 
REMARK  4 active torsions:
REMARK  status: ('A' for Active; 'I' for Inactive)
REMARK    1  A    between atoms: C_1  and  C_2
REMARK    2  A    between atoms: C_4  and  C_5
REMARK    3  A    between atoms: C_13  and  C_14
REMARK    4  A    between atoms: N_15  and  C_16
REMARK                            x       y       z     vdW  Elec       q    Type
REMARK                         _______ _______ _______ _____ _____    ______ ____
ROOT
ATOM      1  C   UNL     1       2.290   7.624  18.442  0.00  0.00    +0.000 C 
ATOM      2  C   UNL     1       3.271   6.674  17.841  0.00  0.00    +0.000 A 
ATOM      3  C   UNL     1       4.220   7.002  16.893  0.00  0.00    +0.000 A 
ATOM      4  C   UNL     1       5.022   5.874  16.679  0.00  0.00    +0.000 A 
ATOM      5  C   UNL     1       4.556   4.847  17.481  0.00  0.00    +0.000 A 
ATOM      6  C   UNL     1       5.032   3.426  17.492  0.00  0.00    +0.000 C 
ATOM      7  N   UNL     1       3.457   5.334  18.213  0.00  0.00    +0.000 N 
ENDROOT
BRANCH   4   8
ATOM      8  C   UNL     1       6.114   5.785  15.769  0.00  0.00    +0.000 C 
ATOM      9  C   UNL     1       6.139   5.055  14.647  0.00  0.00    +0.000 C 
ATOM     10  S   UNL     1       4.897   4.044  14.018  0.00  0.00    +0.000 S 
ATOM     11  C   UNL     1       5.964   3.581  12.724  0.00  0.00    +0.000 C 
ATOM     12  N   UNL     1       5.494   2.675  11.832  0.00  0.00    +0.000 N 
ATOM     13  N   UNL     1       7.126   4.130  12.692  0.00  0.00    +0.000 NA
ATOM     14  C   UNL     1       7.330   4.991  13.750  0.00  0.00    +0.000 C 
ATOM     15  O   UNL     1       8.354   5.634  13.944  0.00  0.00    +0.000 OA
ATOM     16  H   UNL     1       4.491   2.579  11.767  0.00  0.00    +0.000 HD
ATOM     17  H   UNL     1       5.998   2.635  10.954  0.00  0.00    +0.000 HD
ENDBRANCH   4   8
BRANCH   7  18
ATOM     18  C   UNL     1       2.657   4.582  19.143  0.00  0.00    +0.000 A 
ATOM     19  C   UNL     1       2.989   4.529  20.503  0.00  0.00    +0.000 A 
ATOM     20  C   UNL     1       2.275   3.716  21.388  0.00  0.00    +0.000 A 
ATOM     21  C   UNL     1       1.177   2.993  20.939  0.00  0.00    +0.000 A 
ATOM     22  C   UNL     1       0.799   3.077  19.604  0.00  0.00    +0.000 A 
ATOM     23  C   UNL     1       1.545   3.850  18.707  0.00  0.00    +0.000 A 
ENDBRANCH   7  18
TORSDOF 2
ENDMDL
MODEL 3
REMARK VINA RESULT:      -7.6      4.062      6.580
REMARK  Name = 
REMARK  4 active torsions:
REMARK  status: ('A' for Active; 'I' for Inactive)
REMARK    1  A    between atoms: C_1  and  C_2
REMARK    2  A    between atoms: C_4  and  C_5
REMARK    3  A    between atoms: C_13  and  C_14
REMARK    4  A    between atoms: N_15  and  C_16
REMARK                            x       y       z     vdW  Elec       q    Type
REMARK                         _______ _______ _______ _____ _____    ______ ____
ROOT
ATOM      1  C   UNL     1      -0.109   8.867  21.939  0.00  0.00    +0.000 C 
ATOM      2  C   UNL     1       0.867   8.442  20.893  0.00  0.00    +0.000 A 
ATOM      3  C   UNL     1       1.683   7.330  20.970  0.00  0.00    +0.000 A 
ATOM      4  C   UNL     1       2.355   7.205  19.748  0.00  0.00    +0.000 A 
ATOM      5  C   UNL     1       1.967   8.248  18.925  0.00  0.00    +0.000 A 
ATOM      6  C   UNL     1       2.520   8.582  17.574  0.00  0.00    +0.000 C 
ATOM      7  N   UNL     1       1.036   9.032  19.631  0.00  0.00    +0.000 N 
ENDROOT
BRANCH   4   8
ATOM      8  C   UNL     1       3.301   6.193  19.414  0.00  0.00    +0.000 C 
ATOM      9  C   UNL     1       3.013   4.917  19.130  0.00  0.00    +0.000 C 
ATOM     10  S   UNL     1       1.465   4.166  19.099  0.00  0.00    +0.000 S 
ATOM     11  C   UNL     1       2.236   2.648  18.746  0.00  0.00    +0.000 C 
ATOM     12  N   UNL     1       1.434   1.561  18.632  0.00  0.00    +0.000 N 
ATOM     13  N   UNL     1       3.514   2.652  18.608  0.00  0.00    +0.000 NA
ATOM     14  C   UNL     1       4.060   3.903  18.809  0.00  0.00    +0.000 C 
ATOM     15  O   UNL     1       5.253   4.168  18.735  0.00  0.00    +0.000 OA
ATOM     16  H   UNL     1       0.460   1.733  18.429  0.00  0.00    +0.000 HD
ATOM     17  H   UNL     1       1.849   0.768  18.156  0.00  0.00    +0.000 HD
ENDBRANCH   4   8
BRANCH   7  18
ATOM     18  C   UNL     1       0.406  10.234  19.155  0.00  0.00    +0.000 A 
ATOM     19  C   UNL     1       0.987  11.490  19.375  0.00  0.00    +0.000 A 
ATOM     20  C   UNL     1       0.326  12.665  19.005  0.00  0.00    +0.000 A 
ATOM     21  C   UNL     1      -0.898  12.600  18.350  0.00  0.00    +0.000 A 
ATOM     22  C   UNL     1      -1.463  11.360  18.072  0.00  0.00    +0.000 A 
ATOM     23  C   UNL     1      -0.826  10.186  18.489  0.00  0.00    +0.000 A 
ENDBRANCH   7  18
TORSDOF 2
ENDMDL
MODEL 4
REMARK VINA RESULT:      -7.5      4.059      6.538
REMARK  Name = 
REMARK  4 active torsions:
REMARK  status: ('A' for Active; 'I' for Inactive)
REMARK    1  A    between atoms: C_1  and  C_2
REMARK    2  A    between atoms: C_4  and  C_5
REMARK    3  A    between atoms: C_13  and  C_14
REMARK    4  A    between atoms: N_15  and  C_16
REMARK                            x       y       z     vdW  Elec       q    Type
REMARK                         _______ _______ _______ _____ _____    ______ ____
ROOT
ATOM      1  C   UNL     1      -0.158   8.798  22.008  0.00  0.00    +0.000 C 
ATOM      2  C   UNL     1       0.823   8.408  20.953  0.00  0.00    +0.000 A 
ATOM      3  C   UNL     1       1.636   7.292  20.993  0.00  0.00    +0.000 A 
ATOM      4  C   UNL     1       2.314   7.210  19.771  0.00  0.00    +0.000 A 
ATOM      5  C   UNL     1       1.934   8.284  18.986  0.00  0.00    +0.000 A 
ATOM      6  C   UNL     1       2.496   8.666  17.651  0.00  0.00    +0.000 C 
ATOM      7  N   UNL     1       1.001   9.044  19.715  0.00  0.00    +0.000 N 
ENDROOT
BRANCH   4   8
ATOM      8  C   UNL     1       3.259   6.208  19.406  0.00  0.00    +0.000 C 
ATOM      9  C   UNL     1       2.975   4.928  19.133  0.00  0.00    +0.000 C 
ATOM     10  S   UNL     1       1.435   4.161  19.158  0.00  0.00    +0.000 S 
ATOM     11  C   UNL     1       2.210   2.650  18.779  0.00  0.00    +0.000 C 
ATOM     12  N   UNL     1       1.417   1.555  18.695  0.00  0.00    +0.000 N 
ATOM     13  N   UNL     1       3.482   2.668  18.596  0.00  0.00    +0.000 NA
ATOM     14  C   UNL     1       4.021   3.926  18.777  0.00  0.00    +0.000 C 
ATOM     15  O   UNL     1       5.208   4.203  18.662  0.00  0.00    +0.000 OA
ATOM     16  H   UNL     1       0.434   1.716  18.525  0.00  0.00    +0.000 HD
ATOM     17  H   UNL     1       1.823   0.766  18.205  0.00  0.00    +0.000 HD
ENDBRANCH   4   8
BRANCH   7  18
ATOM     18  C   UNL     1       0.377  10.265  19.279  0.00  0.00    +0.000 A 
ATOM     19  C   UNL     1      -0.827  10.245  18.565  0.00  0.00    +0.000 A 
ATOM     20  C   UNL     1      -1.381  11.422  18.051  0.00  0.00    +0.000 A 
ATOM     21  C   UNL     1      -0.771  12.645  18.300  0.00  0.00    +0.000 A 
ATOM     22  C   UNL     1       0.396  12.690  19.055  0.00  0.00    +0.000 A 
ATOM     23  C   UNL     1       0.977  11.508  19.525  0.00  0.00    +0.000 A 
ENDBRANCH   7  18
TORSDOF 2
ENDMDL
MODEL 5
REMARK VINA RESULT:      -7.3      3.413      4.962
REMARK  Name = 
REMARK  4 active torsions:
REMARK  status: ('A' for Active; 'I' for Inactive)
REMARK    1  A    between atoms: C_1  and  C_2
REMARK    2  A    between atoms: C_4  and  C_5
REMARK    3  A    between atoms: C_13  and  C_14
REMARK    4  A    between atoms: N_15  and  C_16
REMARK                            x       y       z     vdW  Elec       q    Type
REMARK                         _______ _______ _______ _____ _____    ______ ____
ROOT
ATOM      1  C   UNL     1       1.897  10.483  18.084  0.00  0.00    +0.000 C 
ATOM      2  C   UNL     1       1.998   9.041  18.453  0.00  0.00    +0.000 A 
ATOM      3  C   UNL     1       2.596   8.061  17.684  0.00  0.00    +0.000 A 
ATOM      4  C   UNL     1       2.597   6.873  18.426  0.00  0.00    +0.000 A 
ATOM      5  C   UNL     1       1.985   7.116  19.643  0.00  0.00    +0.000 A 
ATOM      6  C   UNL     1       1.656   6.109  20.702  0.00  0.00    +0.000 C 
ATOM      7  N   UNL     1       1.603   8.470  19.673  0.00  0.00    +0.000 N 
ENDROOT
BRANCH   4   8
ATOM      8  C   UNL     1       3.113   5.618  17.993  0.00  0.00    +0.000 C 
ATOM      9  C   UNL     1       4.287   5.426  17.377  0.00  0.00    +0.000 C 
ATOM     10  S   UNL     1       5.457   6.611  16.943  0.00  0.00    +0.000 S 
ATOM     11  C   UNL     1       6.409   5.360  16.197  0.00  0.00    +0.000 C 
ATOM     12  N   UNL     1       7.558   5.741  15.588  0.00  0.00    +0.000 N 
ATOM     13  N   UNL     1       5.967   4.156  16.275  0.00  0.00    +0.000 NA
ATOM     14  C   UNL     1       4.755   4.081  16.931  0.00  0.00    +0.000 C 
ATOM     15  O   UNL     1       4.129   3.049  17.132  0.00  0.00    +0.000 OA
ATOM     16  H   UNL     1       7.955   6.624  15.877  0.00  0.00    +0.000 HD
ATOM     17  H   UNL     1       8.223   4.995  15.419  0.00  0.00    +0.000 HD
ENDBRANCH   4   8
BRANCH   7  18
ATOM     18  C   UNL     1       0.906   9.131  20.743  0.00  0.00    +0.000 A 
ATOM     19  C   UNL     1       1.274   8.925  22.079  0.00  0.00    +0.000 A 
ATOM     20  C   UNL     1       0.533   9.483  23.125  0.00  0.00    +0.000 A 
ATOM     21  C   UNL     1      -0.550  10.310  22.849  0.00  0.00    +0.000 A 
ATOM     22  C   UNL     1      -0.895  10.570  21.528  0.00  0.00    +0.000 A 
ATOM     23  C   UNL     1      -0.186   9.970  20.482  0.00  0.00    +0.000 A 
ENDBRANCH   7  18
TORSDOF 2
ENDMDL
MODEL 6
REMARK VINA RESULT:      -7.3      3.316      4.772
REMARK  Name = 
REMARK  4 active torsions:
REMARK  status: ('A' for Active; 'I' for Inactive)
REMARK    1  A    between atoms: C_1  and  C_2
REMARK    2  A    between atoms: C_4  and  C_5
REMARK    3  A    between atoms: C_13  and  C_14
REMARK    4  A    between atoms: N_15  and  C_16
REMARK                            x       y       z     vdW  Elec       q    Type
REMARK                         _______ _______ _______ _____ _____    ______ ____
ROOT
ATOM      1  C   UNL     1       2.025  10.354  18.024  0.00  0.00    +0.000 C 
ATOM      2  C   UNL     1       2.109   8.911  18.395  0.00  0.00    +0.000 A 
ATOM      3  C   UNL     1       2.738   7.932  17.650  0.00  0.00    +0.000 A 
ATOM      4  C   UNL     1       2.707   6.743  18.390  0.00  0.00    +0.000 A 
ATOM      5  C   UNL     1       2.045   6.985  19.581  0.00  0.00    +0.000 A 
ATOM      6  C   UNL     1       1.671   5.977  20.624  0.00  0.00    +0.000 C 
ATOM      7  N   UNL     1       1.663   8.340  19.596  0.00  0.00    +0.000 N 
ENDROOT
BRANCH   4   8
ATOM      8  C   UNL     1       3.239   5.488  17.977  0.00  0.00    +0.000 C 
ATOM      9  C   UNL     1       4.378   5.309  17.295  0.00  0.00    +0.000 C 
ATOM     10  S   UNL     1       5.475   6.512  16.738  0.00  0.00    +0.000 S 
ATOM     11  C   UNL     1       6.422   5.262  15.984  0.00  0.00    +0.000 C 
ATOM     12  N   UNL     1       7.516   5.654  15.287  0.00  0.00    +0.000 N 
ATOM     13  N   UNL     1       6.030   4.048  16.140  0.00  0.00    +0.000 NA
ATOM     14  C   UNL     1       4.865   3.962  16.876  0.00  0.00    +0.000 C 
ATOM     15  O   UNL     1       4.291   2.920  17.160  0.00  0.00    +0.000 OA
ATOM     16  H   UNL     1       7.898   6.561  15.512  0.00  0.00    +0.000 HD
ATOM     17  H   UNL     1       8.195   4.923  15.106  0.00  0.00    +0.000 HD
ENDBRANCH   4   8
BRANCH   7  18
ATOM     18  C   UNL     1       0.922   9.000  20.638  0.00  0.00    +0.000 A 
ATOM     19  C   UNL     1      -0.151   9.847  20.334  0.00  0.00    +0.000 A 
ATOM     20  C   UNL     1      -0.805  10.570  21.336  0.00  0.00    +0.000 A 
ATOM     21  C   UNL     1      -0.437  10.407  22.666  0.00  0.00    +0.000 A 
ATOM     22  C   UNL     1       0.589   9.527  22.992  0.00  0.00    +0.000 A 
ATOM     23  C   UNL     1       1.277   8.842  21.984  0.00  0.00    +0.000 A 
ENDBRANCH   7  18
TORSDOF 2
ENDMDL
MODEL 7
REMARK VINA RESULT:      -7.1      4.589      7.172
REMARK  Name = 
REMARK  4 active torsions:
REMARK  status: ('A' for Active; 'I' for Inactive)
REMARK    1  A    between atoms: C_1  and  C_2
REMARK    2  A    between atoms: C_4  and  C_5
REMARK    3  A    between atoms: C_13  and  C_14
REMARK    4  A    between atoms: N_15  and  C_16
REMARK                            x       y       z     vdW  Elec       q    Type
REMARK                         _______ _______ _______ _____ _____    ______ ____
ROOT
ATOM      1  C   UNL     1       4.349   6.459  16.707  0.00  0.00    +0.000 C 
ATOM      2  C   UNL     1       3.524   6.664  17.934  0.00  0.00    +0.000 A 
ATOM      3  C   UNL     1       3.095   7.888  18.411  0.00  0.00    +0.000 A 
ATOM      4  C   UNL     1       2.248   7.652  19.501  0.00  0.00    +0.000 A 
ATOM      5  C   UNL     1       2.169   6.286  19.707  0.00  0.00    +0.000 A 
ATOM      6  C   UNL     1       1.477   5.584  20.834  0.00  0.00    +0.000 C 
ATOM      7  N   UNL     1       2.966   5.655  18.733  0.00  0.00    +0.000 N 
ENDROOT
BRANCH   4   8
ATOM      8  C   UNL     1       1.600   8.648  20.286  0.00  0.00    +0.000 C 
ATOM      9  C   UNL     1       0.792   9.608  19.818  0.00  0.00    +0.000 C 
ATOM     10  S   UNL     1       0.337   9.902  18.185  0.00  0.00    +0.000 S 
ATOM     11  C   UNL     1      -0.552  11.301  18.711  0.00  0.00    +0.000 C 
ATOM     12  N   UNL     1      -1.165  12.038  17.753  0.00  0.00    +0.000 N 
ATOM     13  N   UNL     1      -0.579  11.545  19.973  0.00  0.00    +0.000 NA
ATOM     14  C   UNL     1       0.162  10.635  20.699  0.00  0.00    +0.000 C 
ATOM     15  O   UNL     1       0.296  10.651  21.916  0.00  0.00    +0.000 OA
ATOM     16  H   UNL     1      -1.352  11.576  16.874  0.00  0.00    +0.000 HD
ATOM     17  H   UNL     1      -1.894  12.658  18.087  0.00  0.00    +0.000 HD
ENDBRANCH   4   8
BRANCH   7  18
ATOM     18  C   UNL     1       3.190   4.239  18.608  0.00  0.00    +0.000 A 
ATOM     19  C   UNL     1       2.445   3.468  17.705  0.00  0.00    +0.000 A 
ATOM     20  C   UNL     1       2.588   2.078  17.656  0.00  0.00    +0.000 A 
ATOM     21  C   UNL     1       3.525   1.445  18.465  0.00  0.00    +0.000 A 
ATOM     22  C   UNL     1       4.312   2.201  19.326  0.00  0.00    +0.000 A 
ATOM     23  C   UNL     1       4.133   3.586  19.412  0.00  0.00    +0.000 A 
ENDBRANCH   7  18
TORSDOF 2
ENDMDL
MODEL 8
REMARK VINA RESULT:      -7.0      4.677      7.265
REMARK  Name = 
REMARK  4 active torsions:
REMARK  status: ('A' for Active; 'I' for Inactive)
REMARK    1  A    between atoms: C_1  and  C_2
REMARK    2  A    between atoms: C_4  and  C_5
REMARK    3  A    between atoms: C_13  and  C_14
REMARK    4  A    between atoms: N_15  and  C_16
REMARK                            x       y       z     vdW  Elec       q    Type
REMARK                         _______ _______ _______ _____ _____    ______ ____
ROOT
ATOM      1  C   UNL     1       0.008   9.451  22.023  0.00  0.00    +0.000 C 
ATOM      2  C   UNL     1       0.869   8.892  20.940  0.00  0.00    +0.000 A 
ATOM      3  C   UNL     1       1.589   7.715  21.023  0.00  0.00    +0.000 A 
ATOM      4  C   UNL     1       2.162   7.474  19.768  0.00  0.00    +0.000 A 
ATOM      5  C   UNL     1       1.811   8.509  18.919  0.00  0.00    +0.000 A 
ATOM      6  C   UNL     1       2.297   8.729  17.519  0.00  0.00    +0.000 C 
ATOM      7  N   UNL     1       1.002   9.406  19.642  0.00  0.00    +0.000 N 
ENDROOT
BRANCH   4   8
ATOM      8  C   UNL     1       2.991   6.367  19.427  0.00  0.00    +0.000 C 
ATOM      9  C   UNL     1       2.881   5.127  19.921  0.00  0.00    +0.000 C 
ATOM     10  S   UNL     1       1.746   4.548  21.077  0.00  0.00    +0.000 S 
ATOM     11  C   UNL     1       2.530   2.996  21.032  0.00  0.00    +0.000 C 
ATOM     12  N   UNL     1       2.042   2.035  21.855  0.00  0.00    +0.000 N 
ATOM     13  N   UNL     1       3.516   2.855  20.220  0.00  0.00    +0.000 NA
ATOM     14  C   UNL     1       3.802   4.018  19.534  0.00  0.00    +0.000 C 
ATOM     15  O   UNL     1       4.695   4.142  18.706  0.00  0.00    +0.000 OA
ATOM     16  H   UNL     1       1.093   2.153  22.179  0.00  0.00    +0.000 HD
ATOM     17  H   UNL     1       2.310   1.088  21.616  0.00  0.00    +0.000 HD
ENDBRANCH   4   8
BRANCH   7  18
ATOM     18  C   UNL     1       0.447  10.636  19.144  0.00  0.00    +0.000 A 
ATOM     19  C   UNL     1       1.171  11.834  19.215  0.00  0.00    +0.000 A 
ATOM     20  C   UNL     1       0.595  13.048  18.829  0.00  0.00    +0.000 A 
ATOM     21  C   UNL     1      -0.692  13.073  18.305  0.00  0.00    +0.000 A 
ATOM     22  C   UNL     1      -1.404  11.886  18.175  0.00  0.00    +0.000 A 
ATOM     23  C   UNL     1      -0.847  10.679  18.610  0.00  0.00    +0.000 A 
ENDBRANCH   7  18
TORSDOF 2
ENDMDL
MODEL 9
REMARK VINA RESULT:      -7.0      4.657      7.242
REMARK  Name = 
REMARK  4 active torsions:
REMARK  status: ('A' for Active; 'I' for Inactive)
REMARK    1  A    between atoms: C_1  and  C_2
REMARK    2  A    between atoms: C_4  and  C_5
REMARK    3  A    between atoms: C_13  and  C_14
REMARK    4  A    between atoms: N_15  and  C_16
REMARK                            x       y       z     vdW  Elec       q    Type
REMARK                         _______ _______ _______ _____ _____    ______ ____
ROOT
ATOM      1  C   UNL     1       0.040   9.517  22.138  0.00  0.00    +0.000 C 
ATOM      2  C   UNL     1       0.865   8.968  21.023  0.00  0.00    +0.000 A 
ATOM      3  C   UNL     1       1.591   7.793  21.071  0.00  0.00    +0.000 A 
ATOM      4  C   UNL     1       2.123   7.563  19.796  0.00  0.00    +0.000 A 
ATOM      5  C   UNL     1       1.740   8.603  18.967  0.00  0.00    +0.000 A 
ATOM      6  C   UNL     1       2.178   8.836  17.554  0.00  0.00    +0.000 C 
ATOM      7  N   UNL     1       0.954   9.492  19.724  0.00  0.00    +0.000 N 
ENDROOT
BRANCH   4   8
ATOM      8  C   UNL     1       2.943   6.461  19.419  0.00  0.00    +0.000 C 
ATOM      9  C   UNL     1       2.848   5.215  19.901  0.00  0.00    +0.000 C 
ATOM     10  S   UNL     1       1.746   4.622  21.082  0.00  0.00    +0.000 S 
ATOM     11  C   UNL     1       2.530   3.071  20.997  0.00  0.00    +0.000 C 
ATOM     12  N   UNL     1       2.066   2.100  21.822  0.00  0.00    +0.000 N 
ATOM     13  N   UNL     1       3.492   2.941  20.155  0.00  0.00    +0.000 NA
ATOM     14  C   UNL     1       3.758   4.112  19.475  0.00  0.00    +0.000 C 
ATOM     15  O   UNL     1       4.626   4.246  18.624  0.00  0.00    +0.000 OA
ATOM     16  H   UNL     1       1.127   2.213  22.174  0.00  0.00    +0.000 HD
ATOM     17  H   UNL     1       2.328   1.155  21.564  0.00  0.00    +0.000 HD
ENDBRANCH   4   8
BRANCH   7  18
ATOM     18  C   UNL     1       0.379  10.725  19.255  0.00  0.00    +0.000 A 
ATOM     19  C   UNL     1      -0.890  10.750  18.664  0.00  0.00    +0.000 A 
ATOM     20  C   UNL     1      -1.406  11.928  18.114  0.00  0.00    +0.000 A 
ATOM     21  C   UNL     1      -0.686  13.114  18.206  0.00  0.00    +0.000 A 
ATOM     22  C   UNL     1       0.551  13.118  18.840  0.00  0.00    +0.000 A 
ATOM     23  C   UNL     1       1.090  11.929  19.344  0.00  0.00    +0.000 A 
ENDBRANCH   7  18
TORSDOF 2
ENDMDL
