MODEL 1
REMARK VINA RESULT:      -7.4      0.000      0.000
REMARK  Name = 
REMARK  3 active torsions:
REMARK  status: ('A' for Active; 'I' for Inactive)
REMARK    1  A    between atoms: C_1  and  C_2
REMARK    2  A    between atoms: C_17  and  C_18
REMARK    3  A    between atoms: N_20  and  C_21
REMARK                            x       y       z     vdW  Elec       q    Type
REMARK                         _______ _______ _______ _____ _____    ______ ____
ROOT
ATOM      1  C   UNL     1       2.230  11.866  17.966  0.00  0.00    +0.000 C 
ATOM      2  C   UNL     1       1.460  11.589  19.257  0.00  0.00    +0.000 C 
ATOM      3  C   UNL     1       0.118  12.386  19.328  0.00  0.00    +0.000 C 
ATOM      4  C   UNL     1      -0.365  12.228  20.771  0.00  0.00    +0.000 A 
ATOM      5  C   UNL     1      -0.606  13.268  21.658  0.00  0.00    +0.000 A 
ATOM      6  C   UNL     1      -1.096  12.962  22.927  0.00  0.00    +0.000 A 
ATOM      7  C   UNL     1      -1.333  11.630  23.302  0.00  0.00    +0.000 A 
ATOM      8  C   UNL     1      -1.080  10.579  22.417  0.00  0.00    +0.000 A 
ATOM      9  C   UNL     1      -0.596  10.878  21.152  0.00  0.00    +0.000 A 
ATOM     10  C   UNL     1      -0.315   9.874  20.030  0.00  0.00    +0.000 C 
ATOM     11  C   UNL     1      -1.147  10.322  18.832  0.00  0.00    +0.000 A 
ATOM     12  C   UNL     1      -2.027   9.520  18.117  0.00  0.00    +0.000 A 
ATOM     13  C   UNL     1      -2.632  10.055  16.980  0.00  0.00    +0.000 A 
ATOM     14  C   UNL     1      -2.370  11.375  16.582  0.00  0.00    +0.000 A 
ATOM     15  C   UNL     1      -1.502  12.185  17.307  0.00  0.00    +0.000 A 
ATOM     16  C   UNL     1      -0.886  11.660  18.433  0.00  0.00    +0.000 A 
ATOM     17  C   UNL     1       1.180  10.078  19.620  0.00  0.00    +0.000 C 
ENDROOT
BRANCH  17  18
ATOM     18  C   UNL     1       1.665   9.015  18.630  0.00  0.00    +0.000 C 
ATOM     19  O   UNL     1       1.479   9.218  17.429  0.00  0.00    +0.000 OA
ATOM     20  N   UNL     1       2.265   7.884  19.146  0.00  0.00    +0.000 N 
ATOM     21  H   UNL     1       2.220   7.735  20.146  0.00  0.00    +0.000 HD
BRANCH  20  22
ATOM     22  C   UNL     1       2.805   6.814  18.391  0.00  0.00    +0.000 A 
ATOM     23  C   UNL     1       2.248   5.539  18.388  0.00  0.00    +0.000 A 
ATOM     24  C   UNL     1       2.895   4.532  17.696  0.00  0.00    +0.000 A 
ATOM     25  N   UNL     1       4.032   4.714  16.994  0.00  0.00    +0.000 NA
ATOM     26  C   UNL     1       4.529   5.968  16.971  0.00  0.00    +0.000 A 
ATOM     27  C   UNL     1       3.950   7.045  17.629  0.00  0.00    +0.000 A 
ENDBRANCH  20  22
ENDBRANCH  17  18
TORSDOF 2
ENDMDL
MODEL 2
REMARK VINA RESULT:      -7.1      4.195      7.922
REMARK  Name = 
REMARK  3 active torsions:
REMARK  status: ('A' for Active; 'I' for Inactive)
REMARK    1  A    between atoms: C_1  and  C_2
REMARK    2  A    between atoms: C_17  and  C_18
REMARK    3  A    between atoms: N_20  and  C_21
REMARK                            x       y       z     vdW  Elec       q    Type
REMARK                         _______ _______ _______ _____ _____    ______ ____
ROOT
ATOM      1  C   UNL     1       4.428   2.794  18.138  0.00  0.00    +0.000 C 
ATOM      2  C   UNL     1       3.838   4.195  17.972  0.00  0.00    +0.000 C 
ATOM      3  C   UNL     1       4.176   5.125  19.181  0.00  0.00    +0.000 C 
ATOM      4  C   UNL     1       3.286   6.356  18.999  0.00  0.00    +0.000 A 
ATOM      5  C   UNL     1       2.348   6.814  19.914  0.00  0.00    +0.000 A 
ATOM      6  C   UNL     1       1.649   7.986  19.623  0.00  0.00    +0.000 A 
ATOM      7  C   UNL     1       1.885   8.683  18.428  0.00  0.00    +0.000 A 
ATOM      8  C   UNL     1       2.820   8.220  17.498  0.00  0.00    +0.000 A 
ATOM      9  C   UNL     1       3.520   7.056  17.785  0.00  0.00    +0.000 A 
ATOM     10  C   UNL     1       4.618   6.427  16.923  0.00  0.00    +0.000 C 
ATOM     11  C   UNL     1       5.854   6.316  17.812  0.00  0.00    +0.000 A 
ATOM     12  C   UNL     1       7.119   6.794  17.496  0.00  0.00    +0.000 A 
ATOM     13  C   UNL     1       8.166   6.518  18.375  0.00  0.00    +0.000 A 
ATOM     14  C   UNL     1       7.941   5.790  19.554  0.00  0.00    +0.000 A 
ATOM     15  C   UNL     1       6.670   5.325  19.879  0.00  0.00    +0.000 A 
ATOM     16  C   UNL     1       5.623   5.585  19.007  0.00  0.00    +0.000 A 
ATOM     17  C   UNL     1       4.163   4.960  16.629  0.00  0.00    +0.000 C 
ENDROOT
BRANCH  17  18
ATOM     18  C   UNL     1       5.073   4.255  15.621  0.00  0.00    +0.000 C 
ATOM     19  O   UNL     1       5.988   3.556  16.059  0.00  0.00    +0.000 OA
ATOM     20  N   UNL     1       4.825   4.463  14.279  0.00  0.00    +0.000 N 
ATOM     21  H   UNL     1       4.161   5.182  14.022  0.00  0.00    +0.000 HD
BRANCH  20  22
ATOM     22  C   UNL     1       5.535   3.872  13.203  0.00  0.00    +0.000 A 
ATOM     23  C   UNL     1       4.986   2.881  12.395  0.00  0.00    +0.000 A 
ATOM     24  C   UNL     1       5.783   2.296  11.428  0.00  0.00    +0.000 A 
ATOM     25  N   UNL     1       7.064   2.646  11.198  0.00  0.00    +0.000 NA
ATOM     26  C   UNL     1       7.561   3.642  11.960  0.00  0.00    +0.000 A 
ATOM     27  C   UNL     1       6.840   4.293  12.952  0.00  0.00    +0.000 A 
ENDBRANCH  20  22
ENDBRANCH  17  18
TORSDOF 2
ENDMDL
MODEL 3
REMARK VINA RESULT:      -7.0      3.617      6.586
REMARK  Name = 
REMARK  3 active torsions:
REMARK  status: ('A' for Active; 'I' for Inactive)
REMARK    1  A    between atoms: C_1  and  C_2
REMARK    2  A    between atoms: C_17  and  C_18
REMARK    3  A    between atoms: N_20  and  C_21
REMARK                            x       y       z     vdW  Elec       q    Type
REMARK                         _______ _______ _______ _____ _____    ______ ____
ROOT
ATOM      1  C   UNL     1       1.985  10.933  18.519  0.00  0.00    +0.000 C 
ATOM      2  C   UNL     1       0.502  11.302  18.488  0.00  0.00    +0.000 C 
ATOM      3  C   UNL     1      -0.416  10.097  18.868  0.00  0.00    +0.000 C 
ATOM      4  C   UNL     1      -1.834  10.543  18.508  0.00  0.00    +0.000 A 
ATOM      5  C   UNL     1      -2.679   9.897  17.615  0.00  0.00    +0.000 A 
ATOM      6  C   UNL     1      -3.966  10.402  17.432  0.00  0.00    +0.000 A 
ATOM      7  C   UNL     1      -4.395  11.542  18.129  0.00  0.00    +0.000 A 
ATOM      8  C   UNL     1      -3.544  12.204  19.018  0.00  0.00    +0.000 A 
ATOM      9  C   UNL     1      -2.263  11.704  19.207  0.00  0.00    +0.000 A 
ATOM     10  C   UNL     1      -1.212  12.252  20.176  0.00  0.00    +0.000 C 
ATOM     11  C   UNL     1      -0.824  11.095  21.092  0.00  0.00    +0.000 A 
ATOM     12  C   UNL     1      -0.828  11.130  22.480  0.00  0.00    +0.000 A 
ATOM     13  C   UNL     1      -0.345  10.018  23.170  0.00  0.00    +0.000 A 
ATOM     14  C   UNL     1       0.118   8.889  22.476  0.00  0.00    +0.000 A 
ATOM     15  C   UNL     1       0.107   8.847  21.085  0.00  0.00    +0.000 A 
ATOM     16  C   UNL     1      -0.362   9.950  20.389  0.00  0.00    +0.000 A 
ATOM     17  C   UNL     1       0.057  12.569  19.318  0.00  0.00    +0.000 C 
ENDROOT
BRANCH  17  18
ATOM     18  C   UNL     1       1.136  13.300  20.120  0.00  0.00    +0.000 C 
ATOM     19  O   UNL     1       1.455  12.836  21.216  0.00  0.00    +0.000 OA
ATOM     20  N   UNL     1       1.674  14.448  19.573  0.00  0.00    +0.000 N 
ATOM     21  H   UNL     1       1.230  14.838  18.752  0.00  0.00    +0.000 HD
BRANCH  20  22
ATOM     22  C   UNL     1       2.702  15.237  20.147  0.00  0.00    +0.000 A 
ATOM     23  C   UNL     1       2.442  16.341  20.952  0.00  0.00    +0.000 A 
ATOM     24  C   UNL     1       3.504  17.108  21.393  0.00  0.00    +0.000 A 
ATOM     25  N   UNL     1       4.795  16.837  21.110  0.00  0.00    +0.000 NA
ATOM     26  C   UNL     1       5.027  15.735  20.368  0.00  0.00    +0.000 A 
ATOM     27  C   UNL     1       4.030  14.900  19.883  0.00  0.00    +0.000 A 
ENDBRANCH  20  22
ENDBRANCH  17  18
TORSDOF 2
ENDMDL
MODEL 4
REMARK VINA RESULT:      -7.0      4.204      7.099
REMARK  Name = 
REMARK  3 active torsions:
REMARK  status: ('A' for Active; 'I' for Inactive)
REMARK    1  A    between atoms: C_1  and  C_2
REMARK    2  A    between atoms: C_17  and  C_18
REMARK    3  A    between atoms: N_20  and  C_21
REMARK                            x       y       z     vdW  Elec       q    Type
REMARK                         _______ _______ _______ _____ _____    ______ ____
ROOT
ATOM      1  C   UNL     1       6.024   5.548  19.101  0.00  0.00    +0.000 C 
ATOM      2  C   UNL     1       4.794   4.644  19.170  0.00  0.00    +0.000 C 
ATOM      3  C   UNL     1       3.672   5.239  20.080  0.00  0.00    +0.000 C 
ATOM      4  C   UNL     1       2.666   4.103  20.272  0.00  0.00    +0.000 A 
ATOM      5  C   UNL     1       2.286   3.562  21.492  0.00  0.00    +0.000 A 
ATOM      6  C   UNL     1       1.315   2.560  21.504  0.00  0.00    +0.000 A 
ATOM      7  C   UNL     1       0.740   2.105  20.307  0.00  0.00    +0.000 A 
ATOM      8  C   UNL     1       1.129   2.638  19.075  0.00  0.00    +0.000 A 
ATOM      9  C   UNL     1       2.092   3.637  19.058  0.00  0.00    +0.000 A 
ATOM     10  C   UNL     1       2.603   4.380  17.820  0.00  0.00    +0.000 C 
ATOM     11  C   UNL     1       2.363   5.865  18.079  0.00  0.00    +0.000 A 
ATOM     12  C   UNL     1       1.696   6.734  17.226  0.00  0.00    +0.000 A 
ATOM     13  C   UNL     1       1.655   8.087  17.563  0.00  0.00    +0.000 A 
ATOM     14  C   UNL     1       2.259   8.551  18.741  0.00  0.00    +0.000 A 
ATOM     15  C   UNL     1       2.914   7.678  19.605  0.00  0.00    +0.000 A 
ATOM     16  C   UNL     1       2.970   6.333  19.275  0.00  0.00    +0.000 A 
ATOM     17  C   UNL     1       4.155   4.188  17.800  0.00  0.00    +0.000 C 
ENDROOT
BRANCH  17  18
ATOM     18  C   UNL     1       4.793   4.721  16.514  0.00  0.00    +0.000 C 
ATOM     19  O   UNL     1       4.725   5.932  16.296  0.00  0.00    +0.000 OA
ATOM     20  N   UNL     1       5.389   3.808  15.668  0.00  0.00    +0.000 N 
ATOM     21  H   UNL     1       5.247   2.824  15.852  0.00  0.00    +0.000 HD
BRANCH  20  22
ATOM     22  C   UNL     1       6.058   4.115  14.456  0.00  0.00    +0.000 A 
ATOM     23  C   UNL     1       5.707   3.541  13.239  0.00  0.00    +0.000 A 
ATOM     24  C   UNL     1       6.474   3.827  12.124  0.00  0.00    +0.000 A 
ATOM     25  N   UNL     1       7.537   4.656  12.136  0.00  0.00    +0.000 NA
ATOM     26  C   UNL     1       7.831   5.238  13.317  0.00  0.00    +0.000 A 
ATOM     27  C   UNL     1       7.120   5.019  14.489  0.00  0.00    +0.000 A 
ENDBRANCH  20  22
ENDBRANCH  17  18
TORSDOF 2
ENDMDL
MODEL 5
REMARK VINA RESULT:      -6.9      4.070      7.064
REMARK  Name = 
REMARK  3 active torsions:
REMARK  status: ('A' for Active; 'I' for Inactive)
REMARK    1  A    between atoms: C_1  and  C_2
REMARK    2  A    between atoms: C_17  and  C_18
REMARK    3  A    between atoms: N_20  and  C_21
REMARK                            x       y       z     vdW  Elec       q    Type
REMARK                         _______ _______ _______ _____ _____    ______ ____
ROOT
ATOM      1  C   UNL     1       0.212   9.615  21.431  0.00  0.00    +0.000 C 
ATOM      2  C   UNL     1       0.595  10.979  20.858  0.00  0.00    +0.000 C 
ATOM      3  C   UNL     1       0.750  10.945  19.304  0.00  0.00    +0.000 C 
ATOM      4  C   UNL     1       1.406  12.277  18.937  0.00  0.00    +0.000 A 
ATOM      5  C   UNL     1       2.617  12.422  18.273  0.00  0.00    +0.000 A 
ATOM      6  C   UNL     1       3.057  13.709  17.964  0.00  0.00    +0.000 A 
ATOM      7  C   UNL     1       2.297  14.833  18.324  0.00  0.00    +0.000 A 
ATOM      8  C   UNL     1       1.084  14.692  19.004  0.00  0.00    +0.000 A 
ATOM      9  C   UNL     1       0.640  13.414  19.310  0.00  0.00    +0.000 A 
ATOM     10  C   UNL     1      -0.683  13.056  19.995  0.00  0.00    +0.000 C 
ATOM     11  C   UNL     1      -1.416  12.108  19.049  0.00  0.00    +0.000 A 
ATOM     12  C   UNL     1      -2.720  12.268  18.601  0.00  0.00    +0.000 A 
ATOM     13  C   UNL     1      -3.278  11.254  17.822  0.00  0.00    +0.000 A 
ATOM     14  C   UNL     1      -2.533  10.112  17.489  0.00  0.00    +0.000 A 
ATOM     15  C   UNL     1      -1.220   9.959  17.925  0.00  0.00    +0.000 A 
ATOM     16  C   UNL     1      -0.658  10.956  18.709  0.00  0.00    +0.000 A 
ATOM     17  C   UNL     1      -0.312  12.209  21.256  0.00  0.00    +0.000 C 
ENDROOT
BRANCH  17  18
ATOM     18  C   UNL     1      -1.523  11.930  22.150  0.00  0.00    +0.000 C 
ATOM     19  O   UNL     1      -1.467  10.963  22.912  0.00  0.00    +0.000 OA
ATOM     20  N   UNL     1      -2.612  12.770  22.034  0.00  0.00    +0.000 N 
ATOM     21  H   UNL     1      -2.627  13.429  21.267  0.00  0.00    +0.000 HD
BRANCH  20  22
ATOM     22  C   UNL     1      -3.804  12.692  22.798  0.00  0.00    +0.000 A 
ATOM     23  C   UNL     1      -3.804  12.463  24.170  0.00  0.00    +0.000 A 
ATOM     24  C   UNL     1      -5.015  12.310  24.818  0.00  0.00    +0.000 A 
ATOM     25  N   UNL     1      -6.212  12.395  24.203  0.00  0.00    +0.000 NA
ATOM     26  C   UNL     1      -6.190  12.666  22.882  0.00  0.00    +0.000 A 
ATOM     27  C   UNL     1      -5.027  12.840  22.144  0.00  0.00    +0.000 A 
ENDBRANCH  20  22
ENDBRANCH  17  18
TORSDOF 2
ENDMDL
MODEL 6
REMARK VINA RESULT:      -6.9      3.807      7.195
REMARK  Name = 
REMARK  3 active torsions:
REMARK  status: ('A' for Active; 'I' for Inactive)
REMARK    1  A    between atoms: C_1  and  C_2
REMARK    2  A    between atoms: C_17  and  C_18
REMARK    3  A    between atoms: N_20  and  C_21
REMARK                            x       y       z     vdW  Elec       q    Type
REMARK                         _______ _______ _______ _____ _____    ______ ____
ROOT
ATOM      1  C   UNL     1       2.183  12.088  18.700  0.00  0.00    +0.000 C 
ATOM      2  C   UNL     1       0.661  12.034  18.566  0.00  0.00    +0.000 C 
ATOM      3  C   UNL     1       0.113  10.573  18.632  0.00  0.00    +0.000 C 
ATOM      4  C   UNL     1      -1.350  10.673  18.196  0.00  0.00    +0.000 A 
ATOM      5  C   UNL     1      -1.916  10.006  17.118  0.00  0.00    +0.000 A 
ATOM      6  C   UNL     1      -3.282  10.162  16.881  0.00  0.00    +0.000 A 
ATOM      7  C   UNL     1      -4.064  10.983  17.708  0.00  0.00    +0.000 A 
ATOM      8  C   UNL     1      -3.496  11.666  18.786  0.00  0.00    +0.000 A 
ATOM      9  C   UNL     1      -2.139  11.511  19.029  0.00  0.00    +0.000 A 
ATOM     10  C   UNL     1      -1.352  12.128  20.189  0.00  0.00    +0.000 C 
ATOM     11  C   UNL     1      -0.698  10.967  20.933  0.00  0.00    +0.000 A 
ATOM     12  C   UNL     1      -0.793  10.729  22.298  0.00  0.00    +0.000 A 
ATOM     13  C   UNL     1      -0.048   9.681  22.838  0.00  0.00    +0.000 A 
ATOM     14  C   UNL     1       0.763   8.880  22.019  0.00  0.00    +0.000 A 
ATOM     15  C   UNL     1       0.847   9.109  20.649  0.00  0.00    +0.000 A 
ATOM     16  C   UNL     1       0.118  10.154  20.102  0.00  0.00    +0.000 A 
ATOM     17  C   UNL     1      -0.182  12.943  19.545  0.00  0.00    +0.000 C 
ENDROOT
BRANCH  17  18
ATOM     18  C   UNL     1       0.589  13.773  20.574  0.00  0.00    +0.000 C 
ATOM     19  O   UNL     1       1.019  13.196  21.575  0.00  0.00    +0.000 OA
ATOM     20  N   UNL     1       0.740  15.122  20.327  0.00  0.00    +0.000 N 
ATOM     21  H   UNL     1       0.210  15.530  19.567  0.00  0.00    +0.000 HD
BRANCH  20  22
ATOM     22  C   UNL     1       1.448  16.041  21.142  0.00  0.00    +0.000 A 
ATOM     23  C   UNL     1       2.800  16.314  20.966  0.00  0.00    +0.000 A 
ATOM     24  C   UNL     1       3.432  17.153  21.865  0.00  0.00    +0.000 A 
ATOM     25  N   UNL     1       2.808  17.751  22.900  0.00  0.00    +0.000 NA
ATOM     26  C   UNL     1       1.486  17.510  23.024  0.00  0.00    +0.000 A 
ATOM     27  C   UNL     1       0.763  16.688  22.171  0.00  0.00    +0.000 A 
ENDBRANCH  20  22
ENDBRANCH  17  18
TORSDOF 2
ENDMDL
MODEL 7
REMARK VINA RESULT:      -6.8      4.027      7.164
REMARK  Name = 
REMARK  3 active torsions:
REMARK  status: ('A' for Active; 'I' for Inactive)
REMARK    1  A    between atoms: C_1  and  C_2
REMARK    2  A    between atoms: C_17  and  C_18
REMARK    3  A    between atoms: N_20  and  C_21
REMARK                            x       y       z     vdW  Elec       q    Type
REMARK                         _______ _______ _______ _____ _____    ______ ____
ROOT
ATOM      1  C   UNL     1       1.788  11.718  18.656  0.00  0.00    +0.000 C 
ATOM      2  C   UNL     1       0.284  11.791  18.391  0.00  0.00    +0.000 C 
ATOM      3  C   UNL     1      -0.461  10.497  18.851  0.00  0.00    +0.000 C 
ATOM      4  C   UNL     1      -1.867  10.611  18.259  0.00  0.00    +0.000 A 
ATOM      5  C   UNL     1      -2.451   9.700  17.390  0.00  0.00    +0.000 A 
ATOM      6  C   UNL     1      -3.765   9.921  16.977  0.00  0.00    +0.000 A 
ATOM      7  C   UNL     1      -4.478  11.044  17.425  0.00  0.00    +0.000 A 
ATOM      8  C   UNL     1      -3.890  11.971  18.290  0.00  0.00    +0.000 A 
ATOM      9  C   UNL     1      -2.584  11.754  18.706  0.00  0.00    +0.000 A 
ATOM     10  C   UNL     1      -1.794  12.620  19.691  0.00  0.00    +0.000 C 
ATOM     11  C   UNL     1      -1.352  11.695  20.821  0.00  0.00    +0.000 A 
ATOM     12  C   UNL     1      -1.563  11.919  22.175  0.00  0.00    +0.000 A 
ATOM     13  C   UNL     1      -1.002  11.024  23.087  0.00  0.00    +0.000 A 
ATOM     14  C   UNL     1      -0.258   9.920  22.644  0.00  0.00    +0.000 A 
ATOM     15  C   UNL     1      -0.060   9.686  21.286  0.00  0.00    +0.000 A 
ATOM     16  C   UNL     1      -0.604  10.574  20.371  0.00  0.00    +0.000 A 
ATOM     17  C   UNL     1      -0.486  13.052  18.948  0.00  0.00    +0.000 C 
ENDROOT
BRANCH  17  18
ATOM     18  C   UNL     1       0.325  14.078  19.742  0.00  0.00    +0.000 C 
ATOM     19  O   UNL     1       0.558  13.837  20.928  0.00  0.00    +0.000 OA
ATOM     20  N   UNL     1       0.731  15.222  19.085  0.00  0.00    +0.000 N 
ATOM     21  H   UNL     1       0.350  15.405  18.166  0.00  0.00    +0.000 HD
BRANCH  20  22
ATOM     22  C   UNL     1       1.516  16.264  19.641  0.00  0.00    +0.000 A 
ATOM     23  C   UNL     1       0.957  17.379  20.256  0.00  0.00    +0.000 A 
ATOM     24  C   UNL     1       1.795  18.391  20.687  0.00  0.00    +0.000 A 
ATOM     25  N   UNL     1       3.138  18.354  20.571  0.00  0.00    +0.000 NA
ATOM     26  C   UNL     1       3.662  17.241  20.015  0.00  0.00    +0.000 A 
ATOM     27  C   UNL     1       2.905  16.172  19.557  0.00  0.00    +0.000 A 
ENDBRANCH  20  22
ENDBRANCH  17  18
TORSDOF 2
ENDMDL
MODEL 8
REMARK VINA RESULT:      -6.8      4.123      7.259
REMARK  Name = 
REMARK  3 active torsions:
REMARK  status: ('A' for Active; 'I' for Inactive)
REMARK    1  A    between atoms: C_1  and  C_2
REMARK    2  A    between atoms: C_17  and  C_18
REMARK    3  A    between atoms: N_20  and  C_21
REMARK                            x       y       z     vdW  Elec       q    Type
REMARK                         _______ _______ _______ _____ _____    ______ ____
ROOT
ATOM      1  C   UNL     1       1.866  12.599  19.043  0.00  0.00    +0.000 C 
ATOM      2  C   UNL     1       0.434  12.359  18.563  0.00  0.00    +0.000 C 
ATOM      3  C   UNL     1      -0.086  10.936  18.941  0.00  0.00    +0.000 C 
ATOM      4  C   UNL     1      -1.383  10.759  18.150  0.00  0.00    +0.000 A 
ATOM      5  C   UNL     1      -1.633   9.753  17.228  0.00  0.00    +0.000 A 
ATOM      6  C   UNL     1      -2.890   9.698  16.625  0.00  0.00    +0.000 A 
ATOM      7  C   UNL     1      -3.877  10.645  16.939  0.00  0.00    +0.000 A 
ATOM      8  C   UNL     1      -3.626  11.668  17.858  0.00  0.00    +0.000 A 
ATOM      9  C   UNL     1      -2.378  11.725  18.462  0.00  0.00    +0.000 A 
ATOM     10  C   UNL     1      -1.936  12.729  19.530  0.00  0.00    +0.000 C 
ATOM     11  C   UNL     1      -1.482  11.908  20.734  0.00  0.00    +0.000 A 
ATOM     12  C   UNL     1      -1.929  12.074  22.038  0.00  0.00    +0.000 A 
ATOM     13  C   UNL     1      -1.334  11.310  23.042  0.00  0.00    +0.000 A 
ATOM     14  C   UNL     1      -0.322  10.387  22.736  0.00  0.00    +0.000 A 
ATOM     15  C   UNL     1       0.116  10.209  21.427  0.00  0.00    +0.000 A 
ATOM     16  C   UNL     1      -0.461  10.971  20.422  0.00  0.00    +0.000 A 
ATOM     17  C   UNL     1      -0.653  13.429  18.973  0.00  0.00    +0.000 C 
ENDROOT
BRANCH  17  18
ATOM     18  C   UNL     1      -0.195  14.596  19.851  0.00  0.00    +0.000 C 
ATOM     19  O   UNL     1      -0.374  15.740  19.430  0.00  0.00    +0.000 OA
ATOM     20  N   UNL     1       0.409  14.295  21.056  0.00  0.00    +0.000 N 
ATOM     21  H   UNL     1       0.660  13.331  21.235  0.00  0.00    +0.000 HD
BRANCH  20  22
ATOM     22  C   UNL     1       0.864  15.235  22.013  0.00  0.00    +0.000 A 
ATOM     23  C   UNL     1       2.193  15.637  22.099  0.00  0.00    +0.000 A 
ATOM     24  C   UNL     1       2.566  16.488  23.123  0.00  0.00    +0.000 A 
ATOM     25  N   UNL     1       1.708  16.980  24.041  0.00  0.00    +0.000 NA
ATOM     26  C   UNL     1       0.416  16.615  23.910  0.00  0.00    +0.000 A 
ATOM     27  C   UNL     1      -0.056  15.771  22.915  0.00  0.00    +0.000 A 
ENDBRANCH  20  22
ENDBRANCH  17  18
TORSDOF 2
ENDMDL
MODEL 9
REMARK VINA RESULT:      -6.8      4.586      7.588
REMARK  Name = 
REMARK  3 active torsions:
REMARK  status: ('A' for Active; 'I' for Inactive)
REMARK    1  A    between atoms: C_1  and  C_2
REMARK    2  A    between atoms: C_17  and  C_18
REMARK    3  A    between atoms: N_20  and  C_21
REMARK                            x       y       z     vdW  Elec       q    Type
REMARK                         _______ _______ _______ _____ _____    ______ ____
ROOT
ATOM      1  C   UNL     1      -0.688  10.518  22.359  0.00  0.00    +0.000 C 
ATOM      2  C   UNL     1      -0.450  11.845  21.639  0.00  0.00    +0.000 C 
ATOM      3  C   UNL     1       0.019  11.642  20.163  0.00  0.00    +0.000 C 
ATOM      4  C   UNL     1       0.485  13.023  19.697  0.00  0.00    +0.000 A 
ATOM      5  C   UNL     1       1.758  13.330  19.237  0.00  0.00    +0.000 A 
ATOM      6  C   UNL     1       2.012  14.629  18.797  0.00  0.00    +0.000 A 
ATOM      7  C   UNL     1       1.005  15.607  18.828  0.00  0.00    +0.000 A 
ATOM      8  C   UNL     1      -0.274  15.305  19.302  0.00  0.00    +0.000 A 
ATOM      9  C   UNL     1      -0.533  14.013  19.737  0.00  0.00    +0.000 A 
ATOM     10  C   UNL     1      -1.881  13.480  20.234  0.00  0.00    +0.000 C 
ATOM     11  C   UNL     1      -2.224  12.285  19.349  0.00  0.00    +0.000 A 
ATOM     12  C   UNL     1      -3.418  12.108  18.662  0.00  0.00    +0.000 A 
ATOM     13  C   UNL     1      -3.615  10.908  17.980  0.00  0.00    +0.000 A 
ATOM     14  C   UNL     1      -2.624   9.913  17.976  0.00  0.00    +0.000 A 
ATOM     15  C   UNL     1      -1.421  10.097  18.651  0.00  0.00    +0.000 A 
ATOM     16  C   UNL     1      -1.218  11.282  19.341  0.00  0.00    +0.000 A 
ATOM     17  C   UNL     1      -1.625  12.900  21.664  0.00  0.00    +0.000 C 
ENDROOT
BRANCH  17  18
ATOM     18  C   UNL     1      -2.921  12.494  22.370  0.00  0.00    +0.000 C 
ATOM     19  O   UNL     1      -2.847  11.663  23.277  0.00  0.00    +0.000 OA
ATOM     20  N   UNL     1      -4.097  13.070  21.934  0.00  0.00    +0.000 N 
ATOM     21  H   UNL     1      -4.075  13.610  21.078  0.00  0.00    +0.000 HD
BRANCH  20  22
ATOM     22  C   UNL     1      -5.384  12.846  22.484  0.00  0.00    +0.000 A 
ATOM     23  C   UNL     1      -5.682  13.087  23.821  0.00  0.00    +0.000 A 
ATOM     24  C   UNL     1      -6.938  12.752  24.293  0.00  0.00    +0.000 A 
ATOM     25  N   UNL     1      -7.913  12.225  23.525  0.00  0.00    +0.000 NA
ATOM     26  C   UNL     1      -7.618  12.045  22.220  0.00  0.00    +0.000 A 
ATOM     27  C   UNL     1      -6.390  12.353  21.653  0.00  0.00    +0.000 A 
ENDBRANCH  20  22
ENDBRANCH  17  18
TORSDOF 2
ENDMDL
