MODEL 1
REMARK VINA RESULT:      -9.3      0.000      0.000
REMARK  Name = 
REMARK  4 active torsions:
REMARK  status: ('A' for Active; 'I' for Inactive)
REMARK    1  A    between atoms: C_5  and  C_6
REMARK    2  A    between atoms: C_6  and  N_7
REMARK    3  A    between atoms: C_12  and  C_13
REMARK    4  A    between atoms: C_19  and  C_20
REMARK                            x       y       z     vdW  Elec       q    Type
REMARK                         _______ _______ _______ _____ _____    ______ ____
ROOT
ATOM      1  N   UNL     1       0.994  10.819  20.500  0.00  0.00    +0.000 N 
ATOM      2  C   UNL     1       1.385   9.796  19.618  0.00  0.00    +0.000 A 
ATOM      3  C   UNL     1       1.756  10.118  18.312  0.00  0.00    +0.000 A 
ATOM      4  N   UNL     1       2.211   9.211  17.417  0.00  0.00    +0.000 NA
ATOM      5  C   UNL     1       2.328   7.951  17.895  0.00  0.00    +0.000 A 
ATOM      6  C   UNL     1       1.997   7.591  19.200  0.00  0.00    +0.000 A 
ATOM      7  N   UNL     1       1.493   8.525  20.056  0.00  0.00    +0.000 NA
ATOM      8  H   UNL     1       1.832  11.333  20.768  0.00  0.00    +0.000 HD
ENDROOT
BRANCH   6   9
ATOM      9  C   UNL     1       2.238   6.247  19.747  0.00  0.00    +0.000 A 
ATOM     10  C   UNL     1       1.278   5.506  20.457  0.00  0.00    +0.000 A 
ATOM     11  C   UNL     1       1.574   4.214  20.882  0.00  0.00    +0.000 A 
ATOM     12  N   UNL     1       2.736   3.559  20.672  0.00  0.00    +0.000 NA
ATOM     13  C   UNL     1       3.633   4.297  19.996  0.00  0.00    +0.000 A 
ATOM     14  N   UNL     1       4.886   3.861  19.649  0.00  0.00    +0.000 N 
ATOM     15  C   UNL     1       5.548   4.831  18.927  0.00  0.00    +0.000 A 
ATOM     16  C   UNL     1       4.697   5.919  18.871  0.00  0.00    +0.000 A 
ATOM     17  C   UNL     1       3.476   5.595  19.523  0.00  0.00    +0.000 A 
ATOM     18  H   UNL     1       5.232   2.942  19.882  0.00  0.00    +0.000 HD
BRANCH  15  19
ATOM     19  C   UNL     1       6.944   4.631  18.378  0.00  0.00    +0.000 C 
ATOM     20  C   UNL     1       7.905   5.774  18.758  0.00  0.00    +0.000 C 
ATOM     21  C   UNL     1       7.653   7.050  17.947  0.00  0.00    +0.000 C 
ATOM     22  N   UNL     1       7.692   6.804  16.506  0.00  0.00    +0.000 NA
ATOM     23  C   UNL     1       6.718   5.780  16.121  0.00  0.00    +0.000 C 
ATOM     24  C   UNL     1       6.959   4.459  16.852  0.00  0.00    +0.000 C 
ATOM     25  H   UNL     1       8.627   6.496  16.242  0.00  0.00    +0.000 HD
ENDBRANCH  15  19
ENDBRANCH   6   9
BRANCH   1  26
ATOM     26  C   UNL     1       0.257  10.347  21.665  0.00  0.00    +0.000 C 
BRANCH  26  31
ATOM     27  F   UNL     1      -4.388  13.509  22.308  0.00  0.00    +0.000 F 
ATOM     28  C   UNL     1      -3.292  12.752  22.160  0.00  0.00    +0.000 A 
ATOM     29  C   UNL     1      -2.680  12.674  20.913  0.00  0.00    +0.000 A 
ATOM     30  C   UNL     1      -1.537  11.888  20.750  0.00  0.00    +0.000 A 
ATOM     31  C   UNL     1      -1.001  11.172  21.836  0.00  0.00    +0.000 A 
ATOM     32  C   UNL     1      -1.632  11.270  23.090  0.00  0.00    +0.000 A 
ATOM     33  C   UNL     1      -2.771  12.054  23.243  0.00  0.00    +0.000 A 
ATOM     34  F   UNL     1      -3.362  12.132  24.445  0.00  0.00    +0.000 F 
ENDBRANCH  26  31
ENDBRANCH   1  26
TORSDOF 4
ENDMDL
MODEL 2
REMARK VINA RESULT:      -9.1      2.905      3.813
REMARK  Name = 
REMARK  4 active torsions:
REMARK  status: ('A' for Active; 'I' for Inactive)
REMARK    1  A    between atoms: C_5  and  C_6
REMARK    2  A    between atoms: C_6  and  N_7
REMARK    3  A    between atoms: C_12  and  C_13
REMARK    4  A    between atoms: C_19  and  C_20
REMARK                            x       y       z     vdW  Elec       q    Type
REMARK                         _______ _______ _______ _____ _____    ______ ____
ROOT
ATOM      1  N   UNL     1      -0.492  10.647  19.718  0.00  0.00    +0.000 N 
ATOM      2  C   UNL     1       0.405   9.816  20.414  0.00  0.00    +0.000 A 
ATOM      3  C   UNL     1       0.870  10.206  21.670  0.00  0.00    +0.000 A 
ATOM      4  N   UNL     1       1.678   9.443  22.442  0.00  0.00    +0.000 NA
ATOM      5  C   UNL     1       1.976   8.229  21.923  0.00  0.00    +0.000 A 
ATOM      6  C   UNL     1       1.510   7.788  20.686  0.00  0.00    +0.000 A 
ATOM      7  N   UNL     1       0.741   8.609  19.916  0.00  0.00    +0.000 NA
ATOM      8  H   UNL     1      -1.399  10.575  20.175  0.00  0.00    +0.000 HD
ENDROOT
BRANCH   6   9
ATOM      9  C   UNL     1       1.741   6.425  20.182  0.00  0.00    +0.000 A 
ATOM     10  C   UNL     1       1.032   5.296  20.625  0.00  0.00    +0.000 A 
ATOM     11  C   UNL     1       1.273   4.053  20.045  0.00  0.00    +0.000 A 
ATOM     12  N   UNL     1       2.153   3.802  19.052  0.00  0.00    +0.000 NA
ATOM     13  C   UNL     1       2.817   4.901  18.657  0.00  0.00    +0.000 A 
ATOM     14  N   UNL     1       3.758   4.916  17.659  0.00  0.00    +0.000 N 
ATOM     15  C   UNL     1       4.226   6.198  17.461  0.00  0.00    +0.000 A 
ATOM     16  C   UNL     1       3.591   6.990  18.400  0.00  0.00    +0.000 A 
ATOM     17  C   UNL     1       2.684   6.194  19.150  0.00  0.00    +0.000 A 
ATOM     18  H   UNL     1       4.027   4.091  17.145  0.00  0.00    +0.000 HD
BRANCH  15  19
ATOM     19  C   UNL     1       5.255   6.538  16.405  0.00  0.00    +0.000 C 
ATOM     20  C   UNL     1       5.496   5.385  15.411  0.00  0.00    +0.000 C 
ATOM     21  C   UNL     1       6.333   4.252  16.016  0.00  0.00    +0.000 C 
ATOM     22  N   UNL     1       7.602   4.734  16.560  0.00  0.00    +0.000 NA
ATOM     23  C   UNL     1       7.381   5.770  17.571  0.00  0.00    +0.000 C 
ATOM     24  C   UNL     1       6.603   6.961  17.009  0.00  0.00    +0.000 C 
ATOM     25  H   UNL     1       8.169   5.116  15.804  0.00  0.00    +0.000 HD
ENDBRANCH  15  19
ENDBRANCH   6   9
BRANCH   1  26
ATOM     26  C   UNL     1      -0.584  10.354  18.293  0.00  0.00    +0.000 C 
BRANCH  26  31
ATOM     27  F   UNL     1      -5.753  11.723  16.451  0.00  0.00    +0.000 F 
ATOM     28  C   UNL     1      -4.524  11.402  16.880  0.00  0.00    +0.000 A 
ATOM     29  C   UNL     1      -4.109  11.822  18.139  0.00  0.00    +0.000 A 
ATOM     30  C   UNL     1      -2.830  11.492  18.593  0.00  0.00    +0.000 A 
ATOM     31  C   UNL     1      -1.957  10.739  17.786  0.00  0.00    +0.000 A 
ATOM     32  C   UNL     1      -2.400  10.319  16.518  0.00  0.00    +0.000 A 
ATOM     33  C   UNL     1      -3.675  10.654  16.074  0.00  0.00    +0.000 A 
ATOM     34  F   UNL     1      -4.079  10.249  14.860  0.00  0.00    +0.000 F 
ENDBRANCH  26  31
ENDBRANCH   1  26
TORSDOF 4
ENDMDL
MODEL 3
REMARK VINA RESULT:      -9.1      3.158      4.936
REMARK  Name = 
REMARK  4 active torsions:
REMARK  status: ('A' for Active; 'I' for Inactive)
REMARK    1  A    between atoms: C_5  and  C_6
REMARK    2  A    between atoms: C_6  and  N_7
REMARK    3  A    between atoms: C_12  and  C_13
REMARK    4  A    between atoms: C_19  and  C_20
REMARK                            x       y       z     vdW  Elec       q    Type
REMARK                         _______ _______ _______ _____ _____    ______ ____
ROOT
ATOM      1  N   UNL     1      -1.926  11.774  21.446  0.00  0.00    +0.000 N 
ATOM      2  C   UNL     1      -0.842  10.912  21.691  0.00  0.00    +0.000 A 
ATOM      3  C   UNL     1      -0.561  10.515  22.998  0.00  0.00    +0.000 A 
ATOM      4  N   UNL     1       0.416   9.636  23.322  0.00  0.00    +0.000 NA
ATOM      5  C   UNL     1       1.089   9.122  22.266  0.00  0.00    +0.000 A 
ATOM      6  C   UNL     1       0.822   9.468  20.943  0.00  0.00    +0.000 A 
ATOM      7  N   UNL     1      -0.136  10.397  20.663  0.00  0.00    +0.000 NA
ATOM      8  H   UNL     1      -2.782  11.234  21.561  0.00  0.00    +0.000 HD
ENDROOT
BRANCH   6   9
ATOM      9  C   UNL     1       1.476   8.818  19.797  0.00  0.00    +0.000 A 
ATOM     10  C   UNL     1       1.870   9.497  18.631  0.00  0.00    +0.000 A 
ATOM     11  C   UNL     1       2.541   8.811  17.623  0.00  0.00    +0.000 A 
ATOM     12  N   UNL     1       2.877   7.504  17.644  0.00  0.00    +0.000 NA
ATOM     13  C   UNL     1       2.481   6.884  18.769  0.00  0.00    +0.000 A 
ATOM     14  N   UNL     1       2.707   5.559  19.040  0.00  0.00    +0.000 N 
ATOM     15  C   UNL     1       2.218   5.235  20.288  0.00  0.00    +0.000 A 
ATOM     16  C   UNL     1       1.627   6.383  20.781  0.00  0.00    +0.000 A 
ATOM     17  C   UNL     1       1.799   7.439  19.845  0.00  0.00    +0.000 A 
ATOM     18  H   UNL     1       3.191   4.943  18.404  0.00  0.00    +0.000 HD
BRANCH  15  19
ATOM     19  C   UNL     1       2.344   3.848  20.880  0.00  0.00    +0.000 C 
ATOM     20  C   UNL     1       3.522   3.050  20.288  0.00  0.00    +0.000 C 
ATOM     21  C   UNL     1       3.234   2.537  18.873  0.00  0.00    +0.000 C 
ATOM     22  N   UNL     1       2.001   1.752  18.811  0.00  0.00    +0.000 NA
ATOM     23  C   UNL     1       0.857   2.533  19.289  0.00  0.00    +0.000 C 
ATOM     24  C   UNL     1       1.059   3.021  20.724  0.00  0.00    +0.000 C 
ATOM     25  H   UNL     1       2.103   0.918  19.386  0.00  0.00    +0.000 HD
ENDBRANCH  15  19
ENDBRANCH   6   9
BRANCH   1  26
ATOM     26  C   UNL     1      -1.877  12.431  20.146  0.00  0.00    +0.000 C 
BRANCH  26  31
ATOM     27  F   UNL     1      -6.815  11.599  17.516  0.00  0.00    +0.000 F 
ATOM     28  C   UNL     1      -5.641  11.800  18.131  0.00  0.00    +0.000 A 
ATOM     29  C   UNL     1      -5.620  12.428  19.372  0.00  0.00    +0.000 A 
ATOM     30  C   UNL     1      -4.401  12.641  20.021  0.00  0.00    +0.000 A 
ATOM     31  C   UNL     1      -3.193  12.228  19.427  0.00  0.00    +0.000 A 
ATOM     32  C   UNL     1      -3.239  11.590  18.174  0.00  0.00    +0.000 A 
ATOM     33  C   UNL     1      -4.457  11.384  17.535  0.00  0.00    +0.000 A 
ATOM     34  F   UNL     1      -4.480  10.778  16.338  0.00  0.00    +0.000 F 
ENDBRANCH  26  31
ENDBRANCH   1  26
TORSDOF 4
ENDMDL
MODEL 4
REMARK VINA RESULT:      -9.1      4.408      9.416
REMARK  Name = 
REMARK  4 active torsions:
REMARK  status: ('A' for Active; 'I' for Inactive)
REMARK    1  A    between atoms: C_5  and  C_6
REMARK    2  A    between atoms: C_6  and  N_7
REMARK    3  A    between atoms: C_12  and  C_13
REMARK    4  A    between atoms: C_19  and  C_20
REMARK                            x       y       z     vdW  Elec       q    Type
REMARK                         _______ _______ _______ _____ _____    ______ ____
ROOT
ATOM      1  N   UNL     1       2.136   7.544  21.143  0.00  0.00    +0.000 N 
ATOM      2  C   UNL     1       1.351   8.649  21.519  0.00  0.00    +0.000 A 
ATOM      3  C   UNL     1       0.970   8.800  22.852  0.00  0.00    +0.000 A 
ATOM      4  N   UNL     1       0.275   9.864  23.318  0.00  0.00    +0.000 NA
ATOM      5  C   UNL     1       0.008  10.815  22.393  0.00  0.00    +0.000 A 
ATOM      6  C   UNL     1       0.395  10.719  21.058  0.00  0.00    +0.000 A 
ATOM      7  N   UNL     1       1.048   9.606  20.618  0.00  0.00    +0.000 NA
ATOM      8  H   UNL     1       3.081   7.704  21.489  0.00  0.00    +0.000 HD
ENDROOT
BRANCH   6   9
ATOM      9  C   UNL     1       0.205  11.808  20.088  0.00  0.00    +0.000 A 
ATOM     10  C   UNL     1       0.975  12.983  20.068  0.00  0.00    +0.000 A 
ATOM     11  C   UNL     1       0.766  13.933  19.072  0.00  0.00    +0.000 A 
ATOM     12  N   UNL     1      -0.134  13.843  18.070  0.00  0.00    +0.000 NA
ATOM     13  C   UNL     1      -0.857  12.711  18.121  0.00  0.00    +0.000 A 
ATOM     14  N   UNL     1      -1.830  12.375  17.216  0.00  0.00    +0.000 N 
ATOM     15  C   UNL     1      -2.357  11.137  17.515  0.00  0.00    +0.000 A 
ATOM     16  C   UNL     1      -1.725  10.718  18.671  0.00  0.00    +0.000 A 
ATOM     17  C   UNL     1      -0.761  11.688  19.058  0.00  0.00    +0.000 A 
ATOM     18  H   UNL     1      -2.081  12.964  16.435  0.00  0.00    +0.000 HD
BRANCH  15  19
ATOM     19  C   UNL     1      -3.433  10.482  16.676  0.00  0.00    +0.000 C 
ATOM     20  C   UNL     1      -4.301  11.502  15.916  0.00  0.00    +0.000 C 
ATOM     21  C   UNL     1      -5.300  12.223  16.829  0.00  0.00    +0.000 C 
ATOM     22  N   UNL     1      -6.142  11.286  17.573  0.00  0.00    +0.000 NA
ATOM     23  C   UNL     1      -5.327  10.367  18.370  0.00  0.00    +0.000 C 
ATOM     24  C   UNL     1      -4.351   9.570  17.503  0.00  0.00    +0.000 C 
ATOM     25  H   UNL     1      -6.711  10.751  16.918  0.00  0.00    +0.000 HD
ENDBRANCH  15  19
ENDBRANCH   6   9
BRANCH   1  26
ATOM     26  C   UNL     1       2.127   7.272  19.711  0.00  0.00    +0.000 C 
BRANCH  26  31
ATOM     27  F   UNL     1       1.065   1.790  18.807  0.00  0.00    +0.000 F 
ATOM     28  C   UNL     1       1.323   3.087  19.028  0.00  0.00    +0.000 A 
ATOM     29  C   UNL     1       1.703   3.899  17.965  0.00  0.00    +0.000 A 
ATOM     30  C   UNL     1       1.973   5.251  18.186  0.00  0.00    +0.000 A 
ATOM     31  C   UNL     1       1.866   5.799  19.479  0.00  0.00    +0.000 A 
ATOM     32  C   UNL     1       1.474   4.961  20.539  0.00  0.00    +0.000 A 
ATOM     33  C   UNL     1       1.209   3.615  20.308  0.00  0.00    +0.000 A 
ATOM     34  F   UNL     1       0.841   2.830  21.333  0.00  0.00    +0.000 F 
ENDBRANCH  26  31
ENDBRANCH   1  26
TORSDOF 4
ENDMDL
MODEL 5
REMARK VINA RESULT:      -9.1      1.008      1.307
REMARK  Name = 
REMARK  4 active torsions:
REMARK  status: ('A' for Active; 'I' for Inactive)
REMARK    1  A    between atoms: C_5  and  C_6
REMARK    2  A    between atoms: C_6  and  N_7
REMARK    3  A    between atoms: C_12  and  C_13
REMARK    4  A    between atoms: C_19  and  C_20
REMARK                            x       y       z     vdW  Elec       q    Type
REMARK                         _______ _______ _______ _____ _____    ______ ____
ROOT
ATOM      1  N   UNL     1       0.935  10.720  20.553  0.00  0.00    +0.000 N 
ATOM      2  C   UNL     1       1.330   9.708  19.660  0.00  0.00    +0.000 A 
ATOM      3  C   UNL     1       1.686  10.045  18.354  0.00  0.00    +0.000 A 
ATOM      4  N   UNL     1       2.144   9.151  17.447  0.00  0.00    +0.000 NA
ATOM      5  C   UNL     1       2.280   7.888  17.915  0.00  0.00    +0.000 A 
ATOM      6  C   UNL     1       1.965   7.515  19.220  0.00  0.00    +0.000 A 
ATOM      7  N   UNL     1       1.457   8.435  20.087  0.00  0.00    +0.000 NA
ATOM      8  H   UNL     1       1.768  11.242  20.819  0.00  0.00    +0.000 HD
ENDROOT
BRANCH   6   9
ATOM      9  C   UNL     1       2.227   6.169  19.753  0.00  0.00    +0.000 A 
ATOM     10  C   UNL     1       1.270   5.395  20.432  0.00  0.00    +0.000 A 
ATOM     11  C   UNL     1       1.588   4.104  20.846  0.00  0.00    +0.000 A 
ATOM     12  N   UNL     1       2.770   3.481  20.654  0.00  0.00    +0.000 NA
ATOM     13  C   UNL     1       3.663   4.250  20.007  0.00  0.00    +0.000 A 
ATOM     14  N   UNL     1       4.934   3.850  19.682  0.00  0.00    +0.000 N 
ATOM     15  C   UNL     1       5.588   4.845  18.988  0.00  0.00    +0.000 A 
ATOM     16  C   UNL     1       4.711   5.913  18.928  0.00  0.00    +0.000 A 
ATOM     17  C   UNL     1       3.485   5.550  19.548  0.00  0.00    +0.000 A 
ATOM     18  H   UNL     1       5.297   2.936  19.911  0.00  0.00    +0.000 HD
BRANCH  15  19
ATOM     19  C   UNL     1       7.000   4.686  18.468  0.00  0.00    +0.000 C 
ATOM     20  C   UNL     1       7.899   5.892  18.802  0.00  0.00    +0.000 C 
ATOM     21  C   UNL     1       7.597   7.112  17.923  0.00  0.00    +0.000 C 
ATOM     22  N   UNL     1       7.670   6.797  16.497  0.00  0.00    +0.000 NA
ATOM     23  C   UNL     1       6.752   5.708  16.152  0.00  0.00    +0.000 C 
ATOM     24  C   UNL     1       7.045   4.439  16.953  0.00  0.00    +0.000 C 
ATOM     25  H   UNL     1       8.622   6.522  16.261  0.00  0.00    +0.000 HD
ENDBRANCH  15  19
ENDBRANCH   6   9
BRANCH   1  26
ATOM     26  C   UNL     1       0.213  10.229  21.721  0.00  0.00    +0.000 C 
BRANCH  26  31
ATOM     27  F   UNL     1      -2.984  14.390  23.833  0.00  0.00    +0.000 F 
ATOM     28  C   UNL     1      -2.218  13.408  23.335  0.00  0.00    +0.000 A 
ATOM     29  C   UNL     1      -2.531  12.085  23.627  0.00  0.00    +0.000 A 
ATOM     30  C   UNL     1      -1.739  11.055  23.113  0.00  0.00    +0.000 A 
ATOM     31  C   UNL     1      -0.625  11.347  22.304  0.00  0.00    +0.000 A 
ATOM     32  C   UNL     1      -0.331  12.692  22.016  0.00  0.00    +0.000 A 
ATOM     33  C   UNL     1      -1.125  13.711  22.534  0.00  0.00    +0.000 A 
ATOM     34  F   UNL     1      -0.826  14.989  22.253  0.00  0.00    +0.000 F 
ENDBRANCH  26  31
ENDBRANCH   1  26
TORSDOF 4
ENDMDL
MODEL 6
REMARK VINA RESULT:      -9.0      4.668      9.584
REMARK  Name = 
REMARK  4 active torsions:
REMARK  status: ('A' for Active; 'I' for Inactive)
REMARK    1  A    between atoms: C_5  and  C_6
REMARK    2  A    between atoms: C_6  and  N_7
REMARK    3  A    between atoms: C_12  and  C_13
REMARK    4  A    between atoms: C_19  and  C_20
REMARK                            x       y       z     vdW  Elec       q    Type
REMARK                         _______ _______ _______ _____ _____    ______ ____
ROOT
ATOM      1  N   UNL     1       2.060   7.586  21.264  0.00  0.00    +0.000 N 
ATOM      2  C   UNL     1       1.269   8.696  21.613  0.00  0.00    +0.000 A 
ATOM      3  C   UNL     1       0.864   8.862  22.938  0.00  0.00    +0.000 A 
ATOM      4  N   UNL     1       0.162   9.931  23.379  0.00  0.00    +0.000 NA
ATOM      5  C   UNL     1      -0.090  10.872  22.440  0.00  0.00    +0.000 A 
ATOM      6  C   UNL     1       0.321  10.760  21.113  0.00  0.00    +0.000 A 
ATOM      7  N   UNL     1       0.981   9.642  20.697  0.00  0.00    +0.000 NA
ATOM      8  H   UNL     1       2.998   7.750  21.624  0.00  0.00    +0.000 HD
ENDROOT
BRANCH   6   9
ATOM      9  C   UNL     1       0.148  11.838  20.127  0.00  0.00    +0.000 A 
ATOM     10  C   UNL     1       0.931  13.004  20.096  0.00  0.00    +0.000 A 
ATOM     11  C   UNL     1       0.739  13.943  19.086  0.00  0.00    +0.000 A 
ATOM     12  N   UNL     1      -0.157  13.850  18.081  0.00  0.00    +0.000 NA
ATOM     13  C   UNL     1      -0.893  12.726  18.143  0.00  0.00    +0.000 A 
ATOM     14  N   UNL     1      -1.865  12.389  17.237  0.00  0.00    +0.000 N 
ATOM     15  C   UNL     1      -2.407  11.161  17.550  0.00  0.00    +0.000 A 
ATOM     16  C   UNL     1      -1.786  10.751  18.715  0.00  0.00    +0.000 A 
ATOM     17  C   UNL     1      -0.814  11.715  19.094  0.00  0.00    +0.000 A 
ATOM     18  H   UNL     1      -2.105  12.970  16.447  0.00  0.00    +0.000 HD
BRANCH  15  19
ATOM     19  C   UNL     1      -3.486  10.508  16.714  0.00  0.00    +0.000 C 
ATOM     20  C   UNL     1      -4.358  11.529  15.958  0.00  0.00    +0.000 C 
ATOM     21  C   UNL     1      -5.353  12.247  16.876  0.00  0.00    +0.000 C 
ATOM     22  N   UNL     1      -6.192  11.309  17.622  0.00  0.00    +0.000 NA
ATOM     23  C   UNL     1      -5.374  10.389  18.415  0.00  0.00    +0.000 C 
ATOM     24  C   UNL     1      -4.401   9.593  17.543  0.00  0.00    +0.000 C 
ATOM     25  H   UNL     1      -6.763  10.775  16.969  0.00  0.00    +0.000 HD
ENDBRANCH  15  19
ENDBRANCH   6   9
BRANCH   1  26
ATOM     26  C   UNL     1       2.076   7.298  19.835  0.00  0.00    +0.000 C 
BRANCH  26  31
ATOM     27  F   UNL     1       1.449   1.729  19.068  0.00  0.00    +0.000 F 
ATOM     28  C   UNL     1       1.592   3.051  19.242  0.00  0.00    +0.000 A 
ATOM     29  C   UNL     1       1.291   3.613  20.478  0.00  0.00    +0.000 A 
ATOM     30  C   UNL     1       1.438   4.989  20.668  0.00  0.00    +0.000 A 
ATOM     31  C   UNL     1       1.886   5.812  19.617  0.00  0.00    +0.000 A 
ATOM     32  C   UNL     1       2.191   5.221  18.377  0.00  0.00    +0.000 A 
ATOM     33  C   UNL     1       2.039   3.850  18.197  0.00  0.00    +0.000 A 
ATOM     34  F   UNL     1       2.330   3.305  17.006  0.00  0.00    +0.000 F 
ENDBRANCH  26  31
ENDBRANCH   1  26
TORSDOF 4
ENDMDL
MODEL 7
REMARK VINA RESULT:      -9.0      2.594      3.452
REMARK  Name = 
REMARK  4 active torsions:
REMARK  status: ('A' for Active; 'I' for Inactive)
REMARK    1  A    between atoms: C_5  and  C_6
REMARK    2  A    between atoms: C_6  and  N_7
REMARK    3  A    between atoms: C_12  and  C_13
REMARK    4  A    between atoms: C_19  and  C_20
REMARK                            x       y       z     vdW  Elec       q    Type
REMARK                         _______ _______ _______ _____ _____    ______ ____
ROOT
ATOM      1  N   UNL     1      -0.568  10.649  19.724  0.00  0.00    +0.000 N 
ATOM      2  C   UNL     1       0.353   9.834  20.407  0.00  0.00    +0.000 A 
ATOM      3  C   UNL     1       0.842  10.241  21.649  0.00  0.00    +0.000 A 
ATOM      4  N   UNL     1       1.675   9.493  22.408  0.00  0.00    +0.000 NA
ATOM      5  C   UNL     1       1.975   8.278  21.893  0.00  0.00    +0.000 A 
ATOM      6  C   UNL     1       1.487   7.821  20.671  0.00  0.00    +0.000 A 
ATOM      7  N   UNL     1       0.691   8.626  19.912  0.00  0.00    +0.000 NA
ATOM      8  H   UNL     1      -1.464  10.571  20.202  0.00  0.00    +0.000 HD
ENDROOT
BRANCH   6   9
ATOM      9  C   UNL     1       1.721   6.456  20.175  0.00  0.00    +0.000 A 
ATOM     10  C   UNL     1       1.013   5.327  20.621  0.00  0.00    +0.000 A 
ATOM     11  C   UNL     1       1.258   4.083  20.047  0.00  0.00    +0.000 A 
ATOM     12  N   UNL     1       2.140   3.828  19.058  0.00  0.00    +0.000 NA
ATOM     13  C   UNL     1       2.805   4.927  18.659  0.00  0.00    +0.000 A 
ATOM     14  N   UNL     1       3.748   4.939  17.664  0.00  0.00    +0.000 N 
ATOM     15  C   UNL     1       4.214   6.220  17.462  0.00  0.00    +0.000 A 
ATOM     16  C   UNL     1       3.575   7.016  18.395  0.00  0.00    +0.000 A 
ATOM     17  C   UNL     1       2.668   6.221  19.147  0.00  0.00    +0.000 A 
ATOM     18  H   UNL     1       4.020   4.112  17.154  0.00  0.00    +0.000 HD
BRANCH  15  19
ATOM     19  C   UNL     1       5.245   6.558  16.407  0.00  0.00    +0.000 C 
ATOM     20  C   UNL     1       5.484   5.404  15.414  0.00  0.00    +0.000 C 
ATOM     21  C   UNL     1       6.318   4.269  16.020  0.00  0.00    +0.000 C 
ATOM     22  N   UNL     1       7.588   4.748  16.565  0.00  0.00    +0.000 NA
ATOM     23  C   UNL     1       7.367   5.785  17.576  0.00  0.00    +0.000 C 
ATOM     24  C   UNL     1       6.593   6.977  17.012  0.00  0.00    +0.000 C 
ATOM     25  H   UNL     1       8.157   5.128  15.810  0.00  0.00    +0.000 HD
ENDBRANCH  15  19
ENDBRANCH   6   9
BRANCH   1  26
ATOM     26  C   UNL     1      -0.689  10.342  18.304  0.00  0.00    +0.000 C 
BRANCH  26  31
ATOM     27  F   UNL     1      -5.801  11.888  16.441  0.00  0.00    +0.000 F 
ATOM     28  C   UNL     1      -4.593  11.518  16.890  0.00  0.00    +0.000 A 
ATOM     29  C   UNL     1      -3.725  10.845  16.037  0.00  0.00    +0.000 A 
ATOM     30  C   UNL     1      -2.464  10.455  16.497  0.00  0.00    +0.000 A 
ATOM     31  C   UNL     1      -2.067  10.736  17.818  0.00  0.00    +0.000 A 
ATOM     32  C   UNL     1      -2.959  11.424  18.661  0.00  0.00    +0.000 A 
ATOM     33  C   UNL     1      -4.213  11.805  18.195  0.00  0.00    +0.000 A 
ATOM     34  F   UNL     1      -5.052  12.456  19.016  0.00  0.00    +0.000 F 
ENDBRANCH  26  31
ENDBRANCH   1  26
TORSDOF 4
ENDMDL
MODEL 8
REMARK VINA RESULT:      -8.9      3.103      5.005
REMARK  Name = 
REMARK  4 active torsions:
REMARK  status: ('A' for Active; 'I' for Inactive)
REMARK    1  A    between atoms: C_5  and  C_6
REMARK    2  A    between atoms: C_6  and  N_7
REMARK    3  A    between atoms: C_12  and  C_13
REMARK    4  A    between atoms: C_19  and  C_20
REMARK                            x       y       z     vdW  Elec       q    Type
REMARK                         _______ _______ _______ _____ _____    ______ ____
ROOT
ATOM      1  N   UNL     1      -1.677  11.745  21.047  0.00  0.00    +0.000 N 
ATOM      2  C   UNL     1      -0.673  10.817  21.376  0.00  0.00    +0.000 A 
ATOM      3  C   UNL     1      -0.544  10.382  22.695  0.00  0.00    +0.000 A 
ATOM      4  N   UNL     1       0.345   9.442  23.092  0.00  0.00    +0.000 NA
ATOM      5  C   UNL     1       1.088   8.908  22.096  0.00  0.00    +0.000 A 
ATOM      6  C   UNL     1       0.972   9.292  20.761  0.00  0.00    +0.000 A 
ATOM      7  N   UNL     1       0.101  10.279  20.411  0.00  0.00    +0.000 NA
ATOM      8  H   UNL     1      -2.569  11.254  21.067  0.00  0.00    +0.000 HD
ENDROOT
BRANCH   6   9
ATOM      9  C   UNL     1       1.698   8.625  19.669  0.00  0.00    +0.000 A 
ATOM     10  C   UNL     1       2.179   9.288  18.528  0.00  0.00    +0.000 A 
ATOM     11  C   UNL     1       2.912   8.587  17.574  0.00  0.00    +0.000 A 
ATOM     12  N   UNL     1       3.233   7.277  17.630  0.00  0.00    +0.000 NA
ATOM     13  C   UNL     1       2.753   6.672  18.731  0.00  0.00    +0.000 A 
ATOM     14  N   UNL     1       2.946   5.347  19.029  0.00  0.00    +0.000 N 
ATOM     15  C   UNL     1       2.369   5.039  20.242  0.00  0.00    +0.000 A 
ATOM     16  C   UNL     1       1.756   6.198  20.682  0.00  0.00    +0.000 A 
ATOM     17  C   UNL     1       2.004   7.244  19.752  0.00  0.00    +0.000 A 
ATOM     18  H   UNL     1       3.467   4.720  18.434  0.00  0.00    +0.000 HD
BRANCH  15  19
ATOM     19  C   UNL     1       2.440   3.658  20.854  0.00  0.00    +0.000 C 
ATOM     20  C   UNL     1       3.563   2.793  20.249  0.00  0.00    +0.000 C 
ATOM     21  C   UNL     1       3.216   2.273  18.849  0.00  0.00    +0.000 C 
ATOM     22  N   UNL     1       1.945   1.550  18.828  0.00  0.00    +0.000 NA
ATOM     23  C   UNL     1       0.853   2.395  19.319  0.00  0.00    +0.000 C 
ATOM     24  C   UNL     1       1.112   2.894  20.741  0.00  0.00    +0.000 C 
ATOM     25  H   UNL     1       2.019   0.720  19.414  0.00  0.00    +0.000 HD
ENDBRANCH  15  19
ENDBRANCH   6   9
BRANCH   1  26
ATOM     26  C   UNL     1      -1.464  12.421  19.774  0.00  0.00    +0.000 C 
BRANCH  26  31
ATOM     27  F   UNL     1      -4.085   9.648  15.599  0.00  0.00    +0.000 F 
ATOM     28  C   UNL     1      -3.470  10.301  16.595  0.00  0.00    +0.000 A 
ATOM     29  C   UNL     1      -2.088  10.207  16.722  0.00  0.00    +0.000 A 
ATOM     30  C   UNL     1      -1.438  10.884  17.756  0.00  0.00    +0.000 A 
ATOM     31  C   UNL     1      -2.172  11.661  18.673  0.00  0.00    +0.000 A 
ATOM     32  C   UNL     1      -3.568  11.748  18.522  0.00  0.00    +0.000 A 
ATOM     33  C   UNL     1      -4.206  11.067  17.490  0.00  0.00    +0.000 A 
ATOM     34  F   UNL     1      -5.539  11.158  17.364  0.00  0.00    +0.000 F 
ENDBRANCH  26  31
ENDBRANCH   1  26
TORSDOF 4
ENDMDL
MODEL 9
REMARK VINA RESULT:      -8.5      2.831      4.737
REMARK  Name = 
REMARK  4 active torsions:
REMARK  status: ('A' for Active; 'I' for Inactive)
REMARK    1  A    between atoms: C_5  and  C_6
REMARK    2  A    between atoms: C_6  and  N_7
REMARK    3  A    between atoms: C_12  and  C_13
REMARK    4  A    between atoms: C_19  and  C_20
REMARK                            x       y       z     vdW  Elec       q    Type
REMARK                         _______ _______ _______ _____ _____    ______ ____
ROOT
ATOM      1  N   UNL     1      -1.838  11.267  20.702  0.00  0.00    +0.000 N 
ATOM      2  C   UNL     1      -0.670  10.571  21.061  0.00  0.00    +0.000 A 
ATOM      3  C   UNL     1      -0.363  10.393  22.410  0.00  0.00    +0.000 A 
ATOM      4  N   UNL     1       0.700   9.680  22.850  0.00  0.00    +0.000 NA
ATOM      5  C   UNL     1       1.436   9.099  21.874  0.00  0.00    +0.000 A 
ATOM      6  C   UNL     1       1.149   9.227  20.517  0.00  0.00    +0.000 A 
ATOM      7  N   UNL     1       0.099   9.997  20.113  0.00  0.00    +0.000 NA
ATOM      8  H   UNL     1      -2.632  10.659  20.895  0.00  0.00    +0.000 HD
ENDROOT
BRANCH   6   9
ATOM      9  C   UNL     1       1.882   8.498  19.471  0.00  0.00    +0.000 A 
ATOM     10  C   UNL     1       2.426   9.106  18.326  0.00  0.00    +0.000 A 
ATOM     11  C   UNL     1       3.161   8.348  17.420  0.00  0.00    +0.000 A 
ATOM     12  N   UNL     1       3.428   7.029  17.526  0.00  0.00    +0.000 NA
ATOM     13  C   UNL     1       2.890   6.477  18.628  0.00  0.00    +0.000 A 
ATOM     14  N   UNL     1       3.022   5.157  18.973  0.00  0.00    +0.000 N 
ATOM     15  C   UNL     1       2.394   4.910  20.174  0.00  0.00    +0.000 A 
ATOM     16  C   UNL     1       1.813   6.104  20.559  0.00  0.00    +0.000 A 
ATOM     17  C   UNL     1       2.131   7.109  19.606  0.00  0.00    +0.000 A 
ATOM     18  H   UNL     1       3.537   4.492  18.414  0.00  0.00    +0.000 HD
BRANCH  15  19
ATOM     19  C   UNL     1       2.391   3.546  20.830  0.00  0.00    +0.000 C 
ATOM     20  C   UNL     1       3.499   2.621  20.291  0.00  0.00    +0.000 C 
ATOM     21  C   UNL     1       3.180   2.071  18.897  0.00  0.00    +0.000 C 
ATOM     22  N   UNL     1       1.883   1.396  18.854  0.00  0.00    +0.000 NA
ATOM     23  C   UNL     1       0.809   2.296  19.280  0.00  0.00    +0.000 C 
ATOM     24  C   UNL     1       1.039   2.829  20.695  0.00  0.00    +0.000 C 
ATOM     25  H   UNL     1       1.905   0.583  19.467  0.00  0.00    +0.000 HD
ENDBRANCH  15  19
ENDBRANCH   6   9
BRANCH   1  26
ATOM     26  C   UNL     1      -1.845  11.738  19.322  0.00  0.00    +0.000 C 
BRANCH  26  31
ATOM     27  F   UNL     1      -7.149  12.025  17.380  0.00  0.00    +0.000 F 
ATOM     28  C   UNL     1      -5.895  11.952  17.848  0.00  0.00    +0.000 A 
ATOM     29  C   UNL     1      -4.878  11.513  17.007  0.00  0.00    +0.000 A 
ATOM     30  C   UNL     1      -3.568  11.435  17.486  0.00  0.00    +0.000 A 
ATOM     31  C   UNL     1      -3.270  11.793  18.814  0.00  0.00    +0.000 A 
ATOM     32  C   UNL     1      -4.313  12.241  19.645  0.00  0.00    +0.000 A 
ATOM     33  C   UNL     1      -5.615  12.314  19.159  0.00  0.00    +0.000 A 
ATOM     34  F   UNL     1      -6.599  12.738  19.968  0.00  0.00    +0.000 F 
ENDBRANCH  26  31
ENDBRANCH   1  26
TORSDOF 4
ENDMDL
