MODEL 1
REMARK VINA RESULT:      -7.7      0.000      0.000
REMARK  Name = 
REMARK  5 active torsions:
REMARK  status: ('A' for Active; 'I' for Inactive)
REMARK    1  A    between atoms: C_2  and  C_3
REMARK    2  A    between atoms: C_3  and  N_4
REMARK    3  A    between atoms: C_6  and  C_7
REMARK    4  A    between atoms: N_16  and  C_17
REMARK    5  A    between atoms: C_17  and  C_18
REMARK                            x       y       z     vdW  Elec       q    Type
REMARK                         _______ _______ _______ _____ _____    ______ ____
ROOT
ATOM      1  C   UNL     1       4.973   3.404  19.218  0.00  0.00    +0.000 C 
ENDROOT
BRANCH   1   2
ATOM      2  N   UNL     1       5.712   4.245  18.274  0.00  0.00    +0.000 N 
ATOM      3  C   UNL     1       5.600   4.007  16.911  0.00  0.00    +0.000 A 
ATOM      4  C   UNL     1       6.224   4.776  16.002  0.00  0.00    +0.000 A 
ATOM      5  C   UNL     1       7.041   5.884  16.470  0.00  0.00    +0.000 A 
ATOM      6  C   UNL     1       7.192   6.132  17.779  0.00  0.00    +0.000 A 
ATOM      7 CL   UNL     1       8.155   7.445  18.332  0.00  0.00    +0.000 Cl
ATOM      8  C   UNL     1       6.509   5.267  18.798  0.00  0.00    +0.000 A 
ATOM      9  O   UNL     1       6.648   5.448  20.007  0.00  0.00    +0.000 OA
BRANCH   4  10
ATOM     10  C   UNL     1       6.083   4.536  14.523  0.00  0.00    +0.000 C 
ATOM     11  F   UNL     1       4.863   4.893  14.044  0.00  0.00    +0.000 F 
ATOM     12  F   UNL     1       7.003   5.234  13.812  0.00  0.00    +0.000 F 
ATOM     13  F   UNL     1       6.254   3.226  14.216  0.00  0.00    +0.000 F 
ENDBRANCH   4  10
ENDBRANCH   1   2
BRANCH   1  15
ATOM     14  O   UNL     1       2.600   3.311  18.789  0.00  0.00    +0.000 OA
ATOM     15  C   UNL     1       3.525   3.869  19.373  0.00  0.00    +0.000 C 
ATOM     16  N   UNL     1       3.349   4.913  20.254  0.00  0.00    +0.000 N 
ATOM     17  H   UNL     1       4.136   5.205  20.827  0.00  0.00    +0.000 HD
BRANCH  16  18
ATOM     18  C   UNL     1       2.051   5.485  20.534  0.00  0.00    +0.000 C 
BRANCH  18  19
ATOM     19  C   UNL     1       1.944   6.881  19.972  0.00  0.00    +0.000 A 
ATOM     20  C   UNL     1       1.317   7.897  20.711  0.00  0.00    +0.000 A 
ATOM     21  C   UNL     1       1.196   9.186  20.187  0.00  0.00    +0.000 A 
ATOM     22  C   UNL     1       1.696   9.467  18.917  0.00  0.00    +0.000 A 
ATOM     23 CL   UNL     1       1.538  11.053  18.267  0.00  0.00    +0.000 Cl
ATOM     24  C   UNL     1       2.317   8.470  18.169  0.00  0.00    +0.000 A 
ATOM     25  C   UNL     1       2.439   7.180  18.694  0.00  0.00    +0.000 A 
ENDBRANCH  18  19
ENDBRANCH  16  18
ENDBRANCH   1  15
TORSDOF 5
ENDMDL
MODEL 2
REMARK VINA RESULT:      -7.4      0.411      1.304
REMARK  Name = 
REMARK  5 active torsions:
REMARK  status: ('A' for Active; 'I' for Inactive)
REMARK    1  A    between atoms: C_2  and  C_3
REMARK    2  A    between atoms: C_3  and  N_4
REMARK    3  A    between atoms: C_6  and  C_7
REMARK    4  A    between atoms: N_16  and  C_17
REMARK    5  A    between atoms: C_17  and  C_18
REMARK                            x       y       z     vdW  Elec       q    Type
REMARK                         _______ _______ _______ _____ _____    ______ ____
ROOT
ATOM      1  C   UNL     1       4.552   3.204  18.759  0.00  0.00    +0.000 C 
ENDROOT
BRANCH   1   2
ATOM      2  N   UNL     1       5.436   4.033  17.938  0.00  0.00    +0.000 N 
ATOM      3  C   UNL     1       5.462   3.853  16.562  0.00  0.00    +0.000 A 
ATOM      4  C   UNL     1       6.225   4.616  15.760  0.00  0.00    +0.000 A 
ATOM      5  C   UNL     1       7.047   5.654  16.360  0.00  0.00    +0.000 A 
ATOM      6  C   UNL     1       7.066   5.844  17.688  0.00  0.00    +0.000 A 
ATOM      7 CL   UNL     1       8.036   7.074  18.398  0.00  0.00    +0.000 Cl
ATOM      8  C   UNL     1       6.228   4.984  18.589  0.00  0.00    +0.000 A 
ATOM      9  O   UNL     1       6.243   5.112  19.812  0.00  0.00    +0.000 OA
BRANCH   4  10
ATOM     10  C   UNL     1       6.234   4.441  14.265  0.00  0.00    +0.000 C 
ATOM     11  F   UNL     1       7.125   5.255  13.643  0.00  0.00    +0.000 F 
ATOM     12  F   UNL     1       6.548   3.170  13.911  0.00  0.00    +0.000 F 
ATOM     13  F   UNL     1       5.018   4.713  13.729  0.00  0.00    +0.000 F 
ENDBRANCH   4  10
ENDBRANCH   1   2
BRANCH   1  15
ATOM     14  O   UNL     1       2.209   3.670  18.417  0.00  0.00    +0.000 OA
ATOM     15  C   UNL     1       3.230   3.913  19.056  0.00  0.00    +0.000 C 
ATOM     16  N   UNL     1       3.274   4.788  20.118  0.00  0.00    +0.000 N 
ATOM     17  H   UNL     1       4.105   4.803  20.702  0.00  0.00    +0.000 HD
BRANCH  16  18
ATOM     18  C   UNL     1       2.121   5.545  20.551  0.00  0.00    +0.000 C 
BRANCH  18  19
ATOM     19  C   UNL     1       2.067   6.886  19.861  0.00  0.00    +0.000 A 
ATOM     20  C   UNL     1       2.630   7.050  18.585  0.00  0.00    +0.000 A 
ATOM     21  C   UNL     1       2.601   8.294  17.950  0.00  0.00    +0.000 A 
ATOM     22  C   UNL     1       2.015   9.385  18.590  0.00  0.00    +0.000 A 
ATOM     23 CL   UNL     1       1.989  10.921  17.812  0.00  0.00    +0.000 Cl
ATOM     24  C   UNL     1       1.456   9.241  19.857  0.00  0.00    +0.000 A 
ATOM     25  C   UNL     1       1.484   7.995  20.492  0.00  0.00    +0.000 A 
ENDBRANCH  18  19
ENDBRANCH  16  18
ENDBRANCH   1  15
TORSDOF 5
ENDMDL
MODEL 3
REMARK VINA RESULT:      -7.1      1.662      2.262
REMARK  Name = 
REMARK  5 active torsions:
REMARK  status: ('A' for Active; 'I' for Inactive)
REMARK    1  A    between atoms: C_2  and  C_3
REMARK    2  A    between atoms: C_3  and  N_4
REMARK    3  A    between atoms: C_6  and  C_7
REMARK    4  A    between atoms: N_16  and  C_17
REMARK    5  A    between atoms: C_17  and  C_18
REMARK                            x       y       z     vdW  Elec       q    Type
REMARK                         _______ _______ _______ _____ _____    ______ ____
ROOT
ATOM      1  C   UNL     1       3.407   4.273  18.472  0.00  0.00    +0.000 C 
ENDROOT
BRANCH   1   2
ATOM      2  N   UNL     1       4.738   4.439  17.887  0.00  0.00    +0.000 N 
ATOM      3  C   UNL     1       4.907   4.296  16.517  0.00  0.00    +0.000 A 
ATOM      4  C   UNL     1       6.100   4.479  15.925  0.00  0.00    +0.000 A 
ATOM      5  C   UNL     1       7.242   4.832  16.753  0.00  0.00    +0.000 A 
ATOM      6  C   UNL     1       7.124   4.957  18.083  0.00  0.00    +0.000 A 
ATOM      7 CL   UNL     1       8.474   5.379  19.062  0.00  0.00    +0.000 Cl
ATOM      8  C   UNL     1       5.797   4.739  18.750  0.00  0.00    +0.000 A 
ATOM      9  O   UNL     1       5.659   4.817  19.970  0.00  0.00    +0.000 OA
BRANCH   4  10
ATOM     10  C   UNL     1       6.280   4.351  14.436  0.00  0.00    +0.000 C 
ATOM     11  F   UNL     1       7.352   5.044  13.972  0.00  0.00    +0.000 F 
ATOM     12  F   UNL     1       6.455   3.060  14.061  0.00  0.00    +0.000 F 
ATOM     13  F   UNL     1       5.196   4.816  13.766  0.00  0.00    +0.000 F 
ENDBRANCH   4  10
ENDBRANCH   1   2
BRANCH   1  15
ATOM     14  O   UNL     1       1.357   5.158  17.555  0.00  0.00    +0.000 OA
ATOM     15  C   UNL     1       2.459   5.394  18.044  0.00  0.00    +0.000 C 
ATOM     16  N   UNL     1       2.921   6.666  18.302  0.00  0.00    +0.000 N 
ATOM     17  H   UNL     1       3.761   6.774  18.863  0.00  0.00    +0.000 HD
BRANCH  16  18
ATOM     18  C   UNL     1       2.162   7.851  17.972  0.00  0.00    +0.000 C 
BRANCH  18  19
ATOM     19  C   UNL     1       1.554   8.463  19.209  0.00  0.00    +0.000 A 
ATOM     20  C   UNL     1       1.707   7.840  20.458  0.00  0.00    +0.000 A 
ATOM     21  C   UNL     1       1.129   8.391  21.604  0.00  0.00    +0.000 A 
ATOM     22  C   UNL     1       0.386   9.567  21.508  0.00  0.00    +0.000 A 
ATOM     23 CL   UNL     1      -0.336  10.241  22.917  0.00  0.00    +0.000 Cl
ATOM     24  C   UNL     1       0.220  10.196  20.276  0.00  0.00    +0.000 A 
ATOM     25  C   UNL     1       0.801   9.645  19.129  0.00  0.00    +0.000 A 
ENDBRANCH  18  19
ENDBRANCH  16  18
ENDBRANCH   1  15
TORSDOF 5
ENDMDL
MODEL 4
REMARK VINA RESULT:      -7.0      3.419      6.471
REMARK  Name = 
REMARK  5 active torsions:
REMARK  status: ('A' for Active; 'I' for Inactive)
REMARK    1  A    between atoms: C_2  and  C_3
REMARK    2  A    between atoms: C_3  and  N_4
REMARK    3  A    between atoms: C_6  and  C_7
REMARK    4  A    between atoms: N_16  and  C_17
REMARK    5  A    between atoms: C_17  and  C_18
REMARK                            x       y       z     vdW  Elec       q    Type
REMARK                         _______ _______ _______ _____ _____    ______ ____
ROOT
ATOM      1  C   UNL     1       6.524   5.087  18.891  0.00  0.00    +0.000 C 
ENDROOT
BRANCH   1   2
ATOM      2  N   UNL     1       5.107   5.095  18.524  0.00  0.00    +0.000 N 
ATOM      3  C   UNL     1       4.386   3.909  18.545  0.00  0.00    +0.000 A 
ATOM      4  C   UNL     1       3.074   3.870  18.257  0.00  0.00    +0.000 A 
ATOM      5  C   UNL     1       2.399   5.110  17.911  0.00  0.00    +0.000 A 
ATOM      6  C   UNL     1       3.065   6.272  17.858  0.00  0.00    +0.000 A 
ATOM      7 CL   UNL     1       2.265   7.740  17.452  0.00  0.00    +0.000 Cl
ATOM      8  C   UNL     1       4.534   6.319  18.163  0.00  0.00    +0.000 A 
ATOM      9  O   UNL     1       5.182   7.362  18.096  0.00  0.00    +0.000 OA
BRANCH   4  10
ATOM     10  C   UNL     1       2.285   2.589  18.306  0.00  0.00    +0.000 C 
ATOM     11  F   UNL     1       2.549   1.847  19.412  0.00  0.00    +0.000 F 
ATOM     12  F   UNL     1       0.949   2.823  18.299  0.00  0.00    +0.000 F 
ATOM     13  F   UNL     1       2.555   1.801  17.235  0.00  0.00    +0.000 F 
ENDBRANCH   4  10
ENDBRANCH   1   2
BRANCH   1  15
ATOM     14  O   UNL     1       8.379   4.048  17.749  0.00  0.00    +0.000 OA
ATOM     15  C   UNL     1       7.417   4.809  17.681  0.00  0.00    +0.000 C 
ATOM     16  N   UNL     1       7.020   5.433  16.519  0.00  0.00    +0.000 N 
ATOM     17  H   UNL     1       6.120   5.904  16.503  0.00  0.00    +0.000 HD
BRANCH  16  18
ATOM     18  C   UNL     1       7.737   5.286  15.273  0.00  0.00    +0.000 C 
BRANCH  18  19
ATOM     19  C   UNL     1       6.857   4.666  14.215  0.00  0.00    +0.000 A 
ATOM     20  C   UNL     1       5.533   4.308  14.515  0.00  0.00    +0.000 A 
ATOM     21  C   UNL     1       4.720   3.715  13.546  0.00  0.00    +0.000 A 
ATOM     22  C   UNL     1       5.228   3.470  12.271  0.00  0.00    +0.000 A 
ATOM     23 CL   UNL     1       4.230   2.729  11.080  0.00  0.00    +0.000 Cl
ATOM     24  C   UNL     1       6.541   3.815  11.959  0.00  0.00    +0.000 A 
ATOM     25  C   UNL     1       7.354   4.410  12.928  0.00  0.00    +0.000 A 
ENDBRANCH  18  19
ENDBRANCH  16  18
ENDBRANCH   1  15
TORSDOF 5
ENDMDL
MODEL 5
REMARK VINA RESULT:      -7.0      1.701      2.332
REMARK  Name = 
REMARK  5 active torsions:
REMARK  status: ('A' for Active; 'I' for Inactive)
REMARK    1  A    between atoms: C_2  and  C_3
REMARK    2  A    between atoms: C_3  and  N_4
REMARK    3  A    between atoms: C_6  and  C_7
REMARK    4  A    between atoms: N_16  and  C_17
REMARK    5  A    between atoms: C_17  and  C_18
REMARK                            x       y       z     vdW  Elec       q    Type
REMARK                         _______ _______ _______ _____ _____    ______ ____
ROOT
ATOM      1  C   UNL     1       3.293   4.425  18.448  0.00  0.00    +0.000 C 
ENDROOT
BRANCH   1   2
ATOM      2  N   UNL     1       4.632   4.569  17.874  0.00  0.00    +0.000 N 
ATOM      3  C   UNL     1       4.819   4.372  16.513  0.00  0.00    +0.000 A 
ATOM      4  C   UNL     1       6.020   4.533  15.930  0.00  0.00    +0.000 A 
ATOM      5  C   UNL     1       7.151   4.919  16.758  0.00  0.00    +0.000 A 
ATOM      6  C   UNL     1       7.015   5.096  18.080  0.00  0.00    +0.000 A 
ATOM      7 CL   UNL     1       8.352   5.557  19.060  0.00  0.00    +0.000 Cl
ATOM      8  C   UNL     1       5.679   4.903  18.739  0.00  0.00    +0.000 A 
ATOM      9  O   UNL     1       5.525   5.029  19.952  0.00  0.00    +0.000 OA
BRANCH   4  10
ATOM     10  C   UNL     1       6.219   4.347  14.450  0.00  0.00    +0.000 C 
ATOM     11  F   UNL     1       6.453   3.054  14.106  0.00  0.00    +0.000 F 
ATOM     12  F   UNL     1       5.134   4.751  13.744  0.00  0.00    +0.000 F 
ATOM     13  F   UNL     1       7.276   5.068  13.999  0.00  0.00    +0.000 F 
ENDBRANCH   4  10
ENDBRANCH   1   2
BRANCH   1  15
ATOM     14  O   UNL     1       1.274   5.395  17.552  0.00  0.00    +0.000 OA
ATOM     15  C   UNL     1       2.381   5.586  18.048  0.00  0.00    +0.000 C 
ATOM     16  N   UNL     1       2.880   6.835  18.342  0.00  0.00    +0.000 N 
ATOM     17  H   UNL     1       3.721   6.903  18.908  0.00  0.00    +0.000 HD
BRANCH  16  18
ATOM     18  C   UNL     1       2.158   8.051  18.042  0.00  0.00    +0.000 C 
BRANCH  18  19
ATOM     19  C   UNL     1       1.479   8.592  19.276  0.00  0.00    +0.000 A 
ATOM     20  C   UNL     1       0.677   9.742  19.197  0.00  0.00    +0.000 A 
ATOM     21  C   UNL     1       0.062  10.260  20.340  0.00  0.00    +0.000 A 
ATOM     22  C   UNL     1       0.251   9.635  21.571  0.00  0.00    +0.000 A 
ATOM     23 CL   UNL     1      -0.498  10.278  22.981  0.00  0.00    +0.000 Cl
ATOM     24  C   UNL     1       1.046   8.496  21.668  0.00  0.00    +0.000 A 
ATOM     25  C   UNL     1       1.661   7.976  20.524  0.00  0.00    +0.000 A 
ENDBRANCH  18  19
ENDBRANCH  16  18
ENDBRANCH   1  15
TORSDOF 5
ENDMDL
MODEL 6
REMARK VINA RESULT:      -7.0      2.410      3.086
REMARK  Name = 
REMARK  5 active torsions:
REMARK  status: ('A' for Active; 'I' for Inactive)
REMARK    1  A    between atoms: C_2  and  C_3
REMARK    2  A    between atoms: C_3  and  N_4
REMARK    3  A    between atoms: C_6  and  C_7
REMARK    4  A    between atoms: N_16  and  C_17
REMARK    5  A    between atoms: C_17  and  C_18
REMARK                            x       y       z     vdW  Elec       q    Type
REMARK                         _______ _______ _______ _____ _____    ______ ____
ROOT
ATOM      1  C   UNL     1       4.756   3.854  19.352  0.00  0.00    +0.000 C 
ENDROOT
BRANCH   1   2
ATOM      2  N   UNL     1       5.357   4.563  18.221  0.00  0.00    +0.000 N 
ATOM      3  C   UNL     1       6.133   5.691  18.454  0.00  0.00    +0.000 A 
ATOM      4  C   UNL     1       6.740   6.353  17.454  0.00  0.00    +0.000 A 
ATOM      5  C   UNL     1       6.570   5.871  16.093  0.00  0.00    +0.000 A 
ATOM      6  C   UNL     1       5.810   4.799  15.826  0.00  0.00    +0.000 A 
ATOM      7 CL   UNL     1       5.612   4.226  14.216  0.00  0.00    +0.000 Cl
ATOM      8  C   UNL     1       5.117   4.065  16.937  0.00  0.00    +0.000 A 
ATOM      9  O   UNL     1       4.390   3.096  16.725  0.00  0.00    +0.000 OA
BRANCH   4  10
ATOM     10  C   UNL     1       7.604   7.560  17.706  0.00  0.00    +0.000 C 
ATOM     11  F   UNL     1       8.393   7.876  16.647  0.00  0.00    +0.000 F 
ATOM     12  F   UNL     1       6.861   8.659  17.985  0.00  0.00    +0.000 F 
ATOM     13  F   UNL     1       8.431   7.362  18.763  0.00  0.00    +0.000 F 
ENDBRANCH   4  10
ENDBRANCH   1   2
BRANCH   1  15
ATOM     14  O   UNL     1       2.361   3.635  19.150  0.00  0.00    +0.000 OA
ATOM     15  C   UNL     1       3.308   4.287  19.584  0.00  0.00    +0.000 C 
ATOM     16  N   UNL     1       3.164   5.418  20.355  0.00  0.00    +0.000 N 
ATOM     17  H   UNL     1       3.984   5.799  20.819  0.00  0.00    +0.000 HD
BRANCH  16  18
ATOM     18  C   UNL     1       1.872   5.976  20.685  0.00  0.00    +0.000 C 
BRANCH  18  19
ATOM     19  C   UNL     1       1.712   7.354  20.093  0.00  0.00    +0.000 A 
ATOM     20  C   UNL     1       2.256   7.652  18.833  0.00  0.00    +0.000 A 
ATOM     21  C   UNL     1       2.129   8.933  18.289  0.00  0.00    +0.000 A 
ATOM     22  C   UNL     1       1.463   9.926  19.003  0.00  0.00    +0.000 A 
ATOM     23 CL   UNL     1       1.315  11.506  18.338  0.00  0.00    +0.000 Cl
ATOM     24  C   UNL     1       0.920   9.649  20.256  0.00  0.00    +0.000 A 
ATOM     25  C   UNL     1       1.046   8.366  20.800  0.00  0.00    +0.000 A 
ENDBRANCH  18  19
ENDBRANCH  16  18
ENDBRANCH   1  15
TORSDOF 5
ENDMDL
MODEL 7
REMARK VINA RESULT:      -6.9      3.864      4.834
REMARK  Name = 
REMARK  5 active torsions:
REMARK  status: ('A' for Active; 'I' for Inactive)
REMARK    1  A    between atoms: C_2  and  C_3
REMARK    2  A    between atoms: C_3  and  N_4
REMARK    3  A    between atoms: C_6  and  C_7
REMARK    4  A    between atoms: N_16  and  C_17
REMARK    5  A    between atoms: C_17  and  C_18
REMARK                            x       y       z     vdW  Elec       q    Type
REMARK                         _______ _______ _______ _____ _____    ______ ____
ROOT
ATOM      1  C   UNL     1       2.879   7.665  17.357  0.00  0.00    +0.000 C 
ENDROOT
BRANCH   1   2
ATOM      2  N   UNL     1       3.457   6.357  17.664  0.00  0.00    +0.000 N 
ATOM      3  C   UNL     1       2.620   5.277  17.908  0.00  0.00    +0.000 A 
ATOM      4  C   UNL     1       3.101   4.046  18.153  0.00  0.00    +0.000 A 
ATOM      5  C   UNL     1       4.542   3.850  18.167  0.00  0.00    +0.000 A 
ATOM      6  C   UNL     1       5.384   4.873  17.959  0.00  0.00    +0.000 A 
ATOM      7 CL   UNL     1       7.088   4.641  17.971  0.00  0.00    +0.000 Cl
ATOM      8  C   UNL     1       4.851   6.253  17.699  0.00  0.00    +0.000 A 
ATOM      9  O   UNL     1       5.595   7.218  17.533  0.00  0.00    +0.000 OA
BRANCH   4  10
ATOM     10  C   UNL     1       2.195   2.868  18.390  0.00  0.00    +0.000 C 
ATOM     11  F   UNL     1       2.153   2.013  17.335  0.00  0.00    +0.000 F 
ATOM     12  F   UNL     1       2.586   2.143  19.468  0.00  0.00    +0.000 F 
ATOM     13  F   UNL     1       0.919   3.265  18.621  0.00  0.00    +0.000 F 
ENDBRANCH   4  10
ENDBRANCH   1   2
BRANCH   1  15
ATOM     14  O   UNL     1       2.220   7.769  19.677  0.00  0.00    +0.000 OA
ATOM     15  C   UNL     1       2.095   8.227  18.544  0.00  0.00    +0.000 C 
ATOM     16  N   UNL     1       1.295   9.308  18.243  0.00  0.00    +0.000 N 
ATOM     17  H   UNL     1       1.379   9.734  17.325  0.00  0.00    +0.000 HD
BRANCH  16  18
ATOM     18  C   UNL     1       0.484   9.976  19.236  0.00  0.00    +0.000 C 
BRANCH  18  19
ATOM     19  C   UNL     1      -0.828  10.427  18.645  0.00  0.00    +0.000 A 
ATOM     20  C   UNL     1      -1.608  11.392  19.303  0.00  0.00    +0.000 A 
ATOM     21  C   UNL     1      -2.834  11.798  18.771  0.00  0.00    +0.000 A 
ATOM     22  C   UNL     1      -3.293  11.237  17.581  0.00  0.00    +0.000 A 
ATOM     23 CL   UNL     1      -4.809  11.730  16.931  0.00  0.00    +0.000 Cl
ATOM     24  C   UNL     1      -2.535  10.275  16.918  0.00  0.00    +0.000 A 
ATOM     25  C   UNL     1      -1.306   9.869  17.449  0.00  0.00    +0.000 A 
ENDBRANCH  18  19
ENDBRANCH  16  18
ENDBRANCH   1  15
TORSDOF 5
ENDMDL
MODEL 8
REMARK VINA RESULT:      -6.9      4.196      5.382
REMARK  Name = 
REMARK  5 active torsions:
REMARK  status: ('A' for Active; 'I' for Inactive)
REMARK    1  A    between atoms: C_2  and  C_3
REMARK    2  A    between atoms: C_3  and  N_4
REMARK    3  A    between atoms: C_6  and  C_7
REMARK    4  A    between atoms: N_16  and  C_17
REMARK    5  A    between atoms: C_17  and  C_18
REMARK                            x       y       z     vdW  Elec       q    Type
REMARK                         _______ _______ _______ _____ _____    ______ ____
ROOT
ATOM      1  C   UNL     1       2.950   7.853  17.818  0.00  0.00    +0.000 C 
ENDROOT
BRANCH   1   2
ATOM      2  N   UNL     1       3.130   6.400  17.816  0.00  0.00    +0.000 N 
ATOM      3  C   UNL     1       2.231   5.597  18.504  0.00  0.00    +0.000 A 
ATOM      4  C   UNL     1       2.328   4.256  18.499  0.00  0.00    +0.000 A 
ATOM      5  C   UNL     1       3.412   3.638  17.752  0.00  0.00    +0.000 A 
ATOM      6  C   UNL     1       4.313   4.381  17.093  0.00  0.00    +0.000 A 
ATOM      7 CL   UNL     1       5.593   3.650  16.207  0.00  0.00    +0.000 Cl
ATOM      8  C   UNL     1       4.218   5.879  17.108  0.00  0.00    +0.000 A 
ATOM      9  O   UNL     1       5.044   6.591  16.539  0.00  0.00    +0.000 OA
BRANCH   4  10
ATOM     10  C   UNL     1       1.339   3.382  19.222  0.00  0.00    +0.000 C 
ATOM     11  F   UNL     1       1.933   2.402  19.950  0.00  0.00    +0.000 F 
ATOM     12  F   UNL     1       0.570   4.099  20.080  0.00  0.00    +0.000 F 
ATOM     13  F   UNL     1       0.497   2.767  18.354  0.00  0.00    +0.000 F 
ENDBRANCH   4  10
ENDBRANCH   1   2
BRANCH   1  15
ATOM     14  O   UNL     1       2.051   7.775  20.056  0.00  0.00    +0.000 OA
ATOM     15  C   UNL     1       2.023   8.304  18.947  0.00  0.00    +0.000 C 
ATOM     16  N   UNL     1       1.213   9.372  18.632  0.00  0.00    +0.000 N 
ATOM     17  H   UNL     1       1.372   9.862  17.757  0.00  0.00    +0.000 HD
BRANCH  16  18
ATOM     18  C   UNL     1       0.275   9.941  19.573  0.00  0.00    +0.000 C 
BRANCH  18  19
ATOM     19  C   UNL     1      -0.983  10.393  18.874  0.00  0.00    +0.000 A 
ATOM     20  C   UNL     1      -1.330   9.859  17.622  0.00  0.00    +0.000 A 
ATOM     21  C   UNL     1      -2.483  10.290  16.960  0.00  0.00    +0.000 A 
ATOM     22  C   UNL     1      -3.293  11.263  17.542  0.00  0.00    +0.000 A 
ATOM     23 CL   UNL     1      -4.707  11.802  16.722  0.00  0.00    +0.000 Cl
ATOM     24  C   UNL     1      -2.961  11.807  18.781  0.00  0.00    +0.000 A 
ATOM     25  C   UNL     1      -1.808  11.375  19.444  0.00  0.00    +0.000 A 
ENDBRANCH  18  19
ENDBRANCH  16  18
ENDBRANCH   1  15
TORSDOF 5
ENDMDL
MODEL 9
REMARK VINA RESULT:      -6.9      1.004      1.212
REMARK  Name = 
REMARK  5 active torsions:
REMARK  status: ('A' for Active; 'I' for Inactive)
REMARK    1  A    between atoms: C_2  and  C_3
REMARK    2  A    between atoms: C_3  and  N_4
REMARK    3  A    between atoms: C_6  and  C_7
REMARK    4  A    between atoms: N_16  and  C_17
REMARK    5  A    between atoms: C_17  and  C_18
REMARK                            x       y       z     vdW  Elec       q    Type
REMARK                         _______ _______ _______ _____ _____    ______ ____
ROOT
ATOM      1  C   UNL     1       3.542   2.725  18.458  0.00  0.00    +0.000 C 
ENDROOT
BRANCH   1   2
ATOM      2  N   UNL     1       4.610   3.603  17.977  0.00  0.00    +0.000 N 
ATOM      3  C   UNL     1       4.672   3.934  16.631  0.00  0.00    +0.000 A 
ATOM      4  C   UNL     1       5.607   4.769  16.147  0.00  0.00    +0.000 A 
ATOM      5  C   UNL     1       6.582   5.333  17.066  0.00  0.00    +0.000 A 
ATOM      6  C   UNL     1       6.569   5.020  18.370  0.00  0.00    +0.000 A 
ATOM      7 CL   UNL     1       7.719   5.691  19.459  0.00  0.00    +0.000 Cl
ATOM      8  C   UNL     1       5.535   4.076  18.913  0.00  0.00    +0.000 A 
ATOM      9  O   UNL     1       5.512   3.745  20.097  0.00  0.00    +0.000 OA
BRANCH   4  10
ATOM     10  C   UNL     1       5.660   5.151  14.691  0.00  0.00    +0.000 C 
ATOM     11  F   UNL     1       4.982   4.286  13.894  0.00  0.00    +0.000 F 
ATOM     12  F   UNL     1       5.130   6.381  14.477  0.00  0.00    +0.000 F 
ATOM     13  F   UNL     1       6.936   5.183  14.235  0.00  0.00    +0.000 F 
ENDBRANCH   4  10
ENDBRANCH   1   2
BRANCH   1  15
ATOM     14  O   UNL     1       1.222   3.307  18.783  0.00  0.00    +0.000 OA
ATOM     15  C   UNL     1       2.395   3.522  19.080  0.00  0.00    +0.000 C 
ATOM     16  N   UNL     1       2.784   4.444  20.026  0.00  0.00    +0.000 N 
ATOM     17  H   UNL     1       3.750   4.440  20.341  0.00  0.00    +0.000 HD
BRANCH  16  18
ATOM     18  C   UNL     1       1.841   5.286  20.727  0.00  0.00    +0.000 C 
BRANCH  18  19
ATOM     19  C   UNL     1       1.811   6.672  20.132  0.00  0.00    +0.000 A 
ATOM     20  C   UNL     1       1.220   7.734  20.837  0.00  0.00    +0.000 A 
ATOM     21  C   UNL     1       1.172   9.015  20.282  0.00  0.00    +0.000 A 
ATOM     22  C   UNL     1       1.707   9.243  19.016  0.00  0.00    +0.000 A 
ATOM     23 CL   UNL     1       1.637  10.819  18.328  0.00  0.00    +0.000 Cl
ATOM     24  C   UNL     1       2.292   8.201  18.301  0.00  0.00    +0.000 A 
ATOM     25  C   UNL     1       2.343   6.918  18.857  0.00  0.00    +0.000 A 
ENDBRANCH  18  19
ENDBRANCH  16  18
ENDBRANCH   1  15
TORSDOF 5
ENDMDL
