MODEL 1
REMARK VINA RESULT:      -6.7      0.000      0.000
REMARK  Name = 
REMARK  3 active torsions:
REMARK  status: ('A' for Active; 'I' for Inactive)
REMARK    1  A    between atoms: C_2  and  C_3
REMARK    2  A    between atoms: C_6  and  C_7
REMARK    3  A    between atoms: C_7  and  C_8
REMARK                            x       y       z     vdW  Elec       q    Type
REMARK                         _______ _______ _______ _____ _____    ______ ____
ROOT
ATOM      1  C   UNL     1       2.614   5.175  19.055  0.00  0.00    +0.000 A 
ATOM      2  C   UNL     1       1.949   4.244  18.276  0.00  0.00    +0.000 A 
ATOM      3  S   UNL     1       3.045   3.463  17.212  0.00  0.00    +0.000 S 
ATOM      4  C   UNL     1       4.339   4.373  17.886  0.00  0.00    +0.000 A 
ATOM      5  N   UNL     1       4.000   5.180  18.868  0.00  0.00    +0.000 NA
ENDROOT
BRANCH   1   7
ATOM      6  O   UNL     1       1.285   5.603  20.948  0.00  0.00    +0.000 OA
ATOM      7  C   UNL     1       1.942   6.061  20.016  0.00  0.00    +0.000 C 
ATOM      8  N   UNL     1       2.080   7.439  19.823  0.00  0.00    +0.000 N 
ATOM      9  C   UNL     1       1.595   8.376  20.833  0.00  0.00    +0.000 C 
ATOM     10  C   UNL     1       0.493   9.271  20.255  0.00  0.00    +0.000 C 
ATOM     11  O   UNL     1       0.938   9.933  19.059  0.00  0.00    +0.000 OA
ATOM     12  C   UNL     1       1.306   8.971  18.060  0.00  0.00    +0.000 C 
ATOM     13  C   UNL     1       2.443   8.074  18.548  0.00  0.00    +0.000 C 
ENDBRANCH   1   7
BRANCH   4  14
ATOM     14  C   UNL     1       5.744   4.235  17.370  0.00  0.00    +0.000 C 
BRANCH  14  15
ATOM     15  C   UNL     1       6.586   5.471  17.626  0.00  0.00    +0.000 A 
ATOM     16  C   UNL     1       7.522   5.496  18.672  0.00  0.00    +0.000 A 
ATOM     17  C   UNL     1       8.234   6.664  18.959  0.00  0.00    +0.000 A 
ATOM     18  C   UNL     1       8.016   7.812  18.201  0.00  0.00    +0.000 A 
ATOM     19 CL   UNL     1       8.852   9.265  18.587  0.00  0.00    +0.000 Cl
ATOM     20  C   UNL     1       7.111   7.796  17.142  0.00  0.00    +0.000 A 
ATOM     21  C   UNL     1       6.400   6.627  16.854  0.00  0.00    +0.000 A 
ENDBRANCH  14  15
ENDBRANCH   4  14
TORSDOF 3
ENDMDL
MODEL 2
REMARK VINA RESULT:      -6.5      4.101      7.397
REMARK  Name = 
REMARK  3 active torsions:
REMARK  status: ('A' for Active; 'I' for Inactive)
REMARK    1  A    between atoms: C_2  and  C_3
REMARK    2  A    between atoms: C_6  and  C_7
REMARK    3  A    between atoms: C_7  and  C_8
REMARK                            x       y       z     vdW  Elec       q    Type
REMARK                         _______ _______ _______ _____ _____    ______ ____
ROOT
ATOM      1  C   UNL     1       2.797   6.577  18.332  0.00  0.00    +0.000 A 
ATOM      2  C   UNL     1       2.390   6.503  19.653  0.00  0.00    +0.000 A 
ATOM      3  S   UNL     1       1.744   8.008  20.162  0.00  0.00    +0.000 S 
ATOM      4  C   UNL     1       1.999   8.645  18.585  0.00  0.00    +0.000 A 
ATOM      5  N   UNL     1       2.494   7.794  17.714  0.00  0.00    +0.000 NA
ENDROOT
BRANCH   1   7
ATOM      6  O   UNL     1       2.998   4.334  17.648  0.00  0.00    +0.000 OA
ATOM      7  C   UNL     1       3.461   5.473  17.622  0.00  0.00    +0.000 C 
ATOM      8  N   UNL     1       4.634   5.773  16.923  0.00  0.00    +0.000 N 
ATOM      9  C   UNL     1       5.247   4.775  16.051  0.00  0.00    +0.000 C 
ATOM     10  C   UNL     1       6.651   4.413  16.547  0.00  0.00    +0.000 C 
ATOM     11  O   UNL     1       7.466   5.588  16.695  0.00  0.00    +0.000 OA
ATOM     12  C   UNL     1       6.874   6.492  17.640  0.00  0.00    +0.000 C 
ATOM     13  C   UNL     1       5.487   6.941  17.182  0.00  0.00    +0.000 C 
ENDBRANCH   1   7
BRANCH   4  14
ATOM     14  C   UNL     1       1.669  10.075  18.257  0.00  0.00    +0.000 C 
BRANCH  14  15
ATOM     15  C   UNL     1       0.189  10.380  18.389  0.00  0.00    +0.000 A 
ATOM     16  C   UNL     1      -0.748   9.758  17.548  0.00  0.00    +0.000 A 
ATOM     17  C   UNL     1      -2.100  10.105  17.613  0.00  0.00    +0.000 A 
ATOM     18  C   UNL     1      -2.523  11.074  18.520  0.00  0.00    +0.000 A 
ATOM     19 CL   UNL     1      -4.179  11.542  18.563  0.00  0.00    +0.000 Cl
ATOM     20  C   UNL     1      -1.611  11.681  19.379  0.00  0.00    +0.000 A 
ATOM     21  C   UNL     1      -0.258  11.334  19.315  0.00  0.00    +0.000 A 
ENDBRANCH  14  15
ENDBRANCH   4  14
TORSDOF 3
ENDMDL
MODEL 3
REMARK VINA RESULT:      -6.5      3.790      5.415
REMARK  Name = 
REMARK  3 active torsions:
REMARK  status: ('A' for Active; 'I' for Inactive)
REMARK    1  A    between atoms: C_2  and  C_3
REMARK    2  A    between atoms: C_6  and  C_7
REMARK    3  A    between atoms: C_7  and  C_8
REMARK                            x       y       z     vdW  Elec       q    Type
REMARK                         _______ _______ _______ _____ _____    ______ ____
ROOT
ATOM      1  C   UNL     1       5.008   5.303  18.351  0.00  0.00    +0.000 A 
ATOM      2  C   UNL     1       6.118   4.832  19.031  0.00  0.00    +0.000 A 
ATOM      3  S   UNL     1       7.513   4.932  18.037  0.00  0.00    +0.000 S 
ATOM      4  C   UNL     1       6.565   5.638  16.787  0.00  0.00    +0.000 A 
ATOM      5  N   UNL     1       5.300   5.831  17.090  0.00  0.00    +0.000 NA
ENDROOT
BRANCH   1   7
ATOM      6  O   UNL     1       3.280   6.127  19.718  0.00  0.00    +0.000 OA
ATOM      7  C   UNL     1       3.646   5.282  18.904  0.00  0.00    +0.000 C 
ATOM      8  N   UNL     1       2.791   4.265  18.467  0.00  0.00    +0.000 N 
ATOM      9  C   UNL     1       1.377   4.286  18.831  0.00  0.00    +0.000 C 
ATOM     10  C   UNL     1       1.018   3.055  19.671  0.00  0.00    +0.000 C 
ATOM     11  O   UNL     1       1.395   1.842  18.998  0.00  0.00    +0.000 OA
ATOM     12  C   UNL     1       2.809   1.823  18.755  0.00  0.00    +0.000 C 
ATOM     13  C   UNL     1       3.234   2.997  17.874  0.00  0.00    +0.000 C 
ENDBRANCH   1   7
BRANCH   4  14
ATOM     14  C   UNL     1       7.168   5.998  15.458  0.00  0.00    +0.000 C 
BRANCH  14  15
ATOM     15  C   UNL     1       6.720   5.073  14.342  0.00  0.00    +0.000 A 
ATOM     16  C   UNL     1       5.540   4.322  14.465  0.00  0.00    +0.000 A 
ATOM     17  C   UNL     1       5.175   3.406  13.474  0.00  0.00    +0.000 A 
ATOM     18  C   UNL     1       5.986   3.238  12.354  0.00  0.00    +0.000 A 
ATOM     19 CL   UNL     1       5.567   2.073  11.160  0.00  0.00    +0.000 Cl
ATOM     20  C   UNL     1       7.146   3.995  12.204  0.00  0.00    +0.000 A 
ATOM     21  C   UNL     1       7.511   4.911  13.195  0.00  0.00    +0.000 A 
ENDBRANCH  14  15
ENDBRANCH   4  14
TORSDOF 3
ENDMDL
MODEL 4
REMARK VINA RESULT:      -6.5      3.700      5.373
REMARK  Name = 
REMARK  3 active torsions:
REMARK  status: ('A' for Active; 'I' for Inactive)
REMARK    1  A    between atoms: C_2  and  C_3
REMARK    2  A    between atoms: C_6  and  C_7
REMARK    3  A    between atoms: C_7  and  C_8
REMARK                            x       y       z     vdW  Elec       q    Type
REMARK                         _______ _______ _______ _____ _____    ______ ____
ROOT
ATOM      1  C   UNL     1       4.970   5.499  18.465  0.00  0.00    +0.000 A 
ATOM      2  C   UNL     1       6.056   5.276  19.294  0.00  0.00    +0.000 A 
ATOM      3  S   UNL     1       7.519   5.402  18.407  0.00  0.00    +0.000 S 
ATOM      4  C   UNL     1       6.622   5.791  16.993  0.00  0.00    +0.000 A 
ATOM      5  N   UNL     1       5.320   5.867  17.163  0.00  0.00    +0.000 NA
ENDROOT
BRANCH   1   7
ATOM      6  O   UNL     1       3.073   6.238  19.645  0.00  0.00    +0.000 OA
ATOM      7  C   UNL     1       3.572   5.390  18.908  0.00  0.00    +0.000 C 
ATOM      8  N   UNL     1       2.840   4.287  18.459  0.00  0.00    +0.000 N 
ATOM      9  C   UNL     1       1.403   4.206  18.707  0.00  0.00    +0.000 C 
ATOM     10  C   UNL     1       1.074   2.989  19.580  0.00  0.00    +0.000 C 
ATOM     11  O   UNL     1       1.601   1.782  19.004  0.00  0.00    +0.000 OA
ATOM     12  C   UNL     1       3.028   1.870  18.875  0.00  0.00    +0.000 C 
ATOM     13  C   UNL     1       3.431   3.034  17.970  0.00  0.00    +0.000 C 
ENDBRANCH   1   7
BRANCH   4  14
ATOM     14  C   UNL     1       7.304   6.023  15.674  0.00  0.00    +0.000 C 
BRANCH  14  15
ATOM     15  C   UNL     1       6.852   5.049  14.602  0.00  0.00    +0.000 A 
ATOM     16  C   UNL     1       7.516   4.985  13.366  0.00  0.00    +0.000 A 
ATOM     17  C   UNL     1       7.044   4.150  12.350  0.00  0.00    +0.000 A 
ATOM     18  C   UNL     1       5.908   3.372  12.564  0.00  0.00    +0.000 A 
ATOM     19 CL   UNL     1       5.295   2.384  11.295  0.00  0.00    +0.000 Cl
ATOM     20  C   UNL     1       5.254   3.404  13.792  0.00  0.00    +0.000 A 
ATOM     21  C   UNL     1       5.726   4.239  14.810  0.00  0.00    +0.000 A 
ENDBRANCH  14  15
ENDBRANCH   4  14
TORSDOF 3
ENDMDL
MODEL 5
REMARK VINA RESULT:      -6.4      4.495      7.447
REMARK  Name = 
REMARK  3 active torsions:
REMARK  status: ('A' for Active; 'I' for Inactive)
REMARK    1  A    between atoms: C_2  and  C_3
REMARK    2  A    between atoms: C_6  and  C_7
REMARK    3  A    between atoms: C_7  and  C_8
REMARK                            x       y       z     vdW  Elec       q    Type
REMARK                         _______ _______ _______ _____ _____    ______ ____
ROOT
ATOM      1  C   UNL     1       2.577   6.779  19.595  0.00  0.00    +0.000 A 
ATOM      2  C   UNL     1       1.893   7.089  20.758  0.00  0.00    +0.000 A 
ATOM      3  S   UNL     1       1.079   8.589  20.590  0.00  0.00    +0.000 S 
ATOM      4  C   UNL     1       1.644   8.707  18.970  0.00  0.00    +0.000 A 
ATOM      5  N   UNL     1       2.359   7.685  18.553  0.00  0.00    +0.000 NA
ENDROOT
BRANCH   1   7
ATOM      6  O   UNL     1       4.592   5.693  19.050  0.00  0.00    +0.000 OA
ATOM      7  C   UNL     1       3.433   5.592  19.446  0.00  0.00    +0.000 C 
ATOM      8  N   UNL     1       2.873   4.353  19.771  0.00  0.00    +0.000 N 
ATOM      9  C   UNL     1       3.711   3.157  19.821  0.00  0.00    +0.000 C 
ATOM     10  C   UNL     1       3.250   2.131  18.780  0.00  0.00    +0.000 C 
ATOM     11  O   UNL     1       1.853   1.830  18.933  0.00  0.00    +0.000 OA
ATOM     12  C   UNL     1       1.064   3.018  18.773  0.00  0.00    +0.000 C 
ATOM     13  C   UNL     1       1.432   4.071  19.817  0.00  0.00    +0.000 C 
ENDBRANCH   1   7
BRANCH   4  14
ATOM     14  C   UNL     1       1.326   9.904  18.117  0.00  0.00    +0.000 C 
BRANCH  14  15
ATOM     15  C   UNL     1      -0.118  10.349  18.246  0.00  0.00    +0.000 A 
ATOM     16  C   UNL     1      -1.143   9.657  17.580  0.00  0.00    +0.000 A 
ATOM     17  C   UNL     1      -2.460  10.120  17.631  0.00  0.00    +0.000 A 
ATOM     18  C   UNL     1      -2.761  11.276  18.350  0.00  0.00    +0.000 A 
ATOM     19 CL   UNL     1      -4.373  11.877  18.368  0.00  0.00    +0.000 Cl
ATOM     20  C   UNL     1      -1.761  11.958  19.037  0.00  0.00    +0.000 A 
ATOM     21  C   UNL     1      -0.443  11.495  18.988  0.00  0.00    +0.000 A 
ENDBRANCH  14  15
ENDBRANCH   4  14
TORSDOF 3
ENDMDL
MODEL 6
REMARK VINA RESULT:      -6.4      3.789      5.238
REMARK  Name = 
REMARK  3 active torsions:
REMARK  status: ('A' for Active; 'I' for Inactive)
REMARK    1  A    between atoms: C_2  and  C_3
REMARK    2  A    between atoms: C_6  and  C_7
REMARK    3  A    between atoms: C_7  and  C_8
REMARK                            x       y       z     vdW  Elec       q    Type
REMARK                         _______ _______ _______ _____ _____    ______ ____
ROOT
ATOM      1  C   UNL     1       5.322   4.548  18.698  0.00  0.00    +0.000 A 
ATOM      2  C   UNL     1       6.479   5.227  19.041  0.00  0.00    +0.000 A 
ATOM      3  S   UNL     1       7.007   6.204  17.733  0.00  0.00    +0.000 S 
ATOM      4  C   UNL     1       5.642   5.702  16.814  0.00  0.00    +0.000 A 
ATOM      5  N   UNL     1       4.816   4.893  17.441  0.00  0.00    +0.000 NA
ENDROOT
BRANCH   1   7
ATOM      6  O   UNL     1       5.225   2.535  19.912  0.00  0.00    +0.000 OA
ATOM      7  C   UNL     1       4.660   3.574  19.578  0.00  0.00    +0.000 C 
ATOM      8  N   UNL     1       3.366   3.879  20.014  0.00  0.00    +0.000 N 
ATOM      9  C   UNL     1       2.718   3.052  21.028  0.00  0.00    +0.000 C 
ATOM     10  C   UNL     1       1.452   2.398  20.463  0.00  0.00    +0.000 C 
ATOM     11  O   UNL     1       0.565   3.383  19.908  0.00  0.00    +0.000 OA
ATOM     12  C   UNL     1       1.213   4.099  18.846  0.00  0.00    +0.000 C 
ATOM     13  C   UNL     1       2.461   4.825  19.349  0.00  0.00    +0.000 C 
ENDBRANCH   1   7
BRANCH   4  14
ATOM     14  C   UNL     1       5.436   6.172  15.401  0.00  0.00    +0.000 C 
BRANCH  14  15
ATOM     15  C   UNL     1       5.928   5.171  14.374  0.00  0.00    +0.000 A 
ATOM     16  C   UNL     1       7.229   5.261  13.852  0.00  0.00    +0.000 A 
ATOM     17  C   UNL     1       7.651   4.391  12.843  0.00  0.00    +0.000 A 
ATOM     18  C   UNL     1       6.776   3.425  12.351  0.00  0.00    +0.000 A 
ATOM     19 CL   UNL     1       7.275   2.389  11.072  0.00  0.00    +0.000 Cl
ATOM     20  C   UNL     1       5.491   3.305  12.876  0.00  0.00    +0.000 A 
ATOM     21  C   UNL     1       5.069   4.174  13.886  0.00  0.00    +0.000 A 
ENDBRANCH  14  15
ENDBRANCH   4  14
TORSDOF 3
ENDMDL
MODEL 7
REMARK VINA RESULT:      -6.4      4.504      7.305
REMARK  Name = 
REMARK  3 active torsions:
REMARK  status: ('A' for Active; 'I' for Inactive)
REMARK    1  A    between atoms: C_2  and  C_3
REMARK    2  A    between atoms: C_6  and  C_7
REMARK    3  A    between atoms: C_7  and  C_8
REMARK                            x       y       z     vdW  Elec       q    Type
REMARK                         _______ _______ _______ _____ _____    ______ ____
ROOT
ATOM      1  C   UNL     1       2.568   6.645  19.696  0.00  0.00    +0.000 A 
ATOM      2  C   UNL     1       1.859   7.054  20.813  0.00  0.00    +0.000 A 
ATOM      3  S   UNL     1       1.105   8.567  20.520  0.00  0.00    +0.000 S 
ATOM      4  C   UNL     1       1.726   8.560  18.916  0.00  0.00    +0.000 A 
ATOM      5  N   UNL     1       2.417   7.489  18.592  0.00  0.00    +0.000 NA
ENDROOT
BRANCH   1   7
ATOM      6  O   UNL     1       4.592   5.476  19.430  0.00  0.00    +0.000 OA
ATOM      7  C   UNL     1       3.385   5.423  19.654  0.00  0.00    +0.000 C 
ATOM      8  N   UNL     1       2.731   4.207  19.876  0.00  0.00    +0.000 N 
ATOM      9  C   UNL     1       3.501   2.975  20.028  0.00  0.00    +0.000 C 
ATOM     10  C   UNL     1       3.152   1.980  18.916  0.00  0.00    +0.000 C 
ATOM     11  O   UNL     1       1.736   1.740  18.863  0.00  0.00    +0.000 OA
ATOM     12  C   UNL     1       1.029   2.963  18.609  0.00  0.00    +0.000 C 
ATOM     13  C   UNL     1       1.288   3.990  19.711  0.00  0.00    +0.000 C 
ENDBRANCH   1   7
BRANCH   4  14
ATOM     14  C   UNL     1       1.480   9.708  17.978  0.00  0.00    +0.000 C 
BRANCH  14  15
ATOM     15  C   UNL     1       0.109  10.332  18.162  0.00  0.00    +0.000 A 
ATOM     16  C   UNL     1      -0.053  11.486  18.946  0.00  0.00    +0.000 A 
ATOM     17  C   UNL     1      -1.327  12.008  19.184  0.00  0.00    +0.000 A 
ATOM     18  C   UNL     1      -2.445  11.381  18.640  0.00  0.00    +0.000 A 
ATOM     19 CL   UNL     1      -4.018  11.991  18.977  0.00  0.00    +0.000 Cl
ATOM     20  C   UNL     1      -2.300  10.251  17.838  0.00  0.00    +0.000 A 
ATOM     21  C   UNL     1      -1.025   9.729  17.598  0.00  0.00    +0.000 A 
ENDBRANCH  14  15
ENDBRANCH   4  14
TORSDOF 3
ENDMDL
MODEL 8
REMARK VINA RESULT:      -6.4      3.662      5.304
REMARK  Name = 
REMARK  3 active torsions:
REMARK  status: ('A' for Active; 'I' for Inactive)
REMARK    1  A    between atoms: C_2  and  C_3
REMARK    2  A    between atoms: C_6  and  C_7
REMARK    3  A    between atoms: C_7  and  C_8
REMARK                            x       y       z     vdW  Elec       q    Type
REMARK                         _______ _______ _______ _____ _____    ______ ____
ROOT
ATOM      1  C   UNL     1       0.741   9.648  19.539  0.00  0.00    +0.000 A 
ATOM      2  C   UNL     1       0.828   8.814  20.640  0.00  0.00    +0.000 A 
ATOM      3  S   UNL     1       1.880   7.500  20.311  0.00  0.00    +0.000 S 
ATOM      4  C   UNL     1       2.190   8.147  18.748  0.00  0.00    +0.000 A 
ATOM      5  N   UNL     1       1.589   9.288  18.488  0.00  0.00    +0.000 NA
ENDROOT
BRANCH   1   7
ATOM      6  O   UNL     1      -0.113  11.682  20.359  0.00  0.00    +0.000 OA
ATOM      7  C   UNL     1      -0.138  10.826  19.478  0.00  0.00    +0.000 C 
ATOM      8  N   UNL     1      -0.999  10.927  18.380  0.00  0.00    +0.000 N 
ATOM      9  C   UNL     1      -1.767  12.149  18.158  0.00  0.00    +0.000 C 
ATOM     10  C   UNL     1      -3.271  11.862  18.226  0.00  0.00    +0.000 C 
ATOM     11  O   UNL     1      -3.638  10.810  17.318  0.00  0.00    +0.000 OA
ATOM     12  C   UNL     1      -2.934   9.601  17.641  0.00  0.00    +0.000 C 
ATOM     13  C   UNL     1      -1.422   9.798  17.541  0.00  0.00    +0.000 C 
ENDBRANCH   1   7
BRANCH   4  14
ATOM     14  C   UNL     1       3.087   7.437  17.772  0.00  0.00    +0.000 C 
BRANCH  14  15
ATOM     15  C   UNL     1       3.160   5.943  18.023  0.00  0.00    +0.000 A 
ATOM     16  C   UNL     1       4.361   5.343  18.435  0.00  0.00    +0.000 A 
ATOM     17  C   UNL     1       4.448   3.956  18.582  0.00  0.00    +0.000 A 
ATOM     18  C   UNL     1       3.334   3.161  18.321  0.00  0.00    +0.000 A 
ATOM     19 CL   UNL     1       3.455   1.450  18.449  0.00  0.00    +0.000 Cl
ATOM     20  C   UNL     1       2.128   3.742  17.938  0.00  0.00    +0.000 A 
ATOM     21  C   UNL     1       2.040   5.130  17.792  0.00  0.00    +0.000 A 
ENDBRANCH  14  15
ENDBRANCH   4  14
TORSDOF 3
ENDMDL
MODEL 9
REMARK VINA RESULT:      -6.3      2.574      3.324
REMARK  Name = 
REMARK  3 active torsions:
REMARK  status: ('A' for Active; 'I' for Inactive)
REMARK    1  A    between atoms: C_2  and  C_3
REMARK    2  A    between atoms: C_6  and  C_7
REMARK    3  A    between atoms: C_7  and  C_8
REMARK                            x       y       z     vdW  Elec       q    Type
REMARK                         _______ _______ _______ _____ _____    ______ ____
ROOT
ATOM      1  C   UNL     1       2.572   6.687  19.429  0.00  0.00    +0.000 A 
ATOM      2  C   UNL     1       1.824   5.725  20.086  0.00  0.00    +0.000 A 
ATOM      3  S   UNL     1       2.695   4.249  20.172  0.00  0.00    +0.000 S 
ATOM      4  C   UNL     1       4.026   4.994  19.377  0.00  0.00    +0.000 A 
ATOM      5  N   UNL     1       3.864   6.269  19.096  0.00  0.00    +0.000 NA
ENDROOT
BRANCH   1   7
ATOM      6  O   UNL     1       2.431   8.633  18.113  0.00  0.00    +0.000 OA
ATOM      7  C   UNL     1       2.076   8.039  19.129  0.00  0.00    +0.000 C 
ATOM      8  N   UNL     1       1.190   8.614  20.045  0.00  0.00    +0.000 N 
ATOM      9  C   UNL     1       0.517   9.871  19.727  0.00  0.00    +0.000 C 
ATOM     10  C   UNL     1       0.915  10.964  20.726  0.00  0.00    +0.000 C 
ATOM     11  O   UNL     1       0.676  10.539  22.078  0.00  0.00    +0.000 OA
ATOM     12  C   UNL     1       1.438   9.360  22.375  0.00  0.00    +0.000 C 
ATOM     13  C   UNL     1       1.055   8.206  21.449  0.00  0.00    +0.000 C 
ENDBRANCH   1   7
BRANCH   4  14
ATOM     14  C   UNL     1       5.269   4.219  19.042  0.00  0.00    +0.000 C 
BRANCH  14  15
ATOM     15  C   UNL     1       5.696   4.394  17.597  0.00  0.00    +0.000 A 
ATOM     16  C   UNL     1       4.800   4.132  16.548  0.00  0.00    +0.000 A 
ATOM     17  C   UNL     1       5.222   4.211  15.218  0.00  0.00    +0.000 A 
ATOM     18  C   UNL     1       6.541   4.553  14.929  0.00  0.00    +0.000 A 
ATOM     19 CL   UNL     1       7.076   4.597  13.294  0.00  0.00    +0.000 Cl
ATOM     20  C   UNL     1       7.435   4.842  15.956  0.00  0.00    +0.000 A 
ATOM     21  C   UNL     1       7.014   4.765  17.287  0.00  0.00    +0.000 A 
ENDBRANCH  14  15
ENDBRANCH   4  14
TORSDOF 3
ENDMDL
