MODEL 1
REMARK VINA RESULT:      -6.7      0.000      0.000
REMARK  Name = 
REMARK  6 active torsions:
REMARK  status: ('A' for Active; 'I' for Inactive)
REMARK    1  A    between atoms: C_1  and  O_2
REMARK    2  A    between atoms: O_2  and  C_3
REMARK    3  A    between atoms: C_6  and  C_7
REMARK    4  A    between atoms: C_8  and  C_9
REMARK    5  A    between atoms: C_10  and  C_11
REMARK    6  A    between atoms: N_23  and  C_24
REMARK                            x       y       z     vdW  Elec       q    Type
REMARK                         _______ _______ _______ _____ _____    ______ ____
ROOT
ATOM      1  C   UNL     1       4.427   5.107  18.124  0.00  0.00    +0.000 A 
ATOM      2  C   UNL     1       3.136   5.281  18.610  0.00  0.00    +0.000 A 
ATOM      3  C   UNL     1       2.392   4.098  18.475  0.00  0.00    +0.000 A 
ATOM      4  C   UNL     1       1.038   3.774  18.696  0.00  0.00    +0.000 A 
ATOM      5  C   UNL     1       0.662   2.435  18.745  0.00  0.00    +0.000 A 
ATOM      6  C   UNL     1       1.619   1.440  18.578  0.00  0.00    +0.000 A 
ATOM      7  C   UNL     1       2.949   1.751  18.248  0.00  0.00    +0.000 A 
ATOM      8  C   UNL     1       3.309   3.107  18.159  0.00  0.00    +0.000 A 
ATOM      9  N   UNL     1       4.481   3.757  17.781  0.00  0.00    +0.000 N 
ATOM     10  C   UNL     1       5.528   3.126  17.006  0.00  0.00    +0.000 C 
ENDROOT
BRANCH   1  14
ATOM     11  C   UNL     1       7.662   7.947  17.677  0.00  0.00    +0.000 A 
ATOM     12  C   UNL     1       6.457   8.156  17.005  0.00  0.00    +0.000 A 
ATOM     13  C   UNL     1       5.380   7.258  17.145  0.00  0.00    +0.000 A 
ATOM     14  C   UNL     1       5.485   6.138  17.977  0.00  0.00    +0.000 A 
ATOM     15  C   UNL     1       6.712   5.952  18.640  0.00  0.00    +0.000 A 
ATOM     16  C   UNL     1       7.795   6.822  18.477  0.00  0.00    +0.000 A 
BRANCH  11  18
ATOM     17  C   UNL     1       8.773   9.877  18.471  0.00  0.00    +0.000 C 
ATOM     18  O   UNL     1       8.647   8.874  17.465  0.00  0.00    +0.000 OA
ENDBRANCH  11  18
ENDBRANCH   1  14
BRANCH   2  19
ATOM     19  C   UNL     1       2.638   6.432  19.270  0.00  0.00    +0.000 C 
ATOM     20  C   UNL     1       2.137   7.386  19.780  0.00  0.00    +0.000 C 
BRANCH  20  21
ATOM     21  C   UNL     1       1.473   8.480  20.413  0.00  0.00    +0.000 A 
ATOM     22  C   UNL     1       1.011   9.570  19.685  0.00  0.00    +0.000 A 
ATOM     23  C   UNL     1       0.343  10.607  20.336  0.00  0.00    +0.000 A 
ATOM     24  C   UNL     1       0.142  10.551  21.719  0.00  0.00    +0.000 A 
ATOM     25  C   UNL     1       0.606   9.448  22.444  0.00  0.00    +0.000 A 
ATOM     26  C   UNL     1       1.272   8.415  21.797  0.00  0.00    +0.000 A 
ENDBRANCH  20  21
ENDBRANCH   2  19
TORSDOF 4
ENDMDL
MODEL 2
REMARK VINA RESULT:      -6.5      2.300      2.919
REMARK  Name = 
REMARK  6 active torsions:
REMARK  status: ('A' for Active; 'I' for Inactive)
REMARK    1  A    between atoms: C_1  and  O_2
REMARK    2  A    between atoms: O_2  and  C_3
REMARK    3  A    between atoms: C_6  and  C_7
REMARK    4  A    between atoms: C_8  and  C_9
REMARK    5  A    between atoms: C_10  and  C_11
REMARK    6  A    between atoms: N_23  and  C_24
REMARK                            x       y       z     vdW  Elec       q    Type
REMARK                         _______ _______ _______ _____ _____    ______ ____
ROOT
ATOM      1  C   UNL     1       4.055   3.979  18.441  0.00  0.00    +0.000 A 
ATOM      2  C   UNL     1       3.010   4.677  19.037  0.00  0.00    +0.000 A 
ATOM      3  C   UNL     1       2.318   3.857  19.943  0.00  0.00    +0.000 A 
ATOM      4  C   UNL     1       1.145   4.029  20.703  0.00  0.00    +0.000 A 
ATOM      5  C   UNL     1       0.868   3.134  21.732  0.00  0.00    +0.000 A 
ATOM      6  C   UNL     1       1.748   2.090  21.998  0.00  0.00    +0.000 A 
ATOM      7  C   UNL     1       2.863   1.845  21.177  0.00  0.00    +0.000 A 
ATOM      8  C   UNL     1       3.109   2.730  20.114  0.00  0.00    +0.000 A 
ATOM      9  N   UNL     1       4.043   2.741  19.081  0.00  0.00    +0.000 N 
ATOM     10  C   UNL     1       4.778   1.567  18.659  0.00  0.00    +0.000 C 
ENDROOT
BRANCH   1  14
ATOM     11  C   UNL     1       6.830   5.244  15.370  0.00  0.00    +0.000 A 
ATOM     12  C   UNL     1       5.601   4.689  15.009  0.00  0.00    +0.000 A 
ATOM     13  C   UNL     1       4.670   4.284  15.987  0.00  0.00    +0.000 A 
ATOM     14  C   UNL     1       4.947   4.443  17.349  0.00  0.00    +0.000 A 
ATOM     15  C   UNL     1       6.194   5.003  17.683  0.00  0.00    +0.000 A 
ATOM     16  C   UNL     1       7.135   5.374  16.717  0.00  0.00    +0.000 A 
BRANCH  11  18
ATOM     17  C   UNL     1       7.465   4.887  13.121  0.00  0.00    +0.000 C 
ATOM     18  O   UNL     1       7.665   5.594  14.344  0.00  0.00    +0.000 OA
ENDBRANCH  11  18
ENDBRANCH   1  14
BRANCH   2  19
ATOM     19  C   UNL     1       2.727   6.056  18.876  0.00  0.00    +0.000 C 
ATOM     20  C   UNL     1       2.411   7.203  18.795  0.00  0.00    +0.000 C 
BRANCH  20  21
ATOM     21  C   UNL     1       2.027   8.578  18.781  0.00  0.00    +0.000 A 
ATOM     22  C   UNL     1       2.427   9.435  17.761  0.00  0.00    +0.000 A 
ATOM     23  C   UNL     1       2.009  10.765  17.769  0.00  0.00    +0.000 A 
ATOM     24  C   UNL     1       1.193  11.237  18.801  0.00  0.00    +0.000 A 
ATOM     25  C   UNL     1       0.791  10.368  19.821  0.00  0.00    +0.000 A 
ATOM     26  C   UNL     1       1.207   9.042  19.815  0.00  0.00    +0.000 A 
ENDBRANCH  20  21
ENDBRANCH   2  19
TORSDOF 4
ENDMDL
MODEL 3
REMARK VINA RESULT:      -6.3      4.477      8.920
REMARK  Name = 
REMARK  6 active torsions:
REMARK  status: ('A' for Active; 'I' for Inactive)
REMARK    1  A    between atoms: C_1  and  O_2
REMARK    2  A    between atoms: O_2  and  C_3
REMARK    3  A    between atoms: C_6  and  C_7
REMARK    4  A    between atoms: C_8  and  C_9
REMARK    5  A    between atoms: C_10  and  C_11
REMARK    6  A    between atoms: N_23  and  C_24
REMARK                            x       y       z     vdW  Elec       q    Type
REMARK                         _______ _______ _______ _____ _____    ______ ____
ROOT
ATOM      1  C   UNL     1       0.569  13.685  21.061  0.00  0.00    +0.000 A 
ATOM      2  C   UNL     1       0.071  12.437  21.420  0.00  0.00    +0.000 A 
ATOM      3  C   UNL     1      -1.023  12.572  22.290  0.00  0.00    +0.000 A 
ATOM      4  C   UNL     1      -1.798  11.650  23.021  0.00  0.00    +0.000 A 
ATOM      5  C   UNL     1      -3.004  12.069  23.574  0.00  0.00    +0.000 A 
ATOM      6  C   UNL     1      -3.429  13.381  23.398  0.00  0.00    +0.000 A 
ATOM      7  C   UNL     1      -2.614  14.336  22.766  0.00  0.00    +0.000 A 
ATOM      8  C   UNL     1      -1.378  13.912  22.248  0.00  0.00    +0.000 A 
ATOM      9  N   UNL     1      -0.313  14.586  21.655  0.00  0.00    +0.000 N 
ATOM     10  C   UNL     1      -0.102  16.012  21.783  0.00  0.00    +0.000 C 
ENDROOT
BRANCH   1  14
ATOM     11  C   UNL     1       3.981  14.663  18.583  0.00  0.00    +0.000 A 
ATOM     12  C   UNL     1       4.104  14.681  19.974  0.00  0.00    +0.000 A 
ATOM     13  C   UNL     1       3.016  14.350  20.806  0.00  0.00    +0.000 A 
ATOM     14  C   UNL     1       1.783  13.978  20.258  0.00  0.00    +0.000 A 
ATOM     15  C   UNL     1       1.687  13.970  18.854  0.00  0.00    +0.000 A 
ATOM     16  C   UNL     1       2.755  14.331  18.025  0.00  0.00    +0.000 A 
BRANCH  11  18
ATOM     17  C   UNL     1       6.283  15.196  18.635  0.00  0.00    +0.000 C 
ATOM     18  O   UNL     1       5.095  15.010  17.868  0.00  0.00    +0.000 OA
ENDBRANCH  11  18
ENDBRANCH   1  14
BRANCH   2  19
ATOM     19  C   UNL     1       0.497  11.187  20.907  0.00  0.00    +0.000 C 
ATOM     20  C   UNL     1       0.892  10.182  20.401  0.00  0.00    +0.000 C 
BRANCH  20  21
ATOM     21  C   UNL     1       1.438   9.015  19.786  0.00  0.00    +0.000 A 
ATOM     22  C   UNL     1       1.663   7.849  20.510  0.00  0.00    +0.000 A 
ATOM     23  C   UNL     1       2.174   6.722  19.868  0.00  0.00    +0.000 A 
ATOM     24  C   UNL     1       2.462   6.765  18.500  0.00  0.00    +0.000 A 
ATOM     25  C   UNL     1       2.230   7.940  17.778  0.00  0.00    +0.000 A 
ATOM     26  C   UNL     1       1.721   9.065  18.417  0.00  0.00    +0.000 A 
ENDBRANCH  20  21
ENDBRANCH   2  19
TORSDOF 4
ENDMDL
MODEL 4
REMARK VINA RESULT:      -6.3      4.497      8.902
REMARK  Name = 
REMARK  6 active torsions:
REMARK  status: ('A' for Active; 'I' for Inactive)
REMARK    1  A    between atoms: C_1  and  O_2
REMARK    2  A    between atoms: O_2  and  C_3
REMARK    3  A    between atoms: C_6  and  C_7
REMARK    4  A    between atoms: C_8  and  C_9
REMARK    5  A    between atoms: C_10  and  C_11
REMARK    6  A    between atoms: N_23  and  C_24
REMARK                            x       y       z     vdW  Elec       q    Type
REMARK                         _______ _______ _______ _____ _____    ______ ____
ROOT
ATOM      1  C   UNL     1       0.375  13.829  20.916  0.00  0.00    +0.000 A 
ATOM      2  C   UNL     1      -0.036  12.558  21.303  0.00  0.00    +0.000 A 
ATOM      3  C   UNL     1      -1.084  12.638  22.234  0.00  0.00    +0.000 A 
ATOM      4  C   UNL     1      -1.767  11.679  23.008  0.00  0.00    +0.000 A 
ATOM      5  C   UNL     1      -2.960  12.036  23.630  0.00  0.00    +0.000 A 
ATOM      6  C   UNL     1      -3.462  13.324  23.479  0.00  0.00    +0.000 A 
ATOM      7  C   UNL     1      -2.735  14.318  22.801  0.00  0.00    +0.000 A 
ATOM      8  C   UNL     1      -1.511  13.957  22.213  0.00  0.00    +0.000 A 
ATOM      9  N   UNL     1      -0.518  14.684  21.560  0.00  0.00    +0.000 N 
ATOM     10  C   UNL     1      -0.374  16.120  21.677  0.00  0.00    +0.000 C 
ENDROOT
BRANCH   1  14
ATOM     11  C   UNL     1       3.856  14.745  18.514  0.00  0.00    +0.000 A 
ATOM     12  C   UNL     1       2.653  14.405  17.892  0.00  0.00    +0.000 A 
ATOM     13  C   UNL     1       1.498  14.119  18.648  0.00  0.00    +0.000 A 
ATOM     14  C   UNL     1       1.524  14.184  20.045  0.00  0.00    +0.000 A 
ATOM     15  C   UNL     1       2.750  14.526  20.644  0.00  0.00    +0.000 A 
ATOM     16  C   UNL     1       3.906  14.778  19.899  0.00  0.00    +0.000 A 
BRANCH  11  18
ATOM     17  C   UNL     1       6.169  14.459  18.119  0.00  0.00    +0.000 C 
ATOM     18  O   UNL     1       4.919  14.994  17.688  0.00  0.00    +0.000 OA
ENDBRANCH  11  18
ENDBRANCH   1  14
BRANCH   2  19
ATOM     19  C   UNL     1       0.425  11.331  20.766  0.00  0.00    +0.000 C 
ATOM     20  C   UNL     1       0.837  10.345  20.236  0.00  0.00    +0.000 C 
BRANCH  20  21
ATOM     21  C   UNL     1       1.402   9.207  19.585  0.00  0.00    +0.000 A 
ATOM     22  C   UNL     1       1.709   9.223  18.228  0.00  0.00    +0.000 A 
ATOM     23  C   UNL     1       2.284   8.100  17.635  0.00  0.00    +0.000 A 
ATOM     24  C   UNL     1       2.548   6.960  18.401  0.00  0.00    +0.000 A 
ATOM     25  C   UNL     1       2.241   6.954  19.766  0.00  0.00    +0.000 A 
ATOM     26  C   UNL     1       1.667   8.072  20.359  0.00  0.00    +0.000 A 
ENDBRANCH  20  21
ENDBRANCH   2  19
TORSDOF 4
ENDMDL
MODEL 5
REMARK VINA RESULT:      -6.3      5.928     10.672
REMARK  Name = 
REMARK  6 active torsions:
REMARK  status: ('A' for Active; 'I' for Inactive)
REMARK    1  A    between atoms: C_1  and  O_2
REMARK    2  A    between atoms: O_2  and  C_3
REMARK    3  A    between atoms: C_6  and  C_7
REMARK    4  A    between atoms: C_8  and  C_9
REMARK    5  A    between atoms: C_10  and  C_11
REMARK    6  A    between atoms: N_23  and  C_24
REMARK                            x       y       z     vdW  Elec       q    Type
REMARK                         _______ _______ _______ _____ _____    ______ ____
ROOT
ATOM      1  C   UNL     1       9.771  14.007  18.351  0.00  0.00    +0.000 A 
ATOM      2  C   UNL     1       8.919  15.105  18.381  0.00  0.00    +0.000 A 
ATOM      3  C   UNL     1       9.649  16.301  18.297  0.00  0.00    +0.000 A 
ATOM      4  C   UNL     1       9.294  17.662  18.399  0.00  0.00    +0.000 A 
ATOM      5  C   UNL     1      10.203  18.630  17.984  0.00  0.00    +0.000 A 
ATOM      6  C   UNL     1      11.440  18.247  17.475  0.00  0.00    +0.000 A 
ATOM      7  C   UNL     1      11.846  16.902  17.472  0.00  0.00    +0.000 A 
ATOM      8  C   UNL     1      10.936  15.936  17.933  0.00  0.00    +0.000 A 
ATOM      9  N   UNL     1      11.033  14.562  18.145  0.00  0.00    +0.000 N 
ATOM     10  C   UNL     1      12.293  13.863  18.277  0.00  0.00    +0.000 C 
ENDROOT
BRANCH   1  14
ATOM     11  C   UNL     1       8.772   9.807  18.663  0.00  0.00    +0.000 A 
ATOM     12  C   UNL     1       9.520  10.420  19.670  0.00  0.00    +0.000 A 
ATOM     13  C   UNL     1       9.845  11.789  19.605  0.00  0.00    +0.000 A 
ATOM     14  C   UNL     1       9.413  12.577  18.532  0.00  0.00    +0.000 A 
ATOM     15  C   UNL     1       8.663  11.933  17.531  0.00  0.00    +0.000 A 
ATOM     16  C   UNL     1       8.367  10.566  17.576  0.00  0.00    +0.000 A 
BRANCH  11  18
ATOM     17  C   UNL     1       7.790   7.856  17.758  0.00  0.00    +0.000 C 
ATOM     18  O   UNL     1       8.519   8.471  18.819  0.00  0.00    +0.000 OA
ENDBRANCH  11  18
ENDBRANCH   1  14
BRANCH   2  19
ATOM     19  C   UNL     1       7.502  15.065  18.371  0.00  0.00    +0.000 C 
ATOM     20  C   UNL     1       6.312  15.105  18.425  0.00  0.00    +0.000 C 
BRANCH  20  21
ATOM     21  C   UNL     1       4.891  15.234  18.473  0.00  0.00    +0.000 A 
ATOM     22  C   UNL     1       4.279  16.459  18.717  0.00  0.00    +0.000 A 
ATOM     23  C   UNL     1       2.888  16.549  18.729  0.00  0.00    +0.000 A 
ATOM     24  C   UNL     1       2.110  15.410  18.500  0.00  0.00    +0.000 A 
ATOM     25  C   UNL     1       2.732  14.182  18.251  0.00  0.00    +0.000 A 
ATOM     26  C   UNL     1       4.119  14.090  18.239  0.00  0.00    +0.000 A 
ENDBRANCH  20  21
ENDBRANCH   2  19
TORSDOF 4
ENDMDL
MODEL 6
REMARK VINA RESULT:      -6.3      7.938     10.839
REMARK  Name = 
REMARK  6 active torsions:
REMARK  status: ('A' for Active; 'I' for Inactive)
REMARK    1  A    between atoms: C_1  and  O_2
REMARK    2  A    between atoms: O_2  and  C_3
REMARK    3  A    between atoms: C_6  and  C_7
REMARK    4  A    between atoms: C_8  and  C_9
REMARK    5  A    between atoms: C_10  and  C_11
REMARK    6  A    between atoms: N_23  and  C_24
REMARK                            x       y       z     vdW  Elec       q    Type
REMARK                         _______ _______ _______ _____ _____    ______ ____
ROOT
ATOM      1  C   UNL     1      -4.588  11.802  19.186  0.00  0.00    +0.000 A 
ATOM      2  C   UNL     1      -3.889  12.576  20.106  0.00  0.00    +0.000 A 
ATOM      3  C   UNL     1      -4.741  13.023  21.128  0.00  0.00    +0.000 A 
ATOM      4  C   UNL     1      -4.573  13.906  22.213  0.00  0.00    +0.000 A 
ATOM      5  C   UNL     1      -5.529  13.925  23.224  0.00  0.00    +0.000 A 
ATOM      6  C   UNL     1      -6.629  13.077  23.154  0.00  0.00    +0.000 A 
ATOM      7  C   UNL     1      -6.863  12.272  22.026  0.00  0.00    +0.000 A 
ATOM      8  C   UNL     1      -5.913  12.293  20.991  0.00  0.00    +0.000 A 
ATOM      9  N   UNL     1      -5.868  11.706  19.728  0.00  0.00    +0.000 N 
ATOM     10  C   UNL     1      -7.040  11.207  19.040  0.00  0.00    +0.000 C 
ENDROOT
BRANCH   1  14
ATOM     11  C   UNL     1      -3.120  10.377  15.372  0.00  0.00    +0.000 A 
ATOM     12  C   UNL     1      -2.593   9.860  16.556  0.00  0.00    +0.000 A 
ATOM     13  C   UNL     1      -3.063  10.291  17.813  0.00  0.00    +0.000 A 
ATOM     14  C   UNL     1      -4.086  11.242  17.906  0.00  0.00    +0.000 A 
ATOM     15  C   UNL     1      -4.597  11.748  16.697  0.00  0.00    +0.000 A 
ATOM     16  C   UNL     1      -4.109  11.347  15.448  0.00  0.00    +0.000 A 
BRANCH  11  18
ATOM     17  C   UNL     1      -3.504   9.759  13.123  0.00  0.00    +0.000 C 
ATOM     18  O   UNL     1      -2.587   9.897  14.206  0.00  0.00    +0.000 OA
ENDBRANCH  11  18
ENDBRANCH   1  14
BRANCH   2  19
ATOM     19  C   UNL     1      -2.490  12.803  20.117  0.00  0.00    +0.000 C 
ATOM     20  C   UNL     1      -1.316  12.993  20.030  0.00  0.00    +0.000 C 
BRANCH  20  21
ATOM     21  C   UNL     1       0.073  13.285  19.875  0.00  0.00    +0.000 A 
ATOM     22  C   UNL     1       0.860  13.670  20.954  0.00  0.00    +0.000 A 
ATOM     23  C   UNL     1       2.219  13.921  20.766  0.00  0.00    +0.000 A 
ATOM     24  C   UNL     1       2.787  13.787  19.495  0.00  0.00    +0.000 A 
ATOM     25  C   UNL     1       1.989  13.395  18.416  0.00  0.00    +0.000 A 
ATOM     26  C   UNL     1       0.635  13.146  18.601  0.00  0.00    +0.000 A 
ENDBRANCH  20  21
ENDBRANCH   2  19
TORSDOF 4
ENDMDL
MODEL 7
REMARK VINA RESULT:      -6.2      8.291     10.644
REMARK  Name = 
REMARK  6 active torsions:
REMARK  status: ('A' for Active; 'I' for Inactive)
REMARK    1  A    between atoms: C_1  and  O_2
REMARK    2  A    between atoms: O_2  and  C_3
REMARK    3  A    between atoms: C_6  and  C_7
REMARK    4  A    between atoms: C_8  and  C_9
REMARK    5  A    between atoms: C_10  and  C_11
REMARK    6  A    between atoms: N_23  and  C_24
REMARK                            x       y       z     vdW  Elec       q    Type
REMARK                         _______ _______ _______ _____ _____    ______ ____
ROOT
ATOM      1  C   UNL     1      -3.402  12.604  20.079  0.00  0.00    +0.000 A 
ATOM      2  C   UNL     1      -2.291  12.269  19.312  0.00  0.00    +0.000 A 
ATOM      3  C   UNL     1      -2.673  11.521  18.187  0.00  0.00    +0.000 A 
ATOM      4  C   UNL     1      -1.951  10.853  17.178  0.00  0.00    +0.000 A 
ATOM      5  C   UNL     1      -2.620  10.438  16.030  0.00  0.00    +0.000 A 
ATOM      6  C   UNL     1      -3.980  10.689  15.892  0.00  0.00    +0.000 A 
ATOM      7  C   UNL     1      -4.731  11.256  16.936  0.00  0.00    +0.000 A 
ATOM      8  C   UNL     1      -4.053  11.632  18.108  0.00  0.00    +0.000 A 
ATOM      9  N   UNL     1      -4.482  12.127  19.338  0.00  0.00    +0.000 N 
ATOM     10  C   UNL     1      -5.845  12.011  19.812  0.00  0.00    +0.000 C 
ENDROOT
BRANCH   1  14
ATOM     11  C   UNL     1      -3.286  14.452  23.992  0.00  0.00    +0.000 A 
ATOM     12  C   UNL     1      -3.442  15.245  22.853  0.00  0.00    +0.000 A 
ATOM     13  C   UNL     1      -3.501  14.670  21.568  0.00  0.00    +0.000 A 
ATOM     14  C   UNL     1      -3.420  13.283  21.399  0.00  0.00    +0.000 A 
ATOM     15  C   UNL     1      -3.261  12.509  22.563  0.00  0.00    +0.000 A 
ATOM     16  C   UNL     1      -3.167  13.078  23.838  0.00  0.00    +0.000 A 
BRANCH  11  18
ATOM     17  C   UNL     1      -1.920  15.369  25.689  0.00  0.00    +0.000 C 
ATOM     18  O   UNL     1      -3.231  15.110  25.190  0.00  0.00    +0.000 OA
ENDBRANCH  11  18
ENDBRANCH   1  14
BRANCH   2  19
ATOM     19  C   UNL     1      -0.961  12.704  19.532  0.00  0.00    +0.000 C 
ATOM     20  C   UNL     1       0.160  13.101  19.627  0.00  0.00    +0.000 C 
BRANCH  20  21
ATOM     21  C   UNL     1       1.475  13.649  19.709  0.00  0.00    +0.000 A 
ATOM     22  C   UNL     1       2.121  13.810  20.930  0.00  0.00    +0.000 A 
ATOM     23  C   UNL     1       3.417  14.324  20.967  0.00  0.00    +0.000 A 
ATOM     24  C   UNL     1       4.063  14.680  19.779  0.00  0.00    +0.000 A 
ATOM     25  C   UNL     1       3.408  14.511  18.555  0.00  0.00    +0.000 A 
ATOM     26  C   UNL     1       2.117  14.000  18.516  0.00  0.00    +0.000 A 
ENDBRANCH  20  21
ENDBRANCH   2  19
TORSDOF 4
ENDMDL
MODEL 8
REMARK VINA RESULT:      -6.1      7.823     10.931
REMARK  Name = 
REMARK  6 active torsions:
REMARK  status: ('A' for Active; 'I' for Inactive)
REMARK    1  A    between atoms: C_1  and  O_2
REMARK    2  A    between atoms: O_2  and  C_3
REMARK    3  A    between atoms: C_6  and  C_7
REMARK    4  A    between atoms: C_8  and  C_9
REMARK    5  A    between atoms: C_10  and  C_11
REMARK    6  A    between atoms: N_23  and  C_24
REMARK                            x       y       z     vdW  Elec       q    Type
REMARK                         _______ _______ _______ _____ _____    ______ ____
ROOT
ATOM      1  C   UNL     1      -4.282  12.073  19.500  0.00  0.00    +0.000 A 
ATOM      2  C   UNL     1      -3.518  12.954  20.257  0.00  0.00    +0.000 A 
ATOM      3  C   UNL     1      -4.266  13.461  21.332  0.00  0.00    +0.000 A 
ATOM      4  C   UNL     1      -4.014  14.446  22.308  0.00  0.00    +0.000 A 
ATOM      5  C   UNL     1      -4.844  14.522  23.422  0.00  0.00    +0.000 A 
ATOM      6  C   UNL     1      -5.902  13.630  23.560  0.00  0.00    +0.000 A 
ATOM      7  C   UNL     1      -6.228  12.717  22.543  0.00  0.00    +0.000 A 
ATOM      8  C   UNL     1      -5.408  12.677  21.402  0.00  0.00    +0.000 A 
ATOM      9  N   UNL     1      -5.484  11.978  20.199  0.00  0.00    +0.000 N 
ATOM     10  C   UNL     1      -6.703  11.374  19.704  0.00  0.00    +0.000 C 
ENDROOT
BRANCH   1  14
ATOM     11  C   UNL     1      -3.202  10.359  15.675  0.00  0.00    +0.000 A 
ATOM     12  C   UNL     1      -2.528   9.959  16.831  0.00  0.00    +0.000 A 
ATOM     13  C   UNL     1      -2.870  10.486  18.092  0.00  0.00    +0.000 A 
ATOM     14  C   UNL     1      -3.907  11.417  18.222  0.00  0.00    +0.000 A 
ATOM     15  C   UNL     1      -4.567  11.803  17.041  0.00  0.00    +0.000 A 
ATOM     16  C   UNL     1      -4.208  11.307  15.783  0.00  0.00    +0.000 A 
BRANCH  11  18
ATOM     17  C   UNL     1      -3.699   9.902  13.410  0.00  0.00    +0.000 C 
ATOM     18  O   UNL     1      -2.786   9.793  14.500  0.00  0.00    +0.000 OA
ENDBRANCH  11  18
ENDBRANCH   1  14
BRANCH   2  19
ATOM     19  C   UNL     1      -2.141  13.233  20.078  0.00  0.00    +0.000 C 
ATOM     20  C   UNL     1      -0.988  13.426  19.842  0.00  0.00    +0.000 C 
BRANCH  20  21
ATOM     21  C   UNL     1       0.369  13.690  19.487  0.00  0.00    +0.000 A 
ATOM     22  C   UNL     1       1.079  12.841  18.644  0.00  0.00    +0.000 A 
ATOM     23  C   UNL     1       2.395  13.147  18.299  0.00  0.00    +0.000 A 
ATOM     24  C   UNL     1       3.000  14.303  18.802  0.00  0.00    +0.000 A 
ATOM     25  C   UNL     1       2.279  15.154  19.646  0.00  0.00    +0.000 A 
ATOM     26  C   UNL     1       0.967  14.850  19.991  0.00  0.00    +0.000 A 
ENDBRANCH  20  21
ENDBRANCH   2  19
TORSDOF 4
ENDMDL
MODEL 9
REMARK VINA RESULT:      -6.1      7.876     10.932
REMARK  Name = 
REMARK  6 active torsions:
REMARK  status: ('A' for Active; 'I' for Inactive)
REMARK    1  A    between atoms: C_1  and  O_2
REMARK    2  A    between atoms: O_2  and  C_3
REMARK    3  A    between atoms: C_6  and  C_7
REMARK    4  A    between atoms: C_8  and  C_9
REMARK    5  A    between atoms: C_10  and  C_11
REMARK    6  A    between atoms: N_23  and  C_24
REMARK                            x       y       z     vdW  Elec       q    Type
REMARK                         _______ _______ _______ _____ _____    ______ ____
ROOT
ATOM      1  C   UNL     1      -4.764  12.009  19.427  0.00  0.00    +0.000 A 
ATOM      2  C   UNL     1      -4.138  12.817  20.370  0.00  0.00    +0.000 A 
ATOM      3  C   UNL     1      -5.040  13.194  21.378  0.00  0.00    +0.000 A 
ATOM      4  C   UNL     1      -4.955  14.073  22.475  0.00  0.00    +0.000 A 
ATOM      5  C   UNL     1      -5.930  14.016  23.466  0.00  0.00    +0.000 A 
ATOM      6  C   UNL     1      -6.968  13.096  23.364  0.00  0.00    +0.000 A 
ATOM      7  C   UNL     1      -7.124  12.291  22.222  0.00  0.00    +0.000 A 
ATOM      8  C   UNL     1      -6.156  12.388  21.208  0.00  0.00    +0.000 A 
ATOM      9  N   UNL     1      -6.046  11.820  19.941  0.00  0.00    +0.000 N 
ATOM     10  C   UNL     1      -7.166  11.251  19.222  0.00  0.00    +0.000 C 
ENDROOT
BRANCH   1  14
ATOM     11  C   UNL     1      -3.107  10.319  15.803  0.00  0.00    +0.000 A 
ATOM     12  C   UNL     1      -4.147  11.248  15.725  0.00  0.00    +0.000 A 
ATOM     13  C   UNL     1      -4.694  11.828  16.886  0.00  0.00    +0.000 A 
ATOM     14  C   UNL     1      -4.198  11.499  18.153  0.00  0.00    +0.000 A 
ATOM     15  C   UNL     1      -3.151  10.560  18.202  0.00  0.00    +0.000 A 
ATOM     16  C   UNL     1      -2.628   9.957  17.054  0.00  0.00    +0.000 A 
BRANCH  11  18
ATOM     17  C   UNL     1      -3.554   9.925  13.516  0.00  0.00    +0.000 C 
ATOM     18  O   UNL     1      -2.654   9.810  14.617  0.00  0.00    +0.000 OA
ENDBRANCH  11  18
ENDBRANCH   1  14
BRANCH   2  19
ATOM     19  C   UNL     1      -2.758  13.138  20.413  0.00  0.00    +0.000 C 
ATOM     20  C   UNL     1      -1.581  13.318  20.477  0.00  0.00    +0.000 C 
BRANCH  20  21
ATOM     21  C   UNL     1      -0.162  13.466  20.506  0.00  0.00    +0.000 A 
ATOM     22  C   UNL     1       0.656  12.824  19.582  0.00  0.00    +0.000 A 
ATOM     23  C   UNL     1       2.036  13.014  19.628  0.00  0.00    +0.000 A 
ATOM     24  C   UNL     1       2.597  13.847  20.601  0.00  0.00    +0.000 A 
ATOM     25  C   UNL     1       1.768  14.493  21.524  0.00  0.00    +0.000 A 
ATOM     26  C   UNL     1       0.392  14.303  21.481  0.00  0.00    +0.000 A 
ENDBRANCH  20  21
ENDBRANCH   2  19
TORSDOF 4
ENDMDL
