MODEL 1
REMARK VINA RESULT:      -7.7      0.000      0.000
REMARK  Name = 
REMARK  6 active torsions:
REMARK  status: ('A' for Active; 'I' for Inactive)
REMARK    1  A    between atoms: C_1  and  C_2
REMARK    2  A    between atoms: C_2  and  N_3
REMARK    3  A    between atoms: N_3  and  C_4
REMARK    4  A    between atoms: N_3  and  C_5
REMARK    5  A    between atoms: C_7  and  C_8
REMARK    6  A    between atoms: C_13  and  O_14
REMARK                            x       y       z     vdW  Elec       q    Type
REMARK                         _______ _______ _______ _____ _____    ______ ____
ROOT
ATOM      1  C   UNL     1       6.121   5.604  17.665  0.00  0.00    +0.000 A 
ATOM      2  C   UNL     1       5.088   5.221  18.436  0.00  0.00    +0.000 A 
ATOM      3  C   UNL     1       4.044   4.346  17.815  0.00  0.00    +0.000 A 
ATOM      4  N   UNL     1       4.110   3.866  16.605  0.00  0.00    +0.000 NA
ATOM      5  C   UNL     1       5.195   4.218  15.857  0.00  0.00    +0.000 A 
ATOM      6  N   UNL     1       5.501   3.839  14.631  0.00  0.00    +0.000 NA
ATOM      7  C   UNL     1       6.698   4.432  14.337  0.00  0.00    +0.000 A 
ATOM      8  C   UNL     1       7.138   5.196  15.388  0.00  0.00    +0.000 A 
ATOM      9  N   UNL     1       6.175   5.074  16.364  0.00  0.00    +0.000 N 
ENDROOT
BRANCH   3  10
ATOM     10  C   UNL     1       2.878   3.974  18.678  0.00  0.00    +0.000 A 
ATOM     11  C   UNL     1       2.497   4.893  19.671  0.00  0.00    +0.000 A 
ATOM     12  C   UNL     1       1.403   4.632  20.500  0.00  0.00    +0.000 A 
ATOM     13  C   UNL     1       0.680   3.451  20.351  0.00  0.00    +0.000 A 
ATOM     14  C   UNL     1       1.060   2.519  19.386  0.00  0.00    +0.000 A 
ATOM     15  C   UNL     1       2.162   2.774  18.564  0.00  0.00    +0.000 A 
BRANCH  15  16
ATOM     16  O   UNL     1       2.542   1.808  17.671  0.00  0.00    +0.000 OA
ATOM     17  H   UNL     1       1.751   1.424  17.257  0.00  0.00    +0.000 HD
ENDBRANCH  15  16
ENDBRANCH   3  10
BRANCH   1  18
ATOM     18  N   UNL     1       7.131   6.469  18.115  0.00  0.00    +0.000 N 
ATOM     19  C   UNL     1       8.095   6.003  19.117  0.00  0.00    +0.000 C 
BRANCH  18  21
ATOM     20  C   UNL     1       8.308   8.670  18.214  0.00  0.00    +0.000 C 
ATOM     21  C   UNL     1       7.465   7.704  17.394  0.00  0.00    +0.000 C 
ENDBRANCH  18  21
ENDBRANCH   1  18
TORSDOF 4
ENDMDL
MODEL 2
REMARK VINA RESULT:      -7.6      3.265      5.009
REMARK  Name = 
REMARK  6 active torsions:
REMARK  status: ('A' for Active; 'I' for Inactive)
REMARK    1  A    between atoms: C_1  and  C_2
REMARK    2  A    between atoms: C_2  and  N_3
REMARK    3  A    between atoms: N_3  and  C_4
REMARK    4  A    between atoms: N_3  and  C_5
REMARK    5  A    between atoms: C_7  and  C_8
REMARK    6  A    between atoms: C_13  and  O_14
REMARK                            x       y       z     vdW  Elec       q    Type
REMARK                         _______ _______ _______ _____ _____    ______ ____
ROOT
ATOM      1  C   UNL     1       3.480   4.633  18.121  0.00  0.00    +0.000 A 
ATOM      2  C   UNL     1       2.707   5.540  18.744  0.00  0.00    +0.000 A 
ATOM      3  C   UNL     1       2.922   6.984  18.408  0.00  0.00    +0.000 A 
ATOM      4  N   UNL     1       3.749   7.412  17.496  0.00  0.00    +0.000 NA
ATOM      5  C   UNL     1       4.482   6.471  16.834  0.00  0.00    +0.000 A 
ATOM      6  N   UNL     1       5.352   6.652  15.858  0.00  0.00    +0.000 NA
ATOM      7  C   UNL     1       5.792   5.406  15.507  0.00  0.00    +0.000 A 
ATOM      8  C   UNL     1       5.198   4.440  16.278  0.00  0.00    +0.000 A 
ATOM      9  N   UNL     1       4.364   5.115  17.141  0.00  0.00    +0.000 N 
ENDROOT
BRANCH   3  10
ATOM     10  C   UNL     1       2.085   7.978  19.151  0.00  0.00    +0.000 A 
ATOM     11  C   UNL     1       1.734   7.660  20.475  0.00  0.00    +0.000 A 
ATOM     12  C   UNL     1       0.977   8.547  21.244  0.00  0.00    +0.000 A 
ATOM     13  C   UNL     1       0.559   9.760  20.701  0.00  0.00    +0.000 A 
ATOM     14  C   UNL     1       0.879  10.079  19.383  0.00  0.00    +0.000 A 
ATOM     15  C   UNL     1       1.626   9.187  18.608  0.00  0.00    +0.000 A 
BRANCH  15  16
ATOM     16  O   UNL     1       1.868   9.508  17.299  0.00  0.00    +0.000 OA
ATOM     17  H   UNL     1       2.805   9.744  17.194  0.00  0.00    +0.000 HD
ENDBRANCH  15  16
ENDBRANCH   3  10
BRANCH   1  18
ATOM     18  N   UNL     1       3.413   3.257  18.394  0.00  0.00    +0.000 N 
ATOM     19  C   UNL     1       4.196   2.697  19.499  0.00  0.00    +0.000 C 
BRANCH  18  21
ATOM     20  C   UNL     1       1.139   2.288  18.747  0.00  0.00    +0.000 C 
ATOM     21  C   UNL     1       2.351   2.411  17.835  0.00  0.00    +0.000 C 
ENDBRANCH  18  21
ENDBRANCH   1  18
TORSDOF 4
ENDMDL
MODEL 3
REMARK VINA RESULT:      -7.4      1.178      1.193
REMARK  Name = 
REMARK  6 active torsions:
REMARK  status: ('A' for Active; 'I' for Inactive)
REMARK    1  A    between atoms: C_1  and  C_2
REMARK    2  A    between atoms: C_2  and  N_3
REMARK    3  A    between atoms: N_3  and  C_4
REMARK    4  A    between atoms: N_3  and  C_5
REMARK    5  A    between atoms: C_7  and  C_8
REMARK    6  A    between atoms: C_13  and  O_14
REMARK                            x       y       z     vdW  Elec       q    Type
REMARK                         _______ _______ _______ _____ _____    ______ ____
ROOT
ATOM      1  C   UNL     1       6.217   5.561  17.931  0.00  0.00    +0.000 A 
ATOM      2  C   UNL     1       5.315   5.141  18.836  0.00  0.00    +0.000 A 
ATOM      3  C   UNL     1       4.292   4.144  18.385  0.00  0.00    +0.000 A 
ATOM      4  N   UNL     1       4.266   3.599  17.201  0.00  0.00    +0.000 NA
ATOM      5  C   UNL     1       5.225   3.995  16.316  0.00  0.00    +0.000 A 
ATOM      6  N   UNL     1       5.425   3.569  15.083  0.00  0.00    +0.000 NA
ATOM      7  C   UNL     1       6.524   4.241  14.623  0.00  0.00    +0.000 A 
ATOM      8  C   UNL     1       7.007   5.102  15.575  0.00  0.00    +0.000 A 
ATOM      9  N   UNL     1       6.174   4.960  16.661  0.00  0.00    +0.000 N 
ENDROOT
BRANCH   3  10
ATOM     10  C   UNL     1       3.268   3.729  19.395  0.00  0.00    +0.000 A 
ATOM     11  C   UNL     1       2.027   4.388  19.358  0.00  0.00    +0.000 A 
ATOM     12  C   UNL     1       1.009   4.041  20.250  0.00  0.00    +0.000 A 
ATOM     13  C   UNL     1       1.219   3.035  21.191  0.00  0.00    +0.000 A 
ATOM     14  C   UNL     1       2.452   2.388  21.255  0.00  0.00    +0.000 A 
ATOM     15  C   UNL     1       3.475   2.743  20.371  0.00  0.00    +0.000 A 
BRANCH  15  16
ATOM     16  O   UNL     1       4.692   2.129  20.505  0.00  0.00    +0.000 OA
ATOM     17  H   UNL     1       4.592   1.178  20.328  0.00  0.00    +0.000 HD
ENDBRANCH  15  16
ENDBRANCH   3  10
BRANCH   1  18
ATOM     18  N   UNL     1       7.188   6.534  18.216  0.00  0.00    +0.000 N 
ATOM     19  C   UNL     1       8.258   6.234  19.173  0.00  0.00    +0.000 C 
BRANCH  18  21
ATOM     20  C   UNL     1       8.197   8.810  18.018  0.00  0.00    +0.000 C 
ATOM     21  C   UNL     1       7.371   7.714  17.361  0.00  0.00    +0.000 C 
ENDBRANCH  18  21
ENDBRANCH   1  18
TORSDOF 4
ENDMDL
MODEL 4
REMARK VINA RESULT:      -7.4      2.782      6.339
REMARK  Name = 
REMARK  6 active torsions:
REMARK  status: ('A' for Active; 'I' for Inactive)
REMARK    1  A    between atoms: C_1  and  C_2
REMARK    2  A    between atoms: C_2  and  N_3
REMARK    3  A    between atoms: N_3  and  C_4
REMARK    4  A    between atoms: N_3  and  C_5
REMARK    5  A    between atoms: C_7  and  C_8
REMARK    6  A    between atoms: C_13  and  O_14
REMARK                            x       y       z     vdW  Elec       q    Type
REMARK                         _______ _______ _______ _____ _____    ______ ____
ROOT
ATOM      1  C   UNL     1       3.975   3.701  17.775  0.00  0.00    +0.000 A 
ATOM      2  C   UNL     1       4.724   3.538  16.670  0.00  0.00    +0.000 A 
ATOM      3  C   UNL     1       5.043   4.757  15.861  0.00  0.00    +0.000 A 
ATOM      4  N   UNL     1       4.712   5.972  16.198  0.00  0.00    +0.000 NA
ATOM      5  C   UNL     1       4.003   6.123  17.353  0.00  0.00    +0.000 A 
ATOM      6  N   UNL     1       3.586   7.242  17.915  0.00  0.00    +0.000 NA
ATOM      7  C   UNL     1       2.954   6.873  19.071  0.00  0.00    +0.000 A 
ATOM      8  C   UNL     1       2.970   5.510  19.225  0.00  0.00    +0.000 A 
ATOM      9  N   UNL     1       3.630   5.019  18.122  0.00  0.00    +0.000 N 
ENDROOT
BRANCH   3  10
ATOM     10  C   UNL     1       5.835   4.544  14.608  0.00  0.00    +0.000 A 
ATOM     11  C   UNL     1       5.272   3.707  13.628  0.00  0.00    +0.000 A 
ATOM     12  C   UNL     1       5.936   3.478  12.421  0.00  0.00    +0.000 A 
ATOM     13  C   UNL     1       7.170   4.078  12.178  0.00  0.00    +0.000 A 
ATOM     14  C   UNL     1       7.751   4.891  13.149  0.00  0.00    +0.000 A 
ATOM     15  C   UNL     1       7.093   5.111  14.363  0.00  0.00    +0.000 A 
BRANCH  15  16
ATOM     16  O   UNL     1       7.724   5.866  15.316  0.00  0.00    +0.000 OA
ATOM     17  H   UNL     1       8.205   6.592  14.884  0.00  0.00    +0.000 HD
ENDBRANCH  15  16
ENDBRANCH   3  10
BRANCH   1  18
ATOM     18  N   UNL     1       3.562   2.630  18.583  0.00  0.00    +0.000 N 
ATOM     19  C   UNL     1       4.216   2.399  19.874  0.00  0.00    +0.000 C 
BRANCH  18  21
ATOM     20  C   UNL     1       1.160   2.422  19.234  0.00  0.00    +0.000 C 
ATOM     21  C   UNL     1       2.293   1.931  18.345  0.00  0.00    +0.000 C 
ENDBRANCH  18  21
ENDBRANCH   1  18
TORSDOF 4
ENDMDL
MODEL 5
REMARK VINA RESULT:      -7.3      3.485      4.943
REMARK  Name = 
REMARK  6 active torsions:
REMARK  status: ('A' for Active; 'I' for Inactive)
REMARK    1  A    between atoms: C_1  and  C_2
REMARK    2  A    between atoms: C_2  and  N_3
REMARK    3  A    between atoms: N_3  and  C_4
REMARK    4  A    between atoms: N_3  and  C_5
REMARK    5  A    between atoms: C_7  and  C_8
REMARK    6  A    between atoms: C_13  and  O_14
REMARK                            x       y       z     vdW  Elec       q    Type
REMARK                         _______ _______ _______ _____ _____    ______ ____
ROOT
ATOM      1  C   UNL     1       4.489   5.027  18.237  0.00  0.00    +0.000 A 
ATOM      2  C   UNL     1       3.907   6.240  18.257  0.00  0.00    +0.000 A 
ATOM      3  C   UNL     1       2.759   6.444  19.197  0.00  0.00    +0.000 A 
ATOM      4  N   UNL     1       2.339   5.553  20.051  0.00  0.00    +0.000 NA
ATOM      5  C   UNL     1       2.980   4.349  20.055  0.00  0.00    +0.000 A 
ATOM      6  N   UNL     1       2.762   3.311  20.841  0.00  0.00    +0.000 NA
ATOM      7  C   UNL     1       3.680   2.363  20.480  0.00  0.00    +0.000 A 
ATOM      8  C   UNL     1       4.472   2.812  19.453  0.00  0.00    +0.000 A 
ATOM      9  N   UNL     1       4.022   4.081  19.166  0.00  0.00    +0.000 N 
ENDROOT
BRANCH   3  10
ATOM     10  C   UNL     1       2.096   7.786  19.166  0.00  0.00    +0.000 A 
ATOM     11  C   UNL     1       2.045   8.447  17.926  0.00  0.00    +0.000 A 
ATOM     12  C   UNL     1       1.420   9.691  17.808  0.00  0.00    +0.000 A 
ATOM     13  C   UNL     1       0.842  10.291  18.924  0.00  0.00    +0.000 A 
ATOM     14  C   UNL     1       0.905   9.658  20.165  0.00  0.00    +0.000 A 
ATOM     15  C   UNL     1       1.541   8.419  20.287  0.00  0.00    +0.000 A 
BRANCH  15  16
ATOM     16  O   UNL     1       1.636   7.858  21.532  0.00  0.00    +0.000 OA
ATOM     17  H   UNL     1       2.040   6.977  21.457  0.00  0.00    +0.000 HD
ENDBRANCH  15  16
ENDBRANCH   3  10
BRANCH   1  18
ATOM     18  N   UNL     1       5.534   4.696  17.360  0.00  0.00    +0.000 N 
ATOM     19  C   UNL     1       5.262   4.555  15.926  0.00  0.00    +0.000 C 
BRANCH  18  21
ATOM     20  C   UNL     1       7.439   6.242  17.829  0.00  0.00    +0.000 C 
ATOM     21  C   UNL     1       6.942   4.804  17.763  0.00  0.00    +0.000 C 
ENDBRANCH  18  21
ENDBRANCH   1  18
TORSDOF 4
ENDMDL
MODEL 6
REMARK VINA RESULT:      -7.3      2.544      6.211
REMARK  Name = 
REMARK  6 active torsions:
REMARK  status: ('A' for Active; 'I' for Inactive)
REMARK    1  A    between atoms: C_1  and  C_2
REMARK    2  A    between atoms: C_2  and  N_3
REMARK    3  A    between atoms: N_3  and  C_4
REMARK    4  A    between atoms: N_3  and  C_5
REMARK    5  A    between atoms: C_7  and  C_8
REMARK    6  A    between atoms: C_13  and  O_14
REMARK                            x       y       z     vdW  Elec       q    Type
REMARK                         _______ _______ _______ _____ _____    ______ ____
ROOT
ATOM      1  C   UNL     1       4.840   5.319  17.322  0.00  0.00    +0.000 A 
ATOM      2  C   UNL     1       5.003   4.999  16.026  0.00  0.00    +0.000 A 
ATOM      3  C   UNL     1       6.398   4.739  15.545  0.00  0.00    +0.000 A 
ATOM      4  N   UNL     1       7.451   4.723  16.313  0.00  0.00    +0.000 NA
ATOM      5  C   UNL     1       7.256   4.993  17.636  0.00  0.00    +0.000 A 
ATOM      6  N   UNL     1       8.150   5.004  18.607  0.00  0.00    +0.000 NA
ATOM      7  C   UNL     1       7.461   5.295  19.753  0.00  0.00    +0.000 A 
ATOM      8  C   UNL     1       6.126   5.475  19.491  0.00  0.00    +0.000 A 
ATOM      9  N   UNL     1       5.987   5.295  18.134  0.00  0.00    +0.000 N 
ENDROOT
BRANCH   3  10
ATOM     10  C   UNL     1       6.560   4.433  14.088  0.00  0.00    +0.000 A 
ATOM     11  C   UNL     1       5.656   3.519  13.520  0.00  0.00    +0.000 A 
ATOM     12  C   UNL     1       5.724   3.201  12.162  0.00  0.00    +0.000 A 
ATOM     13  C   UNL     1       6.697   3.788  11.355  0.00  0.00    +0.000 A 
ATOM     14  C   UNL     1       7.615   4.679  11.909  0.00  0.00    +0.000 A 
ATOM     15  C   UNL     1       7.555   4.989  13.271  0.00  0.00    +0.000 A 
BRANCH  15  16
ATOM     16  O   UNL     1       8.511   5.820  13.790  0.00  0.00    +0.000 OA
ATOM     17  H   UNL     1       8.099   6.662  14.048  0.00  0.00    +0.000 HD
ENDBRANCH  15  16
ENDBRANCH   3  10
BRANCH   1  18
ATOM     18  N   UNL     1       3.591   5.641  17.877  0.00  0.00    +0.000 N 
ATOM     19  C   UNL     1       3.149   7.039  17.908  0.00  0.00    +0.000 C 
BRANCH  18  21
ATOM     20  C   UNL     1       1.848   4.800  19.456  0.00  0.00    +0.000 C 
ATOM     21  C   UNL     1       2.572   4.615  18.130  0.00  0.00    +0.000 C 
ENDBRANCH  18  21
ENDBRANCH   1  18
TORSDOF 4
ENDMDL
MODEL 7
REMARK VINA RESULT:      -7.3      3.148      4.610
REMARK  Name = 
REMARK  6 active torsions:
REMARK  status: ('A' for Active; 'I' for Inactive)
REMARK    1  A    between atoms: C_1  and  C_2
REMARK    2  A    between atoms: C_2  and  N_3
REMARK    3  A    between atoms: N_3  and  C_4
REMARK    4  A    between atoms: N_3  and  C_5
REMARK    5  A    between atoms: C_7  and  C_8
REMARK    6  A    between atoms: C_13  and  O_14
REMARK                            x       y       z     vdW  Elec       q    Type
REMARK                         _______ _______ _______ _____ _____    ______ ____
ROOT
ATOM      1  C   UNL     1       4.497   5.274  17.204  0.00  0.00    +0.000 A 
ATOM      2  C   UNL     1       3.981   6.445  17.619  0.00  0.00    +0.000 A 
ATOM      3  C   UNL     1       2.694   6.404  18.384  0.00  0.00    +0.000 A 
ATOM      4  N   UNL     1       2.084   5.309  18.742  0.00  0.00    +0.000 NA
ATOM      5  C   UNL     1       2.655   4.130  18.362  0.00  0.00    +0.000 A 
ATOM      6  N   UNL     1       2.250   2.903  18.629  0.00  0.00    +0.000 NA
ATOM      7  C   UNL     1       3.171   2.067  18.060  0.00  0.00    +0.000 A 
ATOM      8  C   UNL     1       4.154   2.780  17.424  0.00  0.00    +0.000 A 
ATOM      9  N   UNL     1       3.826   4.105  17.602  0.00  0.00    +0.000 N 
ENDROOT
BRANCH   3  10
ATOM     10  C   UNL     1       2.113   7.723  18.791  0.00  0.00    +0.000 A 
ATOM     11  C   UNL     1       2.035   8.721  17.805  0.00  0.00    +0.000 A 
ATOM     12  C   UNL     1       1.482   9.970  18.099  0.00  0.00    +0.000 A 
ATOM     13  C   UNL     1       1.003  10.238  19.379  0.00  0.00    +0.000 A 
ATOM     14  C   UNL     1       1.094   9.266  20.373  0.00  0.00    +0.000 A 
ATOM     15  C   UNL     1       1.659   8.020  20.084  0.00  0.00    +0.000 A 
BRANCH  15  16
ATOM     16  O   UNL     1       1.787   7.113  21.102  0.00  0.00    +0.000 OA
ATOM     17  H   UNL     1       2.456   7.430  21.732  0.00  0.00    +0.000 HD
ENDBRANCH  15  16
ENDBRANCH   3  10
BRANCH   1  18
ATOM     18  N   UNL     1       5.666   5.186  16.430  0.00  0.00    +0.000 N 
ATOM     19  C   UNL     1       6.926   4.785  17.062  0.00  0.00    +0.000 C 
BRANCH  18  21
ATOM     20  C   UNL     1       6.263   3.920  14.362  0.00  0.00    +0.000 C 
ATOM     21  C   UNL     1       5.617   5.160  14.963  0.00  0.00    +0.000 C 
ENDBRANCH  18  21
ENDBRANCH   1  18
TORSDOF 4
ENDMDL
MODEL 8
REMARK VINA RESULT:      -7.3      3.466      5.049
REMARK  Name = 
REMARK  6 active torsions:
REMARK  status: ('A' for Active; 'I' for Inactive)
REMARK    1  A    between atoms: C_1  and  C_2
REMARK    2  A    between atoms: C_2  and  N_3
REMARK    3  A    between atoms: N_3  and  C_4
REMARK    4  A    between atoms: N_3  and  C_5
REMARK    5  A    between atoms: C_7  and  C_8
REMARK    6  A    between atoms: C_13  and  O_14
REMARK                            x       y       z     vdW  Elec       q    Type
REMARK                         _______ _______ _______ _____ _____    ______ ____
ROOT
ATOM      1  C   UNL     1       4.486   5.033  18.184  0.00  0.00    +0.000 A 
ATOM      2  C   UNL     1       3.908   6.247  18.215  0.00  0.00    +0.000 A 
ATOM      3  C   UNL     1       2.774   6.453  19.171  0.00  0.00    +0.000 A 
ATOM      4  N   UNL     1       2.363   5.561  20.028  0.00  0.00    +0.000 NA
ATOM      5  C   UNL     1       3.000   4.355  20.021  0.00  0.00    +0.000 A 
ATOM      6  N   UNL     1       2.789   3.316  20.807  0.00  0.00    +0.000 NA
ATOM      7  C   UNL     1       3.699   2.366  20.431  0.00  0.00    +0.000 A 
ATOM      8  C   UNL     1       4.477   2.815  19.394  0.00  0.00    +0.000 A 
ATOM      9  N   UNL     1       4.028   4.086  19.117  0.00  0.00    +0.000 N 
ENDROOT
BRANCH   3  10
ATOM     10  C   UNL     1       2.115   7.797  19.152  0.00  0.00    +0.000 A 
ATOM     11  C   UNL     1       2.088   8.481  17.924  0.00  0.00    +0.000 A 
ATOM     12  C   UNL     1       1.469   9.728  17.817  0.00  0.00    +0.000 A 
ATOM     13  C   UNL     1       0.872  10.310  18.934  0.00  0.00    +0.000 A 
ATOM     14  C   UNL     1       0.912   9.655  20.163  0.00  0.00    +0.000 A 
ATOM     15  C   UNL     1       1.542   8.412  20.274  0.00  0.00    +0.000 A 
BRANCH  15  16
ATOM     16  O   UNL     1       1.614   7.828  21.511  0.00  0.00    +0.000 OA
ATOM     17  H   UNL     1       0.910   8.188  22.077  0.00  0.00    +0.000 HD
ENDBRANCH  15  16
ENDBRANCH   3  10
BRANCH   1  18
ATOM     18  N   UNL     1       5.517   4.700  17.291  0.00  0.00    +0.000 N 
ATOM     19  C   UNL     1       6.912   4.759  17.739  0.00  0.00    +0.000 C 
BRANCH  18  21
ATOM     20  C   UNL     1       6.302   4.236  14.966  0.00  0.00    +0.000 C 
ATOM     21  C   UNL     1       5.250   3.984  16.037  0.00  0.00    +0.000 C 
ENDBRANCH  18  21
ENDBRANCH   1  18
TORSDOF 4
ENDMDL
MODEL 9
REMARK VINA RESULT:      -7.2      3.227      4.454
REMARK  Name = 
REMARK  6 active torsions:
REMARK  status: ('A' for Active; 'I' for Inactive)
REMARK    1  A    between atoms: C_1  and  C_2
REMARK    2  A    between atoms: C_2  and  N_3
REMARK    3  A    between atoms: N_3  and  C_4
REMARK    4  A    between atoms: N_3  and  C_5
REMARK    5  A    between atoms: C_7  and  C_8
REMARK    6  A    between atoms: C_13  and  O_14
REMARK                            x       y       z     vdW  Elec       q    Type
REMARK                         _______ _______ _______ _____ _____    ______ ____
ROOT
ATOM      1  C   UNL     1       4.609   5.583  17.192  0.00  0.00    +0.000 A 
ATOM      2  C   UNL     1       4.038   6.721  17.625  0.00  0.00    +0.000 A 
ATOM      3  C   UNL     1       2.754   6.606  18.388  0.00  0.00    +0.000 A 
ATOM      4  N   UNL     1       2.197   5.478  18.728  0.00  0.00    +0.000 NA
ATOM      5  C   UNL     1       2.823   4.334  18.328  0.00  0.00    +0.000 A 
ATOM      6  N   UNL     1       2.476   3.084  18.575  0.00  0.00    +0.000 NA
ATOM      7  C   UNL     1       3.436   2.302  17.993  0.00  0.00    +0.000 A 
ATOM      8  C   UNL     1       4.385   3.072  17.369  0.00  0.00    +0.000 A 
ATOM      9  N   UNL     1       3.994   4.377  17.570  0.00  0.00    +0.000 N 
ENDROOT
BRANCH   3  10
ATOM     10  C   UNL     1       2.110   7.888  18.817  0.00  0.00    +0.000 A 
ATOM     11  C   UNL     1       1.987   8.899  17.848  0.00  0.00    +0.000 A 
ATOM     12  C   UNL     1       1.375  10.115  18.162  0.00  0.00    +0.000 A 
ATOM     13  C   UNL     1       0.882  10.338  19.446  0.00  0.00    +0.000 A 
ATOM     14  C   UNL     1       1.018   9.354  20.423  0.00  0.00    +0.000 A 
ATOM     15  C   UNL     1       1.641   8.142  20.114  0.00  0.00    +0.000 A 
BRANCH  15  16
ATOM     16  O   UNL     1       1.810   7.224  21.116  0.00  0.00    +0.000 OA
ATOM     17  H   UNL     1       1.656   6.331  20.764  0.00  0.00    +0.000 HD
ENDBRANCH  15  16
ENDBRANCH   3  10
BRANCH   1  18
ATOM     18  N   UNL     1       5.781   5.564  16.418  0.00  0.00    +0.000 N 
ATOM     19  C   UNL     1       5.691   5.363  14.969  0.00  0.00    +0.000 C 
BRANCH  18  21
ATOM     20  C   UNL     1       7.510   5.337  18.206  0.00  0.00    +0.000 C 
ATOM     21  C   UNL     1       7.059   6.059  16.944  0.00  0.00    +0.000 C 
ENDBRANCH  18  21
ENDBRANCH   1  18
TORSDOF 4
ENDMDL
