MODEL 1
REMARK VINA RESULT:      -7.9      0.000      0.000
REMARK  Name = 
REMARK  3 active torsions:
REMARK  status: ('A' for Active; 'I' for Inactive)
REMARK    1  A    between atoms: C_5  and  C_6
REMARK    2  A    between atoms: N_10  and  C_11
REMARK    3  A    between atoms: C_11  and  C_12
REMARK                            x       y       z     vdW  Elec       q    Type
REMARK                         _______ _______ _______ _____ _____    ______ ____
ROOT
ATOM      1  C   UNL     1       5.554   4.430  17.884  0.00  0.00    +0.000 A 
ATOM      2  N   UNL     1       6.543   4.226  18.742  0.00  0.00    +0.000 NA
ATOM      3  N   UNL     1       7.641   4.888  18.272  0.00  0.00    +0.000 NA
ATOM      4  N   UNL     1       7.373   5.485  17.128  0.00  0.00    +0.000 NA
ATOM      5  N   UNL     1       6.089   5.180  16.855  0.00  0.00    +0.000 N 
ENDROOT
BRANCH   1  10
ATOM      6  F   UNL     1       0.489   2.094  18.658  0.00  0.00    +0.000 F 
ATOM      7  C   UNL     1       1.670   2.700  18.466  0.00  0.00    +0.000 A 
ATOM      8  C   UNL     1       2.547   2.151  17.544  0.00  0.00    +0.000 A 
ATOM      9  C   UNL     1       3.802   2.731  17.351  0.00  0.00    +0.000 A 
ATOM     10  C   UNL     1       4.189   3.893  18.042  0.00  0.00    +0.000 A 
ATOM     11  C   UNL     1       3.260   4.458  18.958  0.00  0.00    +0.000 A 
ATOM     12 CL   UNL     1       3.624   5.940  19.802  0.00  0.00    +0.000 Cl
ATOM     13  C   UNL     1       2.010   3.846  19.180  0.00  0.00    +0.000 A 
ATOM     14 CL   UNL     1       0.861   4.452  20.327  0.00  0.00    +0.000 Cl
ENDBRANCH   1  10
BRANCH   5  15
ATOM     15  C   UNL     1       5.510   5.689  15.625  0.00  0.00    +0.000 C 
BRANCH  15  16
ATOM     16  C   UNL     1       5.982   4.958  14.390  0.00  0.00    +0.000 A 
ATOM     17  C   UNL     1       5.269   3.923  13.773  0.00  0.00    +0.000 A 
ATOM     18  C   UNL     1       5.763   3.325  12.614  0.00  0.00    +0.000 A 
ATOM     19  C   UNL     1       6.975   3.771  12.115  0.00  0.00    +0.000 A 
ATOM     20  N   UNL     1       7.710   4.739  12.698  0.00  0.00    +0.000 NA
ATOM     21  C   UNL     1       7.211   5.292  13.826  0.00  0.00    +0.000 A 
ENDBRANCH  15  16
ENDBRANCH   5  15
TORSDOF 3
ENDMDL
MODEL 2
REMARK VINA RESULT:      -7.8      1.798      2.087
REMARK  Name = 
REMARK  3 active torsions:
REMARK  status: ('A' for Active; 'I' for Inactive)
REMARK    1  A    between atoms: C_5  and  C_6
REMARK    2  A    between atoms: N_10  and  C_11
REMARK    3  A    between atoms: C_11  and  C_12
REMARK                            x       y       z     vdW  Elec       q    Type
REMARK                         _______ _______ _______ _____ _____    ______ ____
ROOT
ATOM      1  C   UNL     1       5.800   4.688  18.534  0.00  0.00    +0.000 A 
ATOM      2  N   UNL     1       6.942   4.794  19.196  0.00  0.00    +0.000 NA
ATOM      3  N   UNL     1       7.959   4.644  18.298  0.00  0.00    +0.000 NA
ATOM      4  N   UNL     1       7.484   4.425  17.087  0.00  0.00    +0.000 NA
ATOM      5  N   UNL     1       6.143   4.413  17.224  0.00  0.00    +0.000 N 
ENDROOT
BRANCH   1  10
ATOM      6  F   UNL     1       0.561   5.175  20.538  0.00  0.00    +0.000 F 
ATOM      7  C   UNL     1       1.824   5.037  20.110  0.00  0.00    +0.000 A 
ATOM      8  C   UNL     1       2.459   6.143  19.568  0.00  0.00    +0.000 A 
ATOM      9  C   UNL     1       3.759   6.022  19.074  0.00  0.00    +0.000 A 
ATOM     10  C   UNL     1       4.464   4.808  19.147  0.00  0.00    +0.000 A 
ATOM     11  C   UNL     1       3.804   3.694  19.737  0.00  0.00    +0.000 A 
ATOM     12 CL   UNL     1       4.628   2.171  19.940  0.00  0.00    +0.000 Cl
ATOM     13  C   UNL     1       2.478   3.810  20.199  0.00  0.00    +0.000 A 
ATOM     14 CL   UNL     1       1.601   2.475  20.871  0.00  0.00    +0.000 Cl
ENDBRANCH   1  10
BRANCH   5  15
ATOM     15  C   UNL     1       5.337   4.169  16.042  0.00  0.00    +0.000 C 
BRANCH  15  16
ATOM     16  C   UNL     1       6.098   4.341  14.748  0.00  0.00    +0.000 A 
ATOM     17  C   UNL     1       5.859   3.586  13.593  0.00  0.00    +0.000 A 
ATOM     18  C   UNL     1       6.587   3.835  12.430  0.00  0.00    +0.000 A 
ATOM     19  C   UNL     1       7.553   4.827  12.464  0.00  0.00    +0.000 A 
ATOM     20  N   UNL     1       7.839   5.551  13.565  0.00  0.00    +0.000 NA
ATOM     21  C   UNL     1       7.124   5.279  14.680  0.00  0.00    +0.000 A 
ENDBRANCH  15  16
ENDBRANCH   5  15
TORSDOF 3
ENDMDL
MODEL 3
REMARK VINA RESULT:      -7.7      3.199      4.019
REMARK  Name = 
REMARK  3 active torsions:
REMARK  status: ('A' for Active; 'I' for Inactive)
REMARK    1  A    between atoms: C_5  and  C_6
REMARK    2  A    between atoms: N_10  and  C_11
REMARK    3  A    between atoms: C_11  and  C_12
REMARK                            x       y       z     vdW  Elec       q    Type
REMARK                         _______ _______ _______ _____ _____    ______ ____
ROOT
ATOM      1  C   UNL     1       2.816   4.337  18.300  0.00  0.00    +0.000 A 
ATOM      2  N   UNL     1       1.840   3.459  18.125  0.00  0.00    +0.000 NA
ATOM      3  N   UNL     1       2.413   2.239  17.910  0.00  0.00    +0.000 NA
ATOM      4  N   UNL     1       3.728   2.332  17.925  0.00  0.00    +0.000 NA
ATOM      5  N   UNL     1       3.994   3.637  18.130  0.00  0.00    +0.000 N 
ENDROOT
BRANCH   1  10
ATOM      6  F   UNL     1       1.734   9.800  19.135  0.00  0.00    +0.000 F 
ATOM      7  C   UNL     1       2.022   8.499  18.983  0.00  0.00    +0.000 A 
ATOM      8  C   UNL     1       2.523   8.075  17.763  0.00  0.00    +0.000 A 
ATOM      9  C   UNL     1       2.793   6.722  17.557  0.00  0.00    +0.000 A 
ATOM     10  C   UNL     1       2.609   5.771  18.577  0.00  0.00    +0.000 A 
ATOM     11  C   UNL     1       2.125   6.233  19.832  0.00  0.00    +0.000 A 
ATOM     12 CL   UNL     1       1.939   5.139  21.176  0.00  0.00    +0.000 Cl
ATOM     13  C   UNL     1       1.816   7.595  20.022  0.00  0.00    +0.000 A 
ATOM     14 CL   UNL     1       1.167   8.208  21.508  0.00  0.00    +0.000 Cl
ENDBRANCH   1  10
BRANCH   5  15
ATOM     15  C   UNL     1       5.384   4.054  18.174  0.00  0.00    +0.000 C 
BRANCH  15  16
ATOM     16  C   UNL     1       5.967   4.351  16.812  0.00  0.00    +0.000 A 
ATOM     17  C   UNL     1       5.584   3.693  15.637  0.00  0.00    +0.000 A 
ATOM     18  C   UNL     1       6.151   4.055  14.415  0.00  0.00    +0.000 A 
ATOM     19  C   UNL     1       7.105   5.058  14.409  0.00  0.00    +0.000 A 
ATOM     20  N   UNL     1       7.527   5.692  15.522  0.00  0.00    +0.000 NA
ATOM     21  C   UNL     1       6.967   5.311  16.693  0.00  0.00    +0.000 A 
ENDBRANCH  15  16
ENDBRANCH   5  15
TORSDOF 3
ENDMDL
MODEL 4
REMARK VINA RESULT:      -7.6      1.514      1.928
REMARK  Name = 
REMARK  3 active torsions:
REMARK  status: ('A' for Active; 'I' for Inactive)
REMARK    1  A    between atoms: C_5  and  C_6
REMARK    2  A    between atoms: N_10  and  C_11
REMARK    3  A    between atoms: C_11  and  C_12
REMARK                            x       y       z     vdW  Elec       q    Type
REMARK                         _______ _______ _______ _____ _____    ______ ____
ROOT
ATOM      1  C   UNL     1       5.723   4.574  18.126  0.00  0.00    +0.000 A 
ATOM      2  N   UNL     1       6.864   4.343  18.758  0.00  0.00    +0.000 NA
ATOM      3  N   UNL     1       7.878   4.509  17.859  0.00  0.00    +0.000 NA
ATOM      4  N   UNL     1       7.401   4.818  16.669  0.00  0.00    +0.000 NA
ATOM      5  N   UNL     1       6.060   4.826  16.810  0.00  0.00    +0.000 N 
ENDROOT
BRANCH   1  10
ATOM      6  F   UNL     1       0.534   4.610  20.311  0.00  0.00    +0.000 F 
ATOM      7  C   UNL     1       1.777   4.550  19.811  0.00  0.00    +0.000 A 
ATOM      8  C   UNL     1       2.648   5.591  20.089  0.00  0.00    +0.000 A 
ATOM      9  C   UNL     1       3.935   5.580  19.549  0.00  0.00    +0.000 A 
ATOM     10  C   UNL     1       4.392   4.512  18.757  0.00  0.00    +0.000 A 
ATOM     11  C   UNL     1       3.492   3.438  18.512  0.00  0.00    +0.000 A 
ATOM     12 CL   UNL     1       3.997   2.038  17.605  0.00  0.00    +0.000 Cl
ATOM     13  C   UNL     1       2.180   3.472  19.026  0.00  0.00    +0.000 A 
ATOM     14 CL   UNL     1       1.019   2.224  18.712  0.00  0.00    +0.000 Cl
ENDBRANCH   1  10
BRANCH   5  15
ATOM     15  C   UNL     1       5.251   5.119  15.641  0.00  0.00    +0.000 C 
BRANCH  15  16
ATOM     16  C   UNL     1       5.873   4.652  14.346  0.00  0.00    +0.000 A 
ATOM     17  C   UNL     1       5.332   3.647  13.535  0.00  0.00    +0.000 A 
ATOM     18  C   UNL     1       5.956   3.302  12.337  0.00  0.00    +0.000 A 
ATOM     19  C   UNL     1       7.122   3.964  11.992  0.00  0.00    +0.000 A 
ATOM     20  N   UNL     1       7.695   4.913  12.762  0.00  0.00    +0.000 NA
ATOM     21  C   UNL     1       7.073   5.218  13.923  0.00  0.00    +0.000 A 
ENDBRANCH  15  16
ENDBRANCH   5  15
TORSDOF 3
ENDMDL
MODEL 5
REMARK VINA RESULT:      -7.6      0.607      1.045
REMARK  Name = 
REMARK  3 active torsions:
REMARK  status: ('A' for Active; 'I' for Inactive)
REMARK    1  A    between atoms: C_5  and  C_6
REMARK    2  A    between atoms: N_10  and  C_11
REMARK    3  A    between atoms: C_11  and  C_12
REMARK                            x       y       z     vdW  Elec       q    Type
REMARK                         _______ _______ _______ _____ _____    ______ ____
ROOT
ATOM      1  C   UNL     1       5.544   4.412  17.884  0.00  0.00    +0.000 A 
ATOM      2  N   UNL     1       6.535   4.208  18.738  0.00  0.00    +0.000 NA
ATOM      3  N   UNL     1       7.635   4.862  18.261  0.00  0.00    +0.000 NA
ATOM      4  N   UNL     1       7.364   5.457  17.116  0.00  0.00    +0.000 NA
ATOM      5  N   UNL     1       6.077   5.156  16.850  0.00  0.00    +0.000 N 
ENDROOT
BRANCH   1  10
ATOM      6  F   UNL     1       0.471   2.103  18.691  0.00  0.00    +0.000 F 
ATOM      7  C   UNL     1       1.654   2.703  18.490  0.00  0.00    +0.000 A 
ATOM      8  C   UNL     1       2.527   2.142  17.572  0.00  0.00    +0.000 A 
ATOM      9  C   UNL     1       3.784   2.716  17.371  0.00  0.00    +0.000 A 
ATOM     10  C   UNL     1       4.177   3.883  18.050  0.00  0.00    +0.000 A 
ATOM     11  C   UNL     1       3.252   4.460  18.963  0.00  0.00    +0.000 A 
ATOM     12 CL   UNL     1       3.624   5.948  19.791  0.00  0.00    +0.000 Cl
ATOM     13  C   UNL     1       2.000   3.855  19.193  0.00  0.00    +0.000 A 
ATOM     14 CL   UNL     1       0.856   4.476  20.336  0.00  0.00    +0.000 Cl
ENDBRANCH   1  10
BRANCH   5  15
ATOM     15  C   UNL     1       5.496   5.664  15.621  0.00  0.00    +0.000 C 
BRANCH  15  16
ATOM     16  C   UNL     1       6.041   5.001  14.378  0.00  0.00    +0.000 A 
ATOM     17  C   UNL     1       7.247   5.360  13.763  0.00  0.00    +0.000 A 
ATOM     18  C   UNL     1       7.692   4.670  12.636  0.00  0.00    +0.000 A 
ATOM     19  C   UNL     1       6.902   3.646  12.142  0.00  0.00    +0.000 A 
ATOM     20  N   UNL     1       5.718   3.292  12.682  0.00  0.00    +0.000 NA
ATOM     21  C   UNL     1       5.307   3.987  13.767  0.00  0.00    +0.000 A 
ENDBRANCH  15  16
ENDBRANCH   5  15
TORSDOF 3
ENDMDL
MODEL 6
REMARK VINA RESULT:      -7.5      3.294      4.743
REMARK  Name = 
REMARK  3 active torsions:
REMARK  status: ('A' for Active; 'I' for Inactive)
REMARK    1  A    between atoms: C_5  and  C_6
REMARK    2  A    between atoms: N_10  and  C_11
REMARK    3  A    between atoms: C_11  and  C_12
REMARK                            x       y       z     vdW  Elec       q    Type
REMARK                         _______ _______ _______ _____ _____    ______ ____
ROOT
ATOM      1  C   UNL     1       2.604   4.316  18.229  0.00  0.00    +0.000 A 
ATOM      2  N   UNL     1       1.705   3.600  17.571  0.00  0.00    +0.000 NA
ATOM      3  N   UNL     1       2.180   2.323  17.475  0.00  0.00    +0.000 NA
ATOM      4  N   UNL     1       3.368   2.224  18.039  0.00  0.00    +0.000 NA
ATOM      5  N   UNL     1       3.662   3.464  18.480  0.00  0.00    +0.000 N 
ENDROOT
BRANCH   1  10
ATOM      6  F   UNL     1       1.733   9.781  19.268  0.00  0.00    +0.000 F 
ATOM      7  C   UNL     1       1.974   8.478  19.066  0.00  0.00    +0.000 A 
ATOM      8  C   UNL     1       2.392   8.074  17.807  0.00  0.00    +0.000 A 
ATOM      9  C   UNL     1       2.610   6.720  17.551  0.00  0.00    +0.000 A 
ATOM     10  C   UNL     1       2.456   5.747  18.554  0.00  0.00    +0.000 A 
ATOM     11  C   UNL     1       2.058   6.187  19.847  0.00  0.00    +0.000 A 
ATOM     12 CL   UNL     1       1.916   5.061  21.170  0.00  0.00    +0.000 Cl
ATOM     13  C   UNL     1       1.800   7.551  20.091  0.00  0.00    +0.000 A 
ATOM     14 CL   UNL     1       1.255   8.140  21.626  0.00  0.00    +0.000 Cl
ENDBRANCH   1  10
BRANCH   5  15
ATOM     15  C   UNL     1       4.939   3.672  19.137  0.00  0.00    +0.000 C 
BRANCH  15  16
ATOM     16  C   UNL     1       5.833   4.653  18.416  0.00  0.00    +0.000 A 
ATOM     17  C   UNL     1       5.896   4.779  17.023  0.00  0.00    +0.000 A 
ATOM     18  C   UNL     1       6.726   5.736  16.442  0.00  0.00    +0.000 A 
ATOM     19  C   UNL     1       7.490   6.533  17.278  0.00  0.00    +0.000 A 
ATOM     20  N   UNL     1       7.486   6.421  18.622  0.00  0.00    +0.000 NA
ATOM     21  C   UNL     1       6.680   5.476  19.155  0.00  0.00    +0.000 A 
ENDBRANCH  15  16
ENDBRANCH   5  15
TORSDOF 3
ENDMDL
MODEL 7
REMARK VINA RESULT:      -7.5      3.378      4.820
REMARK  Name = 
REMARK  3 active torsions:
REMARK  status: ('A' for Active; 'I' for Inactive)
REMARK    1  A    between atoms: C_5  and  C_6
REMARK    2  A    between atoms: N_10  and  C_11
REMARK    3  A    between atoms: C_11  and  C_12
REMARK                            x       y       z     vdW  Elec       q    Type
REMARK                         _______ _______ _______ _____ _____    ______ ____
ROOT
ATOM      1  C   UNL     1       2.623   4.554  18.156  0.00  0.00    +0.000 A 
ATOM      2  N   UNL     1       1.763   3.847  17.439  0.00  0.00    +0.000 NA
ATOM      3  N   UNL     1       2.270   2.586  17.309  0.00  0.00    +0.000 NA
ATOM      4  N   UNL     1       3.439   2.488  17.910  0.00  0.00    +0.000 NA
ATOM      5  N   UNL     1       3.690   3.714  18.410  0.00  0.00    +0.000 N 
ENDROOT
BRANCH   1  10
ATOM      6  F   UNL     1       1.581   9.945  19.405  0.00  0.00    +0.000 F 
ATOM      7  C   UNL     1       1.864   8.659  19.151  0.00  0.00    +0.000 A 
ATOM      8  C   UNL     1       2.257   8.313  17.868  0.00  0.00    +0.000 A 
ATOM      9  C   UNL     1       2.517   6.977  17.560  0.00  0.00    +0.000 A 
ATOM     10  C   UNL     1       2.431   5.967  18.534  0.00  0.00    +0.000 A 
ATOM     11  C   UNL     1       2.058   6.350  19.852  0.00  0.00    +0.000 A 
ATOM     12 CL   UNL     1       2.000   5.177  21.141  0.00  0.00    +0.000 Cl
ATOM     13  C   UNL     1       1.757   7.694  20.149  0.00  0.00    +0.000 A 
ATOM     14 CL   UNL     1       1.239   8.212  21.720  0.00  0.00    +0.000 Cl
ENDBRANCH   1  10
BRANCH   5  15
ATOM     15  C   UNL     1       4.939   3.922  19.120  0.00  0.00    +0.000 C 
BRANCH  15  16
ATOM     16  C   UNL     1       5.854   4.920  18.449  0.00  0.00    +0.000 A 
ATOM     17  C   UNL     1       6.843   5.649  19.120  0.00  0.00    +0.000 A 
ATOM     18  C   UNL     1       7.667   6.525  18.414  0.00  0.00    +0.000 A 
ATOM     19  C   UNL     1       7.461   6.662  17.052  0.00  0.00    +0.000 A 
ATOM     20  N   UNL     1       6.497   6.006  16.375  0.00  0.00    +0.000 NA
ATOM     21  C   UNL     1       5.707   5.172  17.088  0.00  0.00    +0.000 A 
ENDBRANCH  15  16
ENDBRANCH   5  15
TORSDOF 3
ENDMDL
MODEL 8
REMARK VINA RESULT:      -7.5      3.445      4.659
REMARK  Name = 
REMARK  3 active torsions:
REMARK  status: ('A' for Active; 'I' for Inactive)
REMARK    1  A    between atoms: C_5  and  C_6
REMARK    2  A    between atoms: N_10  and  C_11
REMARK    3  A    between atoms: C_11  and  C_12
REMARK                            x       y       z     vdW  Elec       q    Type
REMARK                         _______ _______ _______ _____ _____    ______ ____
ROOT
ATOM      1  C   UNL     1       2.452   6.780  18.780  0.00  0.00    +0.000 A 
ATOM      2  N   UNL     1       1.799   7.903  19.037  0.00  0.00    +0.000 NA
ATOM      3  N   UNL     1       2.250   8.853  18.166  0.00  0.00    +0.000 NA
ATOM      4  N   UNL     1       3.186   8.360  17.380  0.00  0.00    +0.000 NA
ATOM      5  N   UNL     1       3.349   7.081  17.774  0.00  0.00    +0.000 N 
ENDROOT
BRANCH   1  10
ATOM      6  F   UNL     1       1.372   2.089  21.703  0.00  0.00    +0.000 F 
ATOM      7  C   UNL     1       1.655   3.175  20.968  0.00  0.00    +0.000 A 
ATOM      8  C   UNL     1       2.279   4.245  21.589  0.00  0.00    +0.000 A 
ATOM      9  C   UNL     1       2.548   5.406  20.864  0.00  0.00    +0.000 A 
ATOM     10  C   UNL     1       2.239   5.508  19.496  0.00  0.00    +0.000 A 
ATOM     11  C   UNL     1       1.629   4.385  18.871  0.00  0.00    +0.000 A 
ATOM     12 CL   UNL     1       1.280   4.393  17.163  0.00  0.00    +0.000 Cl
ATOM     13  C   UNL     1       1.322   3.229  19.617  0.00  0.00    +0.000 A 
ATOM     14 CL   UNL     1       0.525   1.854  18.926  0.00  0.00    +0.000 Cl
ENDBRANCH   1  10
BRANCH   5  15
ATOM     15  C   UNL     1       4.347   6.276  17.092  0.00  0.00    +0.000 C 
BRANCH  15  16
ATOM     16  C   UNL     1       5.656   6.180  17.841  0.00  0.00    +0.000 A 
ATOM     17  C   UNL     1       6.793   6.937  17.530  0.00  0.00    +0.000 A 
ATOM     18  C   UNL     1       7.950   6.808  18.297  0.00  0.00    +0.000 A 
ATOM     19  C   UNL     1       7.942   5.905  19.347  0.00  0.00    +0.000 A 
ATOM     20  N   UNL     1       6.882   5.132  19.657  0.00  0.00    +0.000 NA
ATOM     21  C   UNL     1       5.778   5.271  18.889  0.00  0.00    +0.000 A 
ENDBRANCH  15  16
ENDBRANCH   5  15
TORSDOF 3
ENDMDL
MODEL 9
REMARK VINA RESULT:      -7.4      2.185      2.830
REMARK  Name = 
REMARK  3 active torsions:
REMARK  status: ('A' for Active; 'I' for Inactive)
REMARK    1  A    between atoms: C_5  and  C_6
REMARK    2  A    between atoms: N_10  and  C_11
REMARK    3  A    between atoms: C_11  and  C_12
REMARK                            x       y       z     vdW  Elec       q    Type
REMARK                         _______ _______ _______ _____ _____    ______ ____
ROOT
ATOM      1  C   UNL     1       2.715   6.187  18.053  0.00  0.00    +0.000 A 
ATOM      2  N   UNL     1       1.914   7.223  17.856  0.00  0.00    +0.000 NA
ATOM      3  N   UNL     1       2.690   8.283  17.485  0.00  0.00    +0.000 NA
ATOM      4  N   UNL     1       3.964   7.944  17.463  0.00  0.00    +0.000 NA
ATOM      5  N   UNL     1       3.999   6.653  17.850  0.00  0.00    +0.000 N 
ENDROOT
BRANCH   1  10
ATOM      6  F   UNL     1       1.316   0.937  19.532  0.00  0.00    +0.000 F 
ATOM      7  C   UNL     1       1.602   2.205  19.204  0.00  0.00    +0.000 A 
ATOM      8  C   UNL     1       1.914   2.488  17.884  0.00  0.00    +0.000 A 
ATOM      9  C   UNL     1       2.258   3.790  17.518  0.00  0.00    +0.000 A 
ATOM     10  C   UNL     1       2.258   4.842  18.451  0.00  0.00    +0.000 A 
ATOM     11  C   UNL     1       1.903   4.535  19.793  0.00  0.00    +0.000 A 
ATOM     12 CL   UNL     1       1.802   5.788  21.001  0.00  0.00    +0.000 Cl
ATOM     13  C   UNL     1       1.595   3.211  20.167  0.00  0.00    +0.000 A 
ATOM     14 CL   UNL     1       1.214   2.764  21.798  0.00  0.00    +0.000 Cl
ENDBRANCH   1  10
BRANCH   5  15
ATOM     15  C   UNL     1       5.293   6.001  17.944  0.00  0.00    +0.000 C 
BRANCH  15  16
ATOM     16  C   UNL     1       5.814   5.504  16.616  0.00  0.00    +0.000 A 
ATOM     17  C   UNL     1       5.081   4.692  15.741  0.00  0.00    +0.000 A 
ATOM     18  C   UNL     1       5.629   4.307  14.518  0.00  0.00    +0.000 A 
ATOM     19  C   UNL     1       6.910   4.734  14.212  0.00  0.00    +0.000 A 
ATOM     20  N   UNL     1       7.662   5.487  15.040  0.00  0.00    +0.000 NA
ATOM     21  C   UNL     1       7.109   5.834  16.224  0.00  0.00    +0.000 A 
ENDBRANCH  15  16
ENDBRANCH   5  15
TORSDOF 3
ENDMDL
