MODEL 1
REMARK VINA RESULT:      -6.6      0.000      0.000
REMARK  Name = 
REMARK  8 active torsions:
REMARK  status: ('A' for Active; 'I' for Inactive)
REMARK    1  A    between atoms: C_1  and  C_2
REMARK    2  A    between atoms: C_2  and  C_3
REMARK    3  A    between atoms: C_3  and  N_4
REMARK    4  A    between atoms: N_4  and  C_5
REMARK    5  A    between atoms: N_4  and  C_8
REMARK    6  A    between atoms: C_5  and  C_6
REMARK    7  A    between atoms: C_6  and  C_7
REMARK    8  A    between atoms: C_16  and  C_17
REMARK                            x       y       z     vdW  Elec       q    Type
REMARK                         _______ _______ _______ _____ _____    ______ ____
ROOT
ATOM      1  C   UNL     1       4.266   5.151  16.861  0.00  0.00    +0.000 C 
ATOM      2  C   UNL     1       3.747   3.712  16.406  0.00  0.00    +0.000 C 
ATOM      3  C   UNL     1       3.261   2.942  17.595  0.00  0.00    +0.000 A 
ATOM      4  C   UNL     1       3.260   1.611  17.938  0.00  0.00    +0.000 A 
ATOM      5  N   UNL     1       2.812   1.520  19.242  0.00  0.00    +0.000 N 
ATOM      6  C   UNL     1       2.522   2.773  19.741  0.00  0.00    +0.000 A 
ATOM      7  C   UNL     1       2.132   3.226  20.999  0.00  0.00    +0.000 A 
ATOM      8  C   UNL     1       1.971   4.618  21.147  0.00  0.00    +0.000 A 
ATOM      9  C   UNL     1       2.212   5.523  20.090  0.00  0.00    +0.000 A 
ATOM     10  C   UNL     1       2.653   5.044  18.849  0.00  0.00    +0.000 A 
ATOM     11  C   UNL     1       2.763   3.653  18.706  0.00  0.00    +0.000 A 
ATOM     12  C   UNL     1       3.083   5.864  17.653  0.00  0.00    +0.000 C 
ATOM     13  H   UNL     1       2.774   0.666  19.782  0.00  0.00    +0.000 HD
ENDROOT
BRANCH   9  14
ATOM     14  C   UNL     1       2.045   6.928  20.327  0.00  0.00    +0.000 C 
ATOM     15  N   UNL     1       1.914   8.068  20.515  0.00  0.00    +0.000 NA
ENDBRANCH   9  14
BRANCH   1  16
ATOM     16  N   UNL     1       5.566   5.078  17.615  0.00  0.00    +0.000 NA
BRANCH  16  17
ATOM     17  C   UNL     1       6.630   4.417  16.839  0.00  0.00    +0.000 C 
BRANCH  17  19
ATOM     18  C   UNL     1       6.562   4.066  14.295  0.00  0.00    +0.000 C 
ATOM     19  C   UNL     1       6.945   4.988  15.445  0.00  0.00    +0.000 C 
ENDBRANCH  17  19
ENDBRANCH  16  17
BRANCH  16  20
ATOM     20  C   UNL     1       6.000   6.318  18.280  0.00  0.00    +0.000 C 
BRANCH  20  21
ATOM     21  C   UNL     1       7.504   6.622  18.353  0.00  0.00    +0.000 C 
ATOM     22  C   UNL     1       7.799   7.945  17.645  0.00  0.00    +0.000 C 
ENDBRANCH  20  21
ENDBRANCH  16  20
ENDBRANCH   1  16
TORSDOF 6
ENDMDL
MODEL 2
REMARK VINA RESULT:      -6.3      1.500      2.190
REMARK  Name = 
REMARK  8 active torsions:
REMARK  status: ('A' for Active; 'I' for Inactive)
REMARK    1  A    between atoms: C_1  and  C_2
REMARK    2  A    between atoms: C_2  and  C_3
REMARK    3  A    between atoms: C_3  and  N_4
REMARK    4  A    between atoms: N_4  and  C_5
REMARK    5  A    between atoms: N_4  and  C_8
REMARK    6  A    between atoms: C_5  and  C_6
REMARK    7  A    between atoms: C_6  and  C_7
REMARK    8  A    between atoms: C_16  and  C_17
REMARK                            x       y       z     vdW  Elec       q    Type
REMARK                         _______ _______ _______ _____ _____    ______ ____
ROOT
ATOM      1  C   UNL     1       5.095   6.888  16.402  0.00  0.00    +0.000 C 
ATOM      2  C   UNL     1       4.974   5.459  15.700  0.00  0.00    +0.000 C 
ATOM      3  C   UNL     1       4.532   4.434  16.698  0.00  0.00    +0.000 A 
ATOM      4  C   UNL     1       4.790   3.095  16.873  0.00  0.00    +0.000 A 
ATOM      5  N   UNL     1       4.217   2.716  18.072  0.00  0.00    +0.000 N 
ATOM      6  C   UNL     1       3.591   3.791  18.668  0.00  0.00    +0.000 A 
ATOM      7  C   UNL     1       2.957   3.957  19.898  0.00  0.00    +0.000 A 
ATOM      8  C   UNL     1       2.469   5.246  20.188  0.00  0.00    +0.000 A 
ATOM      9  C   UNL     1       2.628   6.332  19.298  0.00  0.00    +0.000 A 
ATOM     10  C   UNL     1       3.315   6.149  18.090  0.00  0.00    +0.000 A 
ATOM     11  C   UNL     1       3.753   4.849  17.798  0.00  0.00    +0.000 A 
ATOM     12  C   UNL     1       3.693   7.213  17.083  0.00  0.00    +0.000 C 
ATOM     13  H   UNL     1       4.306   1.800  18.490  0.00  0.00    +0.000 HD
ENDROOT
BRANCH   9  14
ATOM     14  C   UNL     1       2.120   7.619  19.676  0.00  0.00    +0.000 C 
ATOM     15  N   UNL     1       1.706   8.664  19.976  0.00  0.00    +0.000 NA
ENDBRANCH   9  14
BRANCH   1  16
ATOM     16  N   UNL     1       6.275   6.970  17.331  0.00  0.00    +0.000 NA
BRANCH  16  17
ATOM     17  C   UNL     1       7.275   5.922  17.066  0.00  0.00    +0.000 C 
BRANCH  17  19
ATOM     18  C   UNL     1       6.889   5.267  19.521  0.00  0.00    +0.000 C 
ATOM     19  C   UNL     1       7.694   5.032  18.249  0.00  0.00    +0.000 C 
ENDBRANCH  17  19
ENDBRANCH  16  17
BRANCH  16  20
ATOM     20  C   UNL     1       6.856   8.310  17.522  0.00  0.00    +0.000 C 
BRANCH  20  21
ATOM     21  C   UNL     1       8.297   8.415  18.046  0.00  0.00    +0.000 C 
ATOM     22  C   UNL     1       8.629   9.876  18.356  0.00  0.00    +0.000 C 
ENDBRANCH  20  21
ENDBRANCH  16  20
ENDBRANCH   1  16
TORSDOF 6
ENDMDL
MODEL 3
REMARK VINA RESULT:      -6.2      1.721      2.522
REMARK  Name = 
REMARK  8 active torsions:
REMARK  status: ('A' for Active; 'I' for Inactive)
REMARK    1  A    between atoms: C_1  and  C_2
REMARK    2  A    between atoms: C_2  and  C_3
REMARK    3  A    between atoms: C_3  and  N_4
REMARK    4  A    between atoms: N_4  and  C_5
REMARK    5  A    between atoms: N_4  and  C_8
REMARK    6  A    between atoms: C_5  and  C_6
REMARK    7  A    between atoms: C_6  and  C_7
REMARK    8  A    between atoms: C_16  and  C_17
REMARK                            x       y       z     vdW  Elec       q    Type
REMARK                         _______ _______ _______ _____ _____    ______ ____
ROOT
ATOM      1  C   UNL     1       5.394   6.156  16.164  0.00  0.00    +0.000 C 
ATOM      2  C   UNL     1       5.002   4.609  16.195  0.00  0.00    +0.000 C 
ATOM      3  C   UNL     1       4.244   4.297  17.448  0.00  0.00    +0.000 A 
ATOM      4  C   UNL     1       4.160   3.197  18.268  0.00  0.00    +0.000 A 
ATOM      5  N   UNL     1       3.409   3.558  19.371  0.00  0.00    +0.000 N 
ATOM      6  C   UNL     1       3.006   4.874  19.269  0.00  0.00    +0.000 A 
ATOM      7  C   UNL     1       2.322   5.725  20.134  0.00  0.00    +0.000 A 
ATOM      8  C   UNL     1       2.129   7.050  19.694  0.00  0.00    +0.000 A 
ATOM      9  C   UNL     1       2.618   7.513  18.453  0.00  0.00    +0.000 A 
ATOM     10  C   UNL     1       3.347   6.648  17.625  0.00  0.00    +0.000 A 
ATOM     11  C   UNL     1       3.490   5.322  18.057  0.00  0.00    +0.000 A 
ATOM     12  C   UNL     1       4.054   6.999  16.334  0.00  0.00    +0.000 C 
ATOM     13  H   UNL     1       3.242   2.968  20.174  0.00  0.00    +0.000 HD
ENDROOT
BRANCH   9  14
ATOM     14  C   UNL     1       2.398   8.882  18.086  0.00  0.00    +0.000 C 
ATOM     15  N   UNL     1       2.213   9.992  17.792  0.00  0.00    +0.000 NA
ENDBRANCH   9  14
BRANCH   1  16
ATOM     16  N   UNL     1       6.473   6.492  17.158  0.00  0.00    +0.000 NA
BRANCH  16  17
ATOM     17  C   UNL     1       7.526   5.464  17.216  0.00  0.00    +0.000 C 
BRANCH  17  19
ATOM     18  C   UNL     1       6.901   5.313  19.704  0.00  0.00    +0.000 C 
ATOM     19  C   UNL     1       7.825   4.837  18.589  0.00  0.00    +0.000 C 
ENDBRANCH  17  19
ENDBRANCH  16  17
BRANCH  16  20
ATOM     20  C   UNL     1       6.992   7.869  17.109  0.00  0.00    +0.000 C 
BRANCH  20  21
ATOM     21  C   UNL     1       8.168   8.242  18.024  0.00  0.00    +0.000 C 
ATOM     22  C   UNL     1       8.354   9.760  18.037  0.00  0.00    +0.000 C 
ENDBRANCH  20  21
ENDBRANCH  16  20
ENDBRANCH   1  16
TORSDOF 6
ENDMDL
MODEL 4
REMARK VINA RESULT:      -5.8      1.567      4.109
REMARK  Name = 
REMARK  8 active torsions:
REMARK  status: ('A' for Active; 'I' for Inactive)
REMARK    1  A    between atoms: C_1  and  C_2
REMARK    2  A    between atoms: C_2  and  C_3
REMARK    3  A    between atoms: C_3  and  N_4
REMARK    4  A    between atoms: N_4  and  C_5
REMARK    5  A    between atoms: N_4  and  C_8
REMARK    6  A    between atoms: C_5  and  C_6
REMARK    7  A    between atoms: C_6  and  C_7
REMARK    8  A    between atoms: C_16  and  C_17
REMARK                            x       y       z     vdW  Elec       q    Type
REMARK                         _______ _______ _______ _____ _____    ______ ____
ROOT
ATOM      1  C   UNL     1       5.678   5.459  17.169  0.00  0.00    +0.000 C 
ATOM      2  C   UNL     1       5.314   7.002  17.353  0.00  0.00    +0.000 C 
ATOM      3  C   UNL     1       4.026   7.140  18.104  0.00  0.00    +0.000 A 
ATOM      4  C   UNL     1       2.988   8.040  18.067  0.00  0.00    +0.000 A 
ATOM      5  N   UNL     1       1.992   7.558  18.895  0.00  0.00    +0.000 N 
ATOM      6  C   UNL     1       2.377   6.363  19.466  0.00  0.00    +0.000 A 
ATOM      7  C   UNL     1       1.718   5.448  20.285  0.00  0.00    +0.000 A 
ATOM      8  C   UNL     1       2.435   4.287  20.638  0.00  0.00    +0.000 A 
ATOM      9  C   UNL     1       3.746   4.038  20.175  0.00  0.00    +0.000 A 
ATOM     10  C   UNL     1       4.365   4.951  19.310  0.00  0.00    +0.000 A 
ATOM     11  C   UNL     1       3.655   6.122  19.007  0.00  0.00    +0.000 A 
ATOM     12  C   UNL     1       5.699   4.792  18.615  0.00  0.00    +0.000 C 
ATOM     13  H   UNL     1       1.080   7.980  19.008  0.00  0.00    +0.000 HD
ENDROOT
BRANCH   9  14
ATOM     14  C   UNL     1       4.400   2.823  20.564  0.00  0.00    +0.000 C 
ATOM     15  N   UNL     1       4.931   1.839  20.885  0.00  0.00    +0.000 NA
ENDBRANCH   9  14
BRANCH   1  16
ATOM     16  N   UNL     1       4.777   4.773  16.178  0.00  0.00    +0.000 NA
BRANCH  16  17
ATOM     17  C   UNL     1       5.267   4.895  14.794  0.00  0.00    +0.000 C 
BRANCH  17  19
ATOM     18  C   UNL     1       6.122   3.513  12.803  0.00  0.00    +0.000 C 
ATOM     19  C   UNL     1       6.238   3.811  14.293  0.00  0.00    +0.000 C 
ENDBRANCH  17  19
ENDBRANCH  16  17
BRANCH  16  20
ATOM     20  C   UNL     1       4.338   3.414  16.535  0.00  0.00    +0.000 C 
BRANCH  20  21
ATOM     21  C   UNL     1       2.841   3.169  16.779  0.00  0.00    +0.000 C 
ATOM     22  C   UNL     1       2.657   1.951  17.686  0.00  0.00    +0.000 C 
ENDBRANCH  20  21
ENDBRANCH  16  20
ENDBRANCH   1  16
TORSDOF 6
ENDMDL
MODEL 5
REMARK VINA RESULT:      -5.8      1.847      5.518
REMARK  Name = 
REMARK  8 active torsions:
REMARK  status: ('A' for Active; 'I' for Inactive)
REMARK    1  A    between atoms: C_1  and  C_2
REMARK    2  A    between atoms: C_2  and  C_3
REMARK    3  A    between atoms: C_3  and  N_4
REMARK    4  A    between atoms: N_4  and  C_5
REMARK    5  A    between atoms: N_4  and  C_8
REMARK    6  A    between atoms: C_5  and  C_6
REMARK    7  A    between atoms: C_6  and  C_7
REMARK    8  A    between atoms: C_16  and  C_17
REMARK                            x       y       z     vdW  Elec       q    Type
REMARK                         _______ _______ _______ _____ _____    ______ ____
ROOT
ATOM      1  C   UNL     1       4.111   3.728  18.532  0.00  0.00    +0.000 C 
ATOM      2  C   UNL     1       4.072   3.625  16.940  0.00  0.00    +0.000 C 
ATOM      3  C   UNL     1       4.853   4.749  16.334  0.00  0.00    +0.000 A 
ATOM      4  C   UNL     1       4.728   5.491  15.184  0.00  0.00    +0.000 A 
ATOM      5  N   UNL     1       5.667   6.504  15.239  0.00  0.00    +0.000 N 
ATOM      6  C   UNL     1       6.397   6.420  16.407  0.00  0.00    +0.000 A 
ATOM      7  C   UNL     1       7.377   7.233  16.972  0.00  0.00    +0.000 A 
ATOM      8  C   UNL     1       7.870   6.843  18.233  0.00  0.00    +0.000 A 
ATOM      9  C   UNL     1       7.389   5.702  18.914  0.00  0.00    +0.000 A 
ATOM     10  C   UNL     1       6.365   4.932  18.344  0.00  0.00    +0.000 A 
ATOM     11  C   UNL     1       5.919   5.308  17.069  0.00  0.00    +0.000 A 
ATOM     12  C   UNL     1       5.639   3.765  18.977  0.00  0.00    +0.000 C 
ATOM     13  H   UNL     1       5.757   7.246  14.559  0.00  0.00    +0.000 HD
ENDROOT
BRANCH   9  14
ATOM     14  C   UNL     1       7.928   5.383  20.203  0.00  0.00    +0.000 C 
ATOM     15  N   UNL     1       8.372   5.128  21.248  0.00  0.00    +0.000 NA
ENDBRANCH   9  14
BRANCH   1  16
ATOM     16  N   UNL     1       3.282   4.871  19.052  0.00  0.00    +0.000 NA
BRANCH  16  17
ATOM     17  C   UNL     1       2.244   5.293  18.096  0.00  0.00    +0.000 C 
BRANCH  17  19
ATOM     18  C   UNL     1       3.198   7.664  17.826  0.00  0.00    +0.000 C 
ATOM     19  C   UNL     1       1.954   6.801  17.991  0.00  0.00    +0.000 C 
ENDBRANCH  17  19
ENDBRANCH  16  17
BRANCH  16  20
ATOM     20  C   UNL     1       2.796   4.741  20.436  0.00  0.00    +0.000 C 
BRANCH  20  21
ATOM     21  C   UNL     1       1.335   4.325  20.663  0.00  0.00    +0.000 C 
ATOM     22  C   UNL     1       1.284   2.915  21.255  0.00  0.00    +0.000 C 
ENDBRANCH  20  21
ENDBRANCH  16  20
ENDBRANCH   1  16
TORSDOF 6
ENDMDL
MODEL 6
REMARK VINA RESULT:      -5.8      6.059      9.828
REMARK  Name = 
REMARK  8 active torsions:
REMARK  status: ('A' for Active; 'I' for Inactive)
REMARK    1  A    between atoms: C_1  and  C_2
REMARK    2  A    between atoms: C_2  and  C_3
REMARK    3  A    between atoms: C_3  and  N_4
REMARK    4  A    between atoms: N_4  and  C_5
REMARK    5  A    between atoms: N_4  and  C_8
REMARK    6  A    between atoms: C_5  and  C_6
REMARK    7  A    between atoms: C_6  and  C_7
REMARK    8  A    between atoms: C_16  and  C_17
REMARK                            x       y       z     vdW  Elec       q    Type
REMARK                         _______ _______ _______ _____ _____    ______ ____
ROOT
ATOM      1  C   UNL     1      -1.450  12.716  19.289  0.00  0.00    +0.000 C 
ATOM      2  C   UNL     1      -1.491  13.217  20.804  0.00  0.00    +0.000 C 
ATOM      3  C   UNL     1      -1.185  12.079  21.729  0.00  0.00    +0.000 A 
ATOM      4  C   UNL     1      -1.601  11.734  22.993  0.00  0.00    +0.000 A 
ATOM      5  N   UNL     1      -1.090  10.480  23.269  0.00  0.00    +0.000 N 
ATOM      6  C   UNL     1      -0.349  10.015  22.202  0.00  0.00    +0.000 A 
ATOM      7  C   UNL     1       0.286   8.802  21.945  0.00  0.00    +0.000 A 
ATOM      8  C   UNL     1       0.919   8.674  20.693  0.00  0.00    +0.000 A 
ATOM      9  C   UNL     1       0.900   9.705  19.727  0.00  0.00    +0.000 A 
ATOM     10  C   UNL     1       0.210  10.895  19.993  0.00  0.00    +0.000 A 
ATOM     11  C   UNL     1      -0.375  11.023  21.261  0.00  0.00    +0.000 A 
ATOM     12  C   UNL     1      -0.028  12.046  19.039  0.00  0.00    +0.000 C 
ATOM     13  H   UNL     1      -1.292   9.945  24.102  0.00  0.00    +0.000 HD
ENDROOT
BRANCH   9  14
ATOM     14  C   UNL     1       1.553   9.489  18.468  0.00  0.00    +0.000 C 
ATOM     15  N   UNL     1       2.076   9.314  17.444  0.00  0.00    +0.000 NA
ENDBRANCH   9  14
BRANCH   1  16
ATOM     16  N   UNL     1      -2.623  11.838  18.945  0.00  0.00    +0.000 NA
BRANCH  16  17
ATOM     17  C   UNL     1      -3.884  12.330  19.526  0.00  0.00    +0.000 C 
BRANCH  17  19
ATOM     18  C   UNL     1      -6.069  12.869  18.285  0.00  0.00    +0.000 C 
ATOM     19  C   UNL     1      -5.194  11.796  18.921  0.00  0.00    +0.000 C 
ENDBRANCH  17  19
ENDBRANCH  16  17
BRANCH  16  20
ATOM     20  C   UNL     1      -2.738  11.435  17.534  0.00  0.00    +0.000 C 
BRANCH  20  21
ATOM     21  C   UNL     1      -2.440   9.974  17.163  0.00  0.00    +0.000 C 
ATOM     22  C   UNL     1      -2.875   9.707  15.721  0.00  0.00    +0.000 C 
ENDBRANCH  20  21
ENDBRANCH  16  20
ENDBRANCH   1  16
TORSDOF 6
ENDMDL
MODEL 7
REMARK VINA RESULT:      -5.7      1.290      1.716
REMARK  Name = 
REMARK  8 active torsions:
REMARK  status: ('A' for Active; 'I' for Inactive)
REMARK    1  A    between atoms: C_1  and  C_2
REMARK    2  A    between atoms: C_2  and  C_3
REMARK    3  A    between atoms: C_3  and  N_4
REMARK    4  A    between atoms: N_4  and  C_5
REMARK    5  A    between atoms: N_4  and  C_8
REMARK    6  A    between atoms: C_5  and  C_6
REMARK    7  A    between atoms: C_6  and  C_7
REMARK    8  A    between atoms: C_16  and  C_17
REMARK                            x       y       z     vdW  Elec       q    Type
REMARK                         _______ _______ _______ _____ _____    ______ ____
ROOT
ATOM      1  C   UNL     1       4.331   4.420  16.903  0.00  0.00    +0.000 C 
ATOM      2  C   UNL     1       3.683   3.086  17.493  0.00  0.00    +0.000 C 
ATOM      3  C   UNL     1       3.135   3.343  18.863  0.00  0.00    +0.000 A 
ATOM      4  C   UNL     1       3.017   2.587  20.004  0.00  0.00    +0.000 A 
ATOM      5  N   UNL     1       2.568   3.421  21.010  0.00  0.00    +0.000 N 
ATOM      6  C   UNL     1       2.393   4.703  20.530  0.00  0.00    +0.000 A 
ATOM      7  C   UNL     1       2.051   5.907  21.144  0.00  0.00    +0.000 A 
ATOM      8  C   UNL     1       2.016   7.048  20.318  0.00  0.00    +0.000 A 
ATOM      9  C   UNL     1       2.332   6.996  18.942  0.00  0.00    +0.000 A 
ATOM     10  C   UNL     1       2.723   5.781  18.363  0.00  0.00    +0.000 A 
ATOM     11  C   UNL     1       2.707   4.647  19.189  0.00  0.00    +0.000 A 
ATOM     12  C   UNL     1       3.220   5.559  16.951  0.00  0.00    +0.000 C 
ATOM     13  H   UNL     1       2.456   3.152  21.978  0.00  0.00    +0.000 HD
ENDROOT
BRANCH   9  14
ATOM     14  C   UNL     1       2.292   8.206  18.174  0.00  0.00    +0.000 C 
ATOM     15  N   UNL     1       2.262   9.191  17.556  0.00  0.00    +0.000 NA
ENDBRANCH   9  14
BRANCH   1  16
ATOM     16  N   UNL     1       5.622   4.779  17.587  0.00  0.00    +0.000 NA
BRANCH  16  17
ATOM     17  C   UNL     1       6.801   4.266  16.868  0.00  0.00    +0.000 C 
BRANCH  17  19
ATOM     18  C   UNL     1       6.938   4.907  14.382  0.00  0.00    +0.000 C 
ATOM     19  C   UNL     1       6.600   3.829  15.405  0.00  0.00    +0.000 C 
ENDBRANCH  17  19
ENDBRANCH  16  17
BRANCH  16  20
ATOM     20  C   UNL     1       5.756   6.178  18.024  0.00  0.00    +0.000 C 
BRANCH  20  21
ATOM     21  C   UNL     1       6.709   7.100  17.247  0.00  0.00    +0.000 C 
ATOM     22  C   UNL     1       7.862   7.534  18.152  0.00  0.00    +0.000 C 
ENDBRANCH  20  21
ENDBRANCH  16  20
ENDBRANCH   1  16
TORSDOF 6
ENDMDL
MODEL 8
REMARK VINA RESULT:      -5.7      1.889      5.378
REMARK  Name = 
REMARK  8 active torsions:
REMARK  status: ('A' for Active; 'I' for Inactive)
REMARK    1  A    between atoms: C_1  and  C_2
REMARK    2  A    between atoms: C_2  and  C_3
REMARK    3  A    between atoms: C_3  and  N_4
REMARK    4  A    between atoms: N_4  and  C_5
REMARK    5  A    between atoms: N_4  and  C_8
REMARK    6  A    between atoms: C_5  and  C_6
REMARK    7  A    between atoms: C_6  and  C_7
REMARK    8  A    between atoms: C_16  and  C_17
REMARK                            x       y       z     vdW  Elec       q    Type
REMARK                         _______ _______ _______ _____ _____    ______ ____
ROOT
ATOM      1  C   UNL     1       2.341   6.606  18.304  0.00  0.00    +0.000 C 
ATOM      2  C   UNL     1       3.796   6.889  17.710  0.00  0.00    +0.000 C 
ATOM      3  C   UNL     1       4.720   5.763  18.058  0.00  0.00    +0.000 A 
ATOM      4  C   UNL     1       6.062   5.680  18.343  0.00  0.00    +0.000 A 
ATOM      5  N   UNL     1       6.320   4.383  18.745  0.00  0.00    +0.000 N 
ATOM      6  C   UNL     1       5.164   3.631  18.719  0.00  0.00    +0.000 A 
ATOM      7  C   UNL     1       4.874   2.324  19.107  0.00  0.00    +0.000 A 
ATOM      8  C   UNL     1       3.534   1.910  18.974  0.00  0.00    +0.000 A 
ATOM      9  C   UNL     1       2.520   2.770  18.495  0.00  0.00    +0.000 A 
ATOM     10  C   UNL     1       2.831   4.095  18.161  0.00  0.00    +0.000 A 
ATOM     11  C   UNL     1       4.178   4.476  18.256  0.00  0.00    +0.000 A 
ATOM     12  C   UNL     1       1.864   5.187  17.760  0.00  0.00    +0.000 C 
ATOM     13  H   UNL     1       7.213   4.050  19.083  0.00  0.00    +0.000 HD
ENDROOT
BRANCH   9  14
ATOM     14  C   UNL     1       1.176   2.277  18.407  0.00  0.00    +0.000 C 
ATOM     15  N   UNL     1       0.088   1.872  18.337  0.00  0.00    +0.000 NA
ENDBRANCH   9  14
BRANCH   1  16
ATOM     16  N   UNL     1       2.297   6.747  19.801  0.00  0.00    +0.000 NA
BRANCH  16  17
ATOM     17  C   UNL     1       1.910   8.103  20.227  0.00  0.00    +0.000 C 
BRANCH  17  19
ATOM     18  C   UNL     1       1.009   9.162  22.389  0.00  0.00    +0.000 C 
ATOM     19  C   UNL     1       0.740   8.223  21.220  0.00  0.00    +0.000 C 
ENDBRANCH  17  19
ENDBRANCH  16  17
BRANCH  16  20
ATOM     20  C   UNL     1       1.603   5.675  20.532  0.00  0.00    +0.000 C 
BRANCH  20  21
ATOM     21  C   UNL     1       2.425   4.774  21.467  0.00  0.00    +0.000 C 
ATOM     22  C   UNL     1       1.689   3.453  21.693  0.00  0.00    +0.000 C 
ENDBRANCH  20  21
ENDBRANCH  16  20
ENDBRANCH   1  16
TORSDOF 6
ENDMDL
MODEL 9
REMARK VINA RESULT:      -5.7      8.771     12.486
REMARK  Name = 
REMARK  8 active torsions:
REMARK  status: ('A' for Active; 'I' for Inactive)
REMARK    1  A    between atoms: C_1  and  C_2
REMARK    2  A    between atoms: C_2  and  C_3
REMARK    3  A    between atoms: C_3  and  N_4
REMARK    4  A    between atoms: N_4  and  C_5
REMARK    5  A    between atoms: N_4  and  C_8
REMARK    6  A    between atoms: C_5  and  C_6
REMARK    7  A    between atoms: C_6  and  C_7
REMARK    8  A    between atoms: C_16  and  C_17
REMARK                            x       y       z     vdW  Elec       q    Type
REMARK                         _______ _______ _______ _____ _____    ______ ____
ROOT
ATOM      1  C   UNL     1       8.111  15.353  19.032  0.00  0.00    +0.000 C 
ATOM      2  C   UNL     1       8.622  16.445  17.985  0.00  0.00    +0.000 C 
ATOM      3  C   UNL     1       9.975  16.066  17.468  0.00  0.00    +0.000 A 
ATOM      4  C   UNL     1      11.082  16.777  17.069  0.00  0.00    +0.000 A 
ATOM      5  N   UNL     1      12.097  15.869  16.837  0.00  0.00    +0.000 N 
ATOM      6  C   UNL     1      11.658  14.583  17.078  0.00  0.00    +0.000 A 
ATOM      7  C   UNL     1      12.300  13.347  17.079  0.00  0.00    +0.000 A 
ATOM      8  C   UNL     1      11.517  12.229  17.430  0.00  0.00    +0.000 A 
ATOM      9  C   UNL     1      10.155  12.343  17.788  0.00  0.00    +0.000 A 
ATOM     10  C   UNL     1       9.549  13.606  17.829  0.00  0.00    +0.000 A 
ATOM     11  C   UNL     1      10.330  14.701  17.432  0.00  0.00    +0.000 A 
ATOM     12  C   UNL     1       8.152  13.934  18.310  0.00  0.00    +0.000 C 
ATOM     13  H   UNL     1      13.048  16.114  16.599  0.00  0.00    +0.000 HD
ENDROOT
BRANCH   9  14
ATOM     14  C   UNL     1       9.432  11.160  18.152  0.00  0.00    +0.000 C 
ATOM     15  N   UNL     1       8.850  10.197  18.449  0.00  0.00    +0.000 NA
ENDBRANCH   9  14
BRANCH   1  16
ATOM     16  N   UNL     1       8.863  15.414  20.334  0.00  0.00    +0.000 NA
BRANCH  16  17
ATOM     17  C   UNL     1       8.872  16.766  20.916  0.00  0.00    +0.000 C 
BRANCH  17  19
ATOM     18  C   UNL     1      11.430  16.568  21.069  0.00  0.00    +0.000 C 
ATOM     19  C   UNL     1      10.225  17.497  20.982  0.00  0.00    +0.000 C 
ENDBRANCH  17  19
ENDBRANCH  16  17
BRANCH  16  20
ATOM     20  C   UNL     1       8.559  14.351  21.306  0.00  0.00    +0.000 C 
BRANCH  20  21
ATOM     21  C   UNL     1       9.653  13.321  21.631  0.00  0.00    +0.000 C 
ATOM     22  C   UNL     1       9.041  11.921  21.698  0.00  0.00    +0.000 C 
ENDBRANCH  20  21
ENDBRANCH  16  20
ENDBRANCH   1  16
TORSDOF 6
ENDMDL
