MODEL 1
REMARK VINA RESULT:      -6.5      0.000      0.000
REMARK  Name = 
REMARK  6 active torsions:
REMARK  status: ('A' for Active; 'I' for Inactive)
REMARK    1  A    between atoms: C_1  and  C_2
REMARK    2  A    between atoms: C_2  and  C_3
REMARK    3  A    between atoms: C_2  and  C_4
REMARK    4  A    between atoms: C_4  and  N_5
REMARK    5  A    between atoms: C_6  and  S_7
REMARK    6  A    between atoms: C_10  and  C_11
REMARK                            x       y       z     vdW  Elec       q    Type
REMARK                         _______ _______ _______ _____ _____    ______ ____
ROOT
ATOM      1  N   UNL     1       3.262   3.958  19.388  0.00  0.00    +0.000 N 
ATOM      2  C   UNL     1       2.999   3.150  20.468  0.00  0.00    +0.000 A 
ATOM      3  N   UNL     1       3.954   2.264  20.600  0.00  0.00    +0.000 NA
ATOM      4  N   UNL     1       4.875   2.487  19.615  0.00  0.00    +0.000 NA
ATOM      5  C   UNL     1       4.491   3.527  18.897  0.00  0.00    +0.000 A 
ENDROOT
BRANCH   5   6
ATOM      6  C   UNL     1       5.231   4.026  17.731  0.00  0.00    +0.000 A 
ATOM      7  C   UNL     1       6.485   4.631  17.936  0.00  0.00    +0.000 A 
ATOM      8  C   UNL     1       7.256   5.071  16.857  0.00  0.00    +0.000 A 
ATOM      9  C   UNL     1       6.780   4.902  15.564  0.00  0.00    +0.000 A 
ATOM     10  F   UNL     1       7.526   5.297  14.526  0.00  0.00    +0.000 F 
ATOM     11  C   UNL     1       5.535   4.333  15.334  0.00  0.00    +0.000 A 
ATOM     12  C   UNL     1       4.750   3.923  16.417  0.00  0.00    +0.000 A 
ENDBRANCH   5   6
BRANCH   2  13
ATOM     13  S   UNL     1       1.637   3.221  21.532  0.00  0.00    +0.000 S 
ATOM     14  H   UNL     1       1.126   4.426  21.273  0.00  0.00    +0.000 HD
ENDBRANCH   2  13
BRANCH   1  15
ATOM     15  C   UNL     1       2.440   5.022  18.853  0.00  0.00    +0.000 C 
BRANCH  15  17
ATOM     16  C   UNL     1       3.055   7.309  17.921  0.00  0.00    +0.000 C 
ATOM     17  C   UNL     1       2.913   6.456  19.180  0.00  0.00    +0.000 C 
ATOM     18  C   UNL     1       1.949   7.110  20.173  0.00  0.00    +0.000 C 
ENDBRANCH  15  17
ENDBRANCH   1  15
TORSDOF 4
ENDMDL
MODEL 2
REMARK VINA RESULT:      -6.4      0.874      1.227
REMARK  Name = 
REMARK  6 active torsions:
REMARK  status: ('A' for Active; 'I' for Inactive)
REMARK    1  A    between atoms: C_1  and  C_2
REMARK    2  A    between atoms: C_2  and  C_3
REMARK    3  A    between atoms: C_2  and  C_4
REMARK    4  A    between atoms: C_4  and  N_5
REMARK    5  A    between atoms: C_6  and  S_7
REMARK    6  A    between atoms: C_10  and  C_11
REMARK                            x       y       z     vdW  Elec       q    Type
REMARK                         _______ _______ _______ _____ _____    ______ ____
ROOT
ATOM      1  N   UNL     1       3.556   4.128  19.215  0.00  0.00    +0.000 N 
ATOM      2  C   UNL     1       2.782   3.192  19.857  0.00  0.00    +0.000 A 
ATOM      3  N   UNL     1       2.842   2.052  19.215  0.00  0.00    +0.000 NA
ATOM      4  N   UNL     1       3.676   2.215  18.145  0.00  0.00    +0.000 NA
ATOM      5  C   UNL     1       4.143   3.451  18.150  0.00  0.00    +0.000 A 
ENDROOT
BRANCH   5   6
ATOM      6  C   UNL     1       5.044   3.982  17.119  0.00  0.00    +0.000 A 
ATOM      7  C   UNL     1       6.365   4.307  17.480  0.00  0.00    +0.000 A 
ATOM      8  C   UNL     1       7.280   4.762  16.527  0.00  0.00    +0.000 A 
ATOM      9  C   UNL     1       6.880   4.889  15.204  0.00  0.00    +0.000 A 
ATOM     10  F   UNL     1       7.759   5.299  14.282  0.00  0.00    +0.000 F 
ATOM     11  C   UNL     1       5.576   4.602  14.825  0.00  0.00    +0.000 A 
ATOM     12  C   UNL     1       4.653   4.178  15.786  0.00  0.00    +0.000 A 
ENDBRANCH   5   6
BRANCH   2  13
ATOM     13  S   UNL     1       1.835   3.407  21.290  0.00  0.00    +0.000 S 
ATOM     14  H   UNL     1       2.439   2.597  22.162  0.00  0.00    +0.000 HD
ENDBRANCH   2  13
BRANCH   1  15
ATOM     15  C   UNL     1       3.722   5.525  19.551  0.00  0.00    +0.000 C 
BRANCH  15  17
ATOM     16  C   UNL     1       2.073   7.433  19.897  0.00  0.00    +0.000 C 
ATOM     17  C   UNL     1       2.721   6.494  18.882  0.00  0.00    +0.000 C 
ATOM     18  C   UNL     1       3.422   7.288  17.778  0.00  0.00    +0.000 C 
ENDBRANCH  15  17
ENDBRANCH   1  15
TORSDOF 4
ENDMDL
MODEL 3
REMARK VINA RESULT:      -6.4      0.180      1.180
REMARK  Name = 
REMARK  6 active torsions:
REMARK  status: ('A' for Active; 'I' for Inactive)
REMARK    1  A    between atoms: C_1  and  C_2
REMARK    2  A    between atoms: C_2  and  C_3
REMARK    3  A    between atoms: C_2  and  C_4
REMARK    4  A    between atoms: C_4  and  N_5
REMARK    5  A    between atoms: C_6  and  S_7
REMARK    6  A    between atoms: C_10  and  C_11
REMARK                            x       y       z     vdW  Elec       q    Type
REMARK                         _______ _______ _______ _____ _____    ______ ____
ROOT
ATOM      1  N   UNL     1       3.297   3.965  19.387  0.00  0.00    +0.000 N 
ATOM      2  C   UNL     1       2.958   3.170  20.455  0.00  0.00    +0.000 A 
ATOM      3  N   UNL     1       3.887   2.267  20.647  0.00  0.00    +0.000 NA
ATOM      4  N   UNL     1       4.866   2.466  19.714  0.00  0.00    +0.000 NA
ATOM      5  C   UNL     1       4.543   3.508  18.969  0.00  0.00    +0.000 A 
ENDROOT
BRANCH   5   6
ATOM      6  C   UNL     1       5.357   3.984  17.843  0.00  0.00    +0.000 A 
ATOM      7  C   UNL     1       4.917   3.718  16.533  0.00  0.00    +0.000 A 
ATOM      8  C   UNL     1       5.623   4.197  15.427  0.00  0.00    +0.000 A 
ATOM      9  C   UNL     1       6.772   4.951  15.624  0.00  0.00    +0.000 A 
ATOM     10  F   UNL     1       7.437   5.435  14.569  0.00  0.00    +0.000 F 
ATOM     11  C   UNL     1       7.244   5.205  16.905  0.00  0.00    +0.000 A 
ATOM     12  C   UNL     1       6.554   4.697  18.010  0.00  0.00    +0.000 A 
ENDBRANCH   5   6
BRANCH   2  13
ATOM     13  S   UNL     1       1.539   3.275  21.441  0.00  0.00    +0.000 S 
ATOM     14  H   UNL     1       1.130   4.528  21.231  0.00  0.00    +0.000 HD
ENDBRANCH   2  13
BRANCH   1  15
ATOM     15  C   UNL     1       2.527   5.040  18.800  0.00  0.00    +0.000 C 
BRANCH  15  17
ATOM     16  C   UNL     1       3.373   7.205  17.763  0.00  0.00    +0.000 C 
ATOM     17  C   UNL     1       3.066   6.465  19.063  0.00  0.00    +0.000 C 
ATOM     18  C   UNL     1       2.066   7.252  19.913  0.00  0.00    +0.000 C 
ENDBRANCH  15  17
ENDBRANCH   1  15
TORSDOF 4
ENDMDL
MODEL 4
REMARK VINA RESULT:      -6.3      1.641      2.242
REMARK  Name = 
REMARK  6 active torsions:
REMARK  status: ('A' for Active; 'I' for Inactive)
REMARK    1  A    between atoms: C_1  and  C_2
REMARK    2  A    between atoms: C_2  and  C_3
REMARK    3  A    between atoms: C_2  and  C_4
REMARK    4  A    between atoms: C_4  and  N_5
REMARK    5  A    between atoms: C_6  and  S_7
REMARK    6  A    between atoms: C_10  and  C_11
REMARK                            x       y       z     vdW  Elec       q    Type
REMARK                         _______ _______ _______ _____ _____    ______ ____
ROOT
ATOM      1  N   UNL     1       3.586   4.403  19.909  0.00  0.00    +0.000 N 
ATOM      2  C   UNL     1       3.111   3.177  20.306  0.00  0.00    +0.000 A 
ATOM      3  N   UNL     1       3.975   2.244  19.993  0.00  0.00    +0.000 NA
ATOM      4  N   UNL     1       5.047   2.847  19.397  0.00  0.00    +0.000 NA
ATOM      5  C   UNL     1       4.845   4.152  19.371  0.00  0.00    +0.000 A 
ENDROOT
BRANCH   5   6
ATOM      6  C   UNL     1       5.784   5.107  18.768  0.00  0.00    +0.000 A 
ATOM      7  C   UNL     1       5.460   5.677  17.523  0.00  0.00    +0.000 A 
ATOM      8  C   UNL     1       6.290   6.633  16.932  0.00  0.00    +0.000 A 
ATOM      9  C   UNL     1       7.447   7.031  17.588  0.00  0.00    +0.000 A 
ATOM     10  F   UNL     1       8.232   7.966  17.040  0.00  0.00    +0.000 F 
ATOM     11  C   UNL     1       7.805   6.466  18.805  0.00  0.00    +0.000 A 
ATOM     12  C   UNL     1       6.990   5.485  19.378  0.00  0.00    +0.000 A 
ENDBRANCH   5   6
BRANCH   2  13
ATOM     13  S   UNL     1       1.610   2.831  21.096  0.00  0.00    +0.000 S 
ATOM     14  H   UNL     1       0.926   2.181  20.151  0.00  0.00    +0.000 HD
ENDBRANCH   2  13
BRANCH   1  15
ATOM     15  C   UNL     1       2.925   5.686  20.007  0.00  0.00    +0.000 C 
BRANCH  15  17
ATOM     16  C   UNL     1       2.451   7.337  18.128  0.00  0.00    +0.000 C 
ATOM     17  C   UNL     1       2.003   6.052  18.822  0.00  0.00    +0.000 C 
ATOM     18  C   UNL     1       1.945   4.890  17.828  0.00  0.00    +0.000 C 
ENDBRANCH  15  17
ENDBRANCH   1  15
TORSDOF 4
ENDMDL
MODEL 5
REMARK VINA RESULT:      -6.3      0.963      1.724
REMARK  Name = 
REMARK  6 active torsions:
REMARK  status: ('A' for Active; 'I' for Inactive)
REMARK    1  A    between atoms: C_1  and  C_2
REMARK    2  A    between atoms: C_2  and  C_3
REMARK    3  A    between atoms: C_2  and  C_4
REMARK    4  A    between atoms: C_4  and  N_5
REMARK    5  A    between atoms: C_6  and  S_7
REMARK    6  A    between atoms: C_10  and  C_11
REMARK                            x       y       z     vdW  Elec       q    Type
REMARK                         _______ _______ _______ _____ _____    ______ ____
ROOT
ATOM      1  N   UNL     1       3.558   4.210  19.111  0.00  0.00    +0.000 N 
ATOM      2  C   UNL     1       2.728   3.328  19.759  0.00  0.00    +0.000 A 
ATOM      3  N   UNL     1       2.796   2.153  19.186  0.00  0.00    +0.000 NA
ATOM      4  N   UNL     1       3.691   2.238  18.157  0.00  0.00    +0.000 NA
ATOM      5  C   UNL     1       4.187   3.462  18.120  0.00  0.00    +0.000 A 
ENDROOT
BRANCH   5   6
ATOM      6  C   UNL     1       5.155   3.916  17.113  0.00  0.00    +0.000 A 
ATOM      7  C   UNL     1       4.745   3.994  15.770  0.00  0.00    +0.000 A 
ATOM      8  C   UNL     1       5.608   4.473  14.781  0.00  0.00    +0.000 A 
ATOM      9  C   UNL     1       6.886   4.884  15.132  0.00  0.00    +0.000 A 
ATOM     10  F   UNL     1       7.708   5.369  14.194  0.00  0.00    +0.000 F 
ATOM     11  C   UNL     1       7.327   4.792  16.446  0.00  0.00    +0.000 A 
ATOM     12  C   UNL     1       6.472   4.282  17.428  0.00  0.00    +0.000 A 
ENDBRANCH   5   6
BRANCH   2  13
ATOM     13  S   UNL     1       1.710   3.644  21.123  0.00  0.00    +0.000 S 
ATOM     14  H   UNL     1       2.362   3.041  22.119  0.00  0.00    +0.000 HD
ENDBRANCH   2  13
BRANCH   1  15
ATOM     15  C   UNL     1       3.738   5.621  19.378  0.00  0.00    +0.000 C 
BRANCH  15  17
ATOM     16  C   UNL     1       2.193   7.641  19.294  0.00  0.00    +0.000 C 
ATOM     17  C   UNL     1       2.925   6.578  18.478  0.00  0.00    +0.000 C 
ATOM     18  C   UNL     1       3.845   7.226  17.441  0.00  0.00    +0.000 C 
ENDBRANCH  15  17
ENDBRANCH   1  15
TORSDOF 4
ENDMDL
MODEL 6
REMARK VINA RESULT:      -6.3      1.700      2.139
REMARK  Name = 
REMARK  6 active torsions:
REMARK  status: ('A' for Active; 'I' for Inactive)
REMARK    1  A    between atoms: C_1  and  C_2
REMARK    2  A    between atoms: C_2  and  C_3
REMARK    3  A    between atoms: C_2  and  C_4
REMARK    4  A    between atoms: C_4  and  N_5
REMARK    5  A    between atoms: C_6  and  S_7
REMARK    6  A    between atoms: C_10  and  C_11
REMARK                            x       y       z     vdW  Elec       q    Type
REMARK                         _______ _______ _______ _____ _____    ______ ____
ROOT
ATOM      1  N   UNL     1       3.293   4.384  19.103  0.00  0.00    +0.000 N 
ATOM      2  C   UNL     1       2.837   3.222  19.677  0.00  0.00    +0.000 A 
ATOM      3  N   UNL     1       3.850   2.442  19.961  0.00  0.00    +0.000 NA
ATOM      4  N   UNL     1       4.996   3.090  19.593  0.00  0.00    +0.000 NA
ATOM      5  C   UNL     1       4.680   4.277  19.106  0.00  0.00    +0.000 A 
ENDROOT
BRANCH   5   6
ATOM      6  C   UNL     1       5.668   5.228  18.582  0.00  0.00    +0.000 A 
ATOM      7  C   UNL     1       5.363   5.938  17.406  0.00  0.00    +0.000 A 
ATOM      8  C   UNL     1       6.242   6.897  16.896  0.00  0.00    +0.000 A 
ATOM      9  C   UNL     1       7.432   7.155  17.563  0.00  0.00    +0.000 A 
ATOM     10  F   UNL     1       8.265   8.091  17.094  0.00  0.00    +0.000 F 
ATOM     11  C   UNL     1       7.771   6.450  18.710  0.00  0.00    +0.000 A 
ATOM     12  C   UNL     1       6.904   5.468  19.201  0.00  0.00    +0.000 A 
ENDBRANCH   5   6
BRANCH   2  13
ATOM     13  S   UNL     1       1.197   2.776  20.001  0.00  0.00    +0.000 S 
ATOM     14  H   UNL     1       0.949   1.868  19.055  0.00  0.00    +0.000 HD
ENDBRANCH   2  13
BRANCH   1  15
ATOM     15  C   UNL     1       2.510   5.485  18.585  0.00  0.00    +0.000 C 
BRANCH  15  17
ATOM     16  C   UNL     1       2.264   8.019  18.568  0.00  0.00    +0.000 C 
ATOM     17  C   UNL     1       2.558   6.786  19.420  0.00  0.00    +0.000 C 
ATOM     18  C   UNL     1       1.580   6.689  20.593  0.00  0.00    +0.000 C 
ENDBRANCH  15  17
ENDBRANCH   1  15
TORSDOF 4
ENDMDL
MODEL 7
REMARK VINA RESULT:      -6.2      3.713      5.233
REMARK  Name = 
REMARK  6 active torsions:
REMARK  status: ('A' for Active; 'I' for Inactive)
REMARK    1  A    between atoms: C_1  and  C_2
REMARK    2  A    between atoms: C_2  and  C_3
REMARK    3  A    between atoms: C_2  and  C_4
REMARK    4  A    between atoms: C_4  and  N_5
REMARK    5  A    between atoms: C_6  and  S_7
REMARK    6  A    between atoms: C_10  and  C_11
REMARK                            x       y       z     vdW  Elec       q    Type
REMARK                         _______ _______ _______ _____ _____    ______ ____
ROOT
ATOM      1  N   UNL     1       4.118   5.236  17.742  0.00  0.00    +0.000 N 
ATOM      2  C   UNL     1       4.808   5.124  16.560  0.00  0.00    +0.000 A 
ATOM      3  N   UNL     1       4.769   3.885  16.139  0.00  0.00    +0.000 NA
ATOM      4  N   UNL     1       4.031   3.161  17.034  0.00  0.00    +0.000 NA
ATOM      5  C   UNL     1       3.601   3.967  17.988  0.00  0.00    +0.000 A 
ENDROOT
BRANCH   5   6
ATOM      6  C   UNL     1       2.805   3.515  19.136  0.00  0.00    +0.000 A 
ATOM      7  C   UNL     1       3.476   3.026  20.271  0.00  0.00    +0.000 A 
ATOM      8  C   UNL     1       2.770   2.636  21.412  0.00  0.00    +0.000 A 
ATOM      9  C   UNL     1       1.386   2.740  21.426  0.00  0.00    +0.000 A 
ATOM     10  F   UNL     1       0.706   2.394  22.525  0.00  0.00    +0.000 F 
ATOM     11  C   UNL     1       0.696   3.194  20.310  0.00  0.00    +0.000 A 
ATOM     12  C   UNL     1       1.403   3.552  19.158  0.00  0.00    +0.000 A 
ENDBRANCH   5   6
BRANCH   2  13
ATOM     13  S   UNL     1       5.638   6.375  15.698  0.00  0.00    +0.000 S 
ATOM     14  H   UNL     1       6.824   5.818  15.445  0.00  0.00    +0.000 HD
ENDBRANCH   2  13
BRANCH   1  15
ATOM     15  C   UNL     1       3.964   6.410  18.573  0.00  0.00    +0.000 C 
BRANCH  15  17
ATOM     16  C   UNL     1       2.043   7.199  20.045  0.00  0.00    +0.000 C 
ATOM     17  C   UNL     1       2.543   7.016  18.614  0.00  0.00    +0.000 C 
ATOM     18  C   UNL     1       2.520   8.345  17.856  0.00  0.00    +0.000 C 
ENDBRANCH  15  17
ENDBRANCH   1  15
TORSDOF 4
ENDMDL
MODEL 8
REMARK VINA RESULT:      -6.2      1.769      1.913
REMARK  Name = 
REMARK  6 active torsions:
REMARK  status: ('A' for Active; 'I' for Inactive)
REMARK    1  A    between atoms: C_1  and  C_2
REMARK    2  A    between atoms: C_2  and  C_3
REMARK    3  A    between atoms: C_2  and  C_4
REMARK    4  A    between atoms: C_4  and  N_5
REMARK    5  A    between atoms: C_6  and  S_7
REMARK    6  A    between atoms: C_10  and  C_11
REMARK                            x       y       z     vdW  Elec       q    Type
REMARK                         _______ _______ _______ _____ _____    ______ ____
ROOT
ATOM      1  N   UNL     1       3.419   4.273  19.159  0.00  0.00    +0.000 N 
ATOM      2  C   UNL     1       3.078   3.059  19.705  0.00  0.00    +0.000 A 
ATOM      3  N   UNL     1       4.159   2.358  19.937  0.00  0.00    +0.000 NA
ATOM      4  N   UNL     1       5.237   3.111  19.562  0.00  0.00    +0.000 NA
ATOM      5  C   UNL     1       4.810   4.282  19.124  0.00  0.00    +0.000 A 
ENDROOT
BRANCH   5   6
ATOM      6  C   UNL     1       5.701   5.329  18.608  0.00  0.00    +0.000 A 
ATOM      7  C   UNL     1       6.934   5.543  19.250  0.00  0.00    +0.000 A 
ATOM      8  C   UNL     1       7.844   6.486  18.766  0.00  0.00    +0.000 A 
ATOM      9  C   UNL     1       7.527   7.219  17.630  0.00  0.00    +0.000 A 
ATOM     10  F   UNL     1       8.405   8.104  17.145  0.00  0.00    +0.000 F 
ATOM     11  C   UNL     1       6.305   7.048  16.992  0.00  0.00    +0.000 A 
ATOM     12  C   UNL     1       5.383   6.126  17.498  0.00  0.00    +0.000 A 
ENDBRANCH   5   6
BRANCH   2  13
ATOM     13  S   UNL     1       1.490   2.467  20.055  0.00  0.00    +0.000 S 
ATOM     14  H   UNL     1       1.128   3.206  21.106  0.00  0.00    +0.000 HD
ENDBRANCH   2  13
BRANCH   1  15
ATOM     15  C   UNL     1       2.533   5.320  18.699  0.00  0.00    +0.000 C 
BRANCH  15  17
ATOM     16  C   UNL     1       2.281   7.853  18.677  0.00  0.00    +0.000 C 
ATOM     17  C   UNL     1       2.548   6.619  19.537  0.00  0.00    +0.000 C 
ATOM     18  C   UNL     1       1.528   6.518  20.673  0.00  0.00    +0.000 C 
ENDBRANCH  15  17
ENDBRANCH   1  15
TORSDOF 4
ENDMDL
MODEL 9
REMARK VINA RESULT:      -6.1      1.631      1.912
REMARK  Name = 
REMARK  6 active torsions:
REMARK  status: ('A' for Active; 'I' for Inactive)
REMARK    1  A    between atoms: C_1  and  C_2
REMARK    2  A    between atoms: C_2  and  C_3
REMARK    3  A    between atoms: C_2  and  C_4
REMARK    4  A    between atoms: C_4  and  N_5
REMARK    5  A    between atoms: C_6  and  S_7
REMARK    6  A    between atoms: C_10  and  C_11
REMARK                            x       y       z     vdW  Elec       q    Type
REMARK                         _______ _______ _______ _____ _____    ______ ____
ROOT
ATOM      1  N   UNL     1       3.552   4.383  19.954  0.00  0.00    +0.000 N 
ATOM      2  C   UNL     1       3.151   3.139  20.375  0.00  0.00    +0.000 A 
ATOM      3  N   UNL     1       4.041   2.245  20.027  0.00  0.00    +0.000 NA
ATOM      4  N   UNL     1       5.058   2.893  19.383  0.00  0.00    +0.000 NA
ATOM      5  C   UNL     1       4.796   4.187  19.362  0.00  0.00    +0.000 A 
ENDROOT
BRANCH   5   6
ATOM      6  C   UNL     1       5.664   5.181  18.716  0.00  0.00    +0.000 A 
ATOM      7  C   UNL     1       6.865   5.543  19.354  0.00  0.00    +0.000 A 
ATOM      8  C   UNL     1       7.754   6.440  18.757  0.00  0.00    +0.000 A 
ATOM      9  C   UNL     1       7.450   6.976  17.513  0.00  0.00    +0.000 A 
ATOM     10  F   UNL     1       8.311   7.814  16.924  0.00  0.00    +0.000 F 
ATOM     11  C   UNL     1       6.260   6.656  16.873  0.00  0.00    +0.000 A 
ATOM     12  C   UNL     1       5.357   5.784  17.488  0.00  0.00    +0.000 A 
ENDBRANCH   5   6
BRANCH   2  13
ATOM     13  S   UNL     1       1.703   2.730  21.230  0.00  0.00    +0.000 S 
ATOM     14  H   UNL     1       0.745   3.153  20.402  0.00  0.00    +0.000 HD
ENDBRANCH   2  13
BRANCH   1  15
ATOM     15  C   UNL     1       2.839   5.636  20.077  0.00  0.00    +0.000 C 
BRANCH  15  17
ATOM     16  C   UNL     1       2.396   7.304  18.206  0.00  0.00    +0.000 C 
ATOM     17  C   UNL     1       1.939   6.011  18.877  0.00  0.00    +0.000 C 
ATOM     18  C   UNL     1       1.907   4.858  17.871  0.00  0.00    +0.000 C 
ENDBRANCH  15  17
ENDBRANCH   1  15
TORSDOF 4
ENDMDL
