MODEL 1
REMARK VINA RESULT:      -5.7      0.000      0.000
REMARK  Name = 
REMARK  20 active torsions:
REMARK  status: ('A' for Active; 'I' for Inactive)
REMARK    1  A    between atoms: C_1  and  C_2
REMARK    2  A    between atoms: C_2  and  C_3
REMARK    3  A    between atoms: C_3  and  C_4
REMARK    4  A    between atoms: C_4  and  C_5
REMARK    5  A    between atoms: C_5  and  C_6
REMARK    6  A    between atoms: C_6  and  C_7
REMARK    7  A    between atoms: C_7  and  C_8
REMARK    8  A    between atoms: C_8  and  C_9
REMARK    9  A    between atoms: C_10  and  C_11
REMARK   10  A    between atoms: C_11  and  C_12
REMARK   11  A    between atoms: C_12  and  C_13
REMARK   12  A    between atoms: C_13  and  C_14
REMARK   13  A    between atoms: C_14  and  C_15
REMARK   14  A    between atoms: C_15  and  C_16
REMARK   15  A    between atoms: C_16  and  C_17
REMARK   16  A    between atoms: C_17  and  C_18
REMARK   17  A    between atoms: C_18  and  O_19
REMARK   18  A    between atoms: O_19  and  C_20
REMARK   19  A    between atoms: C_20  and  C_21
REMARK   20  A    between atoms: C_23  and  O_24
REMARK                            x       y       z     vdW  Elec       q    Type
REMARK                         _______ _______ _______ _____ _____    ______ ____
ROOT
ATOM      1  C   UNL     1       1.050   3.401  20.759  0.00  0.00    +0.000 C 
ENDROOT
BRANCH   1   2
ATOM      2  C   UNL     1       1.629   2.225  19.984  0.00  0.00    +0.000 C 
BRANCH   2   3
ATOM      3  C   UNL     1       1.147   2.212  18.533  0.00  0.00    +0.000 C 
BRANCH   3   4
ATOM      4  C   UNL     1       2.213   2.602  17.506  0.00  0.00    +0.000 C 
BRANCH   4   6
ATOM      5  C   UNL     1       4.724   2.793  17.378  0.00  0.00    +0.000 C 
ATOM      6  C   UNL     1       3.614   2.426  18.031  0.00  0.00    +0.000 C 
BRANCH   5   7
ATOM      7  C   UNL     1       4.684   3.459  16.041  0.00  0.00    +0.000 C 
BRANCH   7   8
ATOM      8  C   UNL     1       6.064   3.822  15.520  0.00  0.00    +0.000 C 
BRANCH   8   9
ATOM      9  C   UNL     1       5.909   4.658  14.255  0.00  0.00    +0.000 C 
BRANCH   9  10
ATOM     10  C   UNL     1       7.175   4.598  13.418  0.00  0.00    +0.000 C 
BRANCH  10  11
ATOM     11  C   UNL     1       6.891   3.961  12.063  0.00  0.00    +0.000 C 
BRANCH  11  12
ATOM     12  C   UNL     1       5.594   3.165  12.120  0.00  0.00    +0.000 C 
BRANCH  12  14
ATOM     13  C   UNL     1       7.150   1.501  11.084  0.00  0.00    +0.000 C 
ATOM     14  C   UNL     1       5.697   1.884  11.302  0.00  0.00    +0.000 C 
ENDBRANCH  12  14
ENDBRANCH  11  12
ENDBRANCH  10  11
ENDBRANCH   9  10
ENDBRANCH   8   9
ENDBRANCH   7   8
ENDBRANCH   5   7
ENDBRANCH   4   6
ENDBRANCH   3   4
ENDBRANCH   2   3
ENDBRANCH   1   2
BRANCH   1  15
ATOM     15  C   UNL     1       2.134   4.273  21.376  0.00  0.00    +0.000 C 
BRANCH  15  16
ATOM     16  C   UNL     1       2.944   4.918  20.258  0.00  0.00    +0.000 C 
BRANCH  16  17
ATOM     17  C   UNL     1       2.577   6.380  20.068  0.00  0.00    +0.000 C 
BRANCH  17  18
ATOM     18  C   UNL     1       2.294   6.652  18.599  0.00  0.00    +0.000 C 
BRANCH  18  19
ATOM     19  O   UNL     1       3.342   6.088  17.820  0.00  0.00    +0.000 OA
BRANCH  19  20
ATOM     20  C   UNL     1       4.301   7.082  17.483  0.00  0.00    +0.000 C 
BRANCH  20  21
ATOM     21  C   UNL     1       5.682   6.437  17.470  0.00  0.00    +0.000 C 
ATOM     22  C   UNL     1       5.999   5.734  18.788  0.00  0.00    +0.000 C 
ATOM     23  C   UNL     1       7.509   5.764  18.852  0.00  0.00    +0.000 C 
ATOM     24  C   UNL     1       7.880   7.044  18.096  0.00  0.00    +0.000 C 
ATOM     25  N   UNL     1       6.714   7.464  17.288  0.00  0.00    +0.000 NA
ATOM     26  H   UNL     1       6.995   7.512  16.305  0.00  0.00    +0.000 HD
BRANCH  23  27
ATOM     27  O   UNL     1       8.066   4.573  18.296  0.00  0.00    +0.000 OA
ATOM     28  H   UNL     1       8.570   4.066  18.952  0.00  0.00    +0.000 HD
ENDBRANCH  23  27
ENDBRANCH  20  21
ENDBRANCH  19  20
ENDBRANCH  18  19
ENDBRANCH  17  18
ENDBRANCH  16  17
ENDBRANCH  15  16
ENDBRANCH   1  15
TORSDOF 19
ENDMDL
MODEL 2
REMARK VINA RESULT:      -5.7      5.282      8.259
REMARK  Name = 
REMARK  20 active torsions:
REMARK  status: ('A' for Active; 'I' for Inactive)
REMARK    1  A    between atoms: C_1  and  C_2
REMARK    2  A    between atoms: C_2  and  C_3
REMARK    3  A    between atoms: C_3  and  C_4
REMARK    4  A    between atoms: C_4  and  C_5
REMARK    5  A    between atoms: C_5  and  C_6
REMARK    6  A    between atoms: C_6  and  C_7
REMARK    7  A    between atoms: C_7  and  C_8
REMARK    8  A    between atoms: C_8  and  C_9
REMARK    9  A    between atoms: C_10  and  C_11
REMARK   10  A    between atoms: C_11  and  C_12
REMARK   11  A    between atoms: C_12  and  C_13
REMARK   12  A    between atoms: C_13  and  C_14
REMARK   13  A    between atoms: C_14  and  C_15
REMARK   14  A    between atoms: C_15  and  C_16
REMARK   15  A    between atoms: C_16  and  C_17
REMARK   16  A    between atoms: C_17  and  C_18
REMARK   17  A    between atoms: C_18  and  O_19
REMARK   18  A    between atoms: O_19  and  C_20
REMARK   19  A    between atoms: C_20  and  C_21
REMARK   20  A    between atoms: C_23  and  O_24
REMARK                            x       y       z     vdW  Elec       q    Type
REMARK                         _______ _______ _______ _____ _____    ______ ____
ROOT
ATOM      1  C   UNL     1       7.779   7.115  18.254  0.00  0.00    +0.000 C 
ENDROOT
BRANCH   1   2
ATOM      2  C   UNL     1       7.155   6.186  17.220  0.00  0.00    +0.000 C 
BRANCH   2   3
ATOM      3  C   UNL     1       6.993   4.765  17.762  0.00  0.00    +0.000 C 
BRANCH   3   4
ATOM      4  C   UNL     1       5.597   4.447  18.305  0.00  0.00    +0.000 C 
BRANCH   4   6
ATOM      5  C   UNL     1       3.708   2.981  17.505  0.00  0.00    +0.000 C 
ATOM      6  C   UNL     1       4.689   3.859  17.257  0.00  0.00    +0.000 C 
BRANCH   5   7
ATOM      7  C   UNL     1       3.386   2.507  18.885  0.00  0.00    +0.000 C 
BRANCH   7   8
ATOM      8  C   UNL     1       1.946   2.048  19.031  0.00  0.00    +0.000 C 
BRANCH   8   9
ATOM      9  C   UNL     1       1.160   3.122  19.774  0.00  0.00    +0.000 C 
BRANCH   9  10
ATOM     10  C   UNL     1       2.073   3.907  20.699  0.00  0.00    +0.000 C 
BRANCH  10  11
ATOM     11  C   UNL     1       1.830   5.403  20.548  0.00  0.00    +0.000 C 
BRANCH  11  12
ATOM     12  C   UNL     1       2.079   5.831  19.109  0.00  0.00    +0.000 C 
BRANCH  12  14
ATOM     13  C   UNL     1       3.411   7.383  17.664  0.00  0.00    +0.000 C 
ATOM     14  C   UNL     1       2.829   7.157  19.049  0.00  0.00    +0.000 C 
ENDBRANCH  12  14
ENDBRANCH  11  12
ENDBRANCH  10  11
ENDBRANCH   9  10
ENDBRANCH   8   9
ENDBRANCH   7   8
ENDBRANCH   5   7
ENDBRANCH   4   6
ENDBRANCH   3   4
ENDBRANCH   2   3
ENDBRANCH   1   2
BRANCH   1  15
ATOM     15  C   UNL     1       7.967   8.526  17.717  0.00  0.00    +0.000 C 
BRANCH  15  16
ATOM     16  C   UNL     1       8.759   9.339  18.734  0.00  0.00    +0.000 C 
BRANCH  16  17
ATOM     17  C   UNL     1       9.077  10.732  18.216  0.00  0.00    +0.000 C 
BRANCH  17  18
ATOM     18  C   UNL     1      10.375  11.226  18.834  0.00  0.00    +0.000 C 
BRANCH  18  19
ATOM     19  O   UNL     1      10.370  12.648  18.834  0.00  0.00    +0.000 OA
BRANCH  19  20
ATOM     20  C   UNL     1       9.379  13.141  17.942  0.00  0.00    +0.000 C 
BRANCH  20  21
ATOM     21  C   UNL     1       9.442  14.664  17.943  0.00  0.00    +0.000 C 
ATOM     22  C   UNL     1       9.662  15.228  19.345  0.00  0.00    +0.000 C 
ATOM     23  C   UNL     1       9.052  16.610  19.271  0.00  0.00    +0.000 C 
ATOM     24  C   UNL     1       7.930  16.457  18.239  0.00  0.00    +0.000 C 
ATOM     25  N   UNL     1       8.170  15.220  17.466  0.00  0.00    +0.000 NA
ATOM     26  H   UNL     1       8.239  15.460  16.474  0.00  0.00    +0.000 HD
BRANCH  23  27
ATOM     27  O   UNL     1      10.038  17.584  18.925  0.00  0.00    +0.000 OA
ATOM     28  H   UNL     1       9.645  18.366  18.507  0.00  0.00    +0.000 HD
ENDBRANCH  23  27
ENDBRANCH  20  21
ENDBRANCH  19  20
ENDBRANCH  18  19
ENDBRANCH  17  18
ENDBRANCH  16  17
ENDBRANCH  15  16
ENDBRANCH   1  15
TORSDOF 19
ENDMDL
MODEL 3
REMARK VINA RESULT:      -5.7      4.583      7.647
REMARK  Name = 
REMARK  20 active torsions:
REMARK  status: ('A' for Active; 'I' for Inactive)
REMARK    1  A    between atoms: C_1  and  C_2
REMARK    2  A    between atoms: C_2  and  C_3
REMARK    3  A    between atoms: C_3  and  C_4
REMARK    4  A    between atoms: C_4  and  C_5
REMARK    5  A    between atoms: C_5  and  C_6
REMARK    6  A    between atoms: C_6  and  C_7
REMARK    7  A    between atoms: C_7  and  C_8
REMARK    8  A    between atoms: C_8  and  C_9
REMARK    9  A    between atoms: C_10  and  C_11
REMARK   10  A    between atoms: C_11  and  C_12
REMARK   11  A    between atoms: C_12  and  C_13
REMARK   12  A    between atoms: C_13  and  C_14
REMARK   13  A    between atoms: C_14  and  C_15
REMARK   14  A    between atoms: C_15  and  C_16
REMARK   15  A    between atoms: C_16  and  C_17
REMARK   16  A    between atoms: C_17  and  C_18
REMARK   17  A    between atoms: C_18  and  O_19
REMARK   18  A    between atoms: O_19  and  C_20
REMARK   19  A    between atoms: C_20  and  C_21
REMARK   20  A    between atoms: C_23  and  O_24
REMARK                            x       y       z     vdW  Elec       q    Type
REMARK                         _______ _______ _______ _____ _____    ______ ____
ROOT
ATOM      1  C   UNL     1       7.544   6.649  18.568  0.00  0.00    +0.000 C 
ENDROOT
BRANCH   1   2
ATOM      2  C   UNL     1       7.960   5.209  18.294  0.00  0.00    +0.000 C 
BRANCH   2   3
ATOM      3  C   UNL     1       7.214   4.624  17.095  0.00  0.00    +0.000 C 
BRANCH   3   4
ATOM      4  C   UNL     1       5.739   4.307  17.357  0.00  0.00    +0.000 C 
BRANCH   4   6
ATOM      5  C   UNL     1       3.974   6.102  17.220  0.00  0.00    +0.000 C 
ATOM      6  C   UNL     1       4.809   5.239  16.627  0.00  0.00    +0.000 C 
BRANCH   5   7
ATOM      7  C   UNL     1       3.900   6.253  18.705  0.00  0.00    +0.000 C 
BRANCH   7   8
ATOM      8  C   UNL     1       2.489   6.099  19.244  0.00  0.00    +0.000 C 
BRANCH   8   9
ATOM      9  C   UNL     1       2.498   5.060  20.359  0.00  0.00    +0.000 C 
BRANCH   9  10
ATOM     10  C   UNL     1       1.105   4.493  20.571  0.00  0.00    +0.000 C 
BRANCH  10  11
ATOM     11  C   UNL     1       1.176   3.010  20.909  0.00  0.00    +0.000 C 
BRANCH  11  12
ATOM     12  C   UNL     1       2.049   2.283  19.895  0.00  0.00    +0.000 C 
BRANCH  12  14
ATOM     13  C   UNL     1       2.556   2.505  17.454  0.00  0.00    +0.000 C 
ATOM     14  C   UNL     1       1.457   2.372  18.494  0.00  0.00    +0.000 C 
ENDBRANCH  12  14
ENDBRANCH  11  12
ENDBRANCH  10  11
ENDBRANCH   9  10
ENDBRANCH   8   9
ENDBRANCH   7   8
ENDBRANCH   5   7
ENDBRANCH   4   6
ENDBRANCH   3   4
ENDBRANCH   2   3
ENDBRANCH   1   2
BRANCH   1  15
ATOM     15  C   UNL     1       7.689   7.532  17.337  0.00  0.00    +0.000 C 
BRANCH  15  16
ATOM     16  C   UNL     1       7.903   8.972  17.785  0.00  0.00    +0.000 C 
BRANCH  16  17
ATOM     17  C   UNL     1       9.045   9.088  18.782  0.00  0.00    +0.000 C 
BRANCH  17  18
ATOM     18  C   UNL     1       9.179  10.530  19.244  0.00  0.00    +0.000 C 
BRANCH  18  19
ATOM     19  O   UNL     1       9.134  10.560  20.666  0.00  0.00    +0.000 OA
BRANCH  19  20
ATOM     20  C   UNL     1       9.411  11.869  21.144  0.00  0.00    +0.000 C 
BRANCH  20  21
ATOM     21  C   UNL     1       8.413  12.201  22.248  0.00  0.00    +0.000 C 
ATOM     22  C   UNL     1       8.675  13.572  22.865  0.00  0.00    +0.000 C 
ATOM     23  C   UNL     1       8.107  13.447  24.261  0.00  0.00    +0.000 C 
ATOM     24  C   UNL     1       8.290  11.964  24.597  0.00  0.00    +0.000 C 
ATOM     25  N   UNL     1       8.526  11.224  23.338  0.00  0.00    +0.000 NA
ATOM     26  H   UNL     1       7.810  10.501  23.242  0.00  0.00    +0.000 HD
BRANCH  23  27
ATOM     27  O   UNL     1       6.751  13.894  24.300  0.00  0.00    +0.000 OA
ATOM     28  H   UNL     1       6.239  13.568  23.544  0.00  0.00    +0.000 HD
ENDBRANCH  23  27
ENDBRANCH  20  21
ENDBRANCH  19  20
ENDBRANCH  18  19
ENDBRANCH  17  18
ENDBRANCH  16  17
ENDBRANCH  15  16
ENDBRANCH   1  15
TORSDOF 19
ENDMDL
MODEL 4
REMARK VINA RESULT:      -5.7      4.026      7.356
REMARK  Name = 
REMARK  20 active torsions:
REMARK  status: ('A' for Active; 'I' for Inactive)
REMARK    1  A    between atoms: C_1  and  C_2
REMARK    2  A    between atoms: C_2  and  C_3
REMARK    3  A    between atoms: C_3  and  C_4
REMARK    4  A    between atoms: C_4  and  C_5
REMARK    5  A    between atoms: C_5  and  C_6
REMARK    6  A    between atoms: C_6  and  C_7
REMARK    7  A    between atoms: C_7  and  C_8
REMARK    8  A    between atoms: C_8  and  C_9
REMARK    9  A    between atoms: C_10  and  C_11
REMARK   10  A    between atoms: C_11  and  C_12
REMARK   11  A    between atoms: C_12  and  C_13
REMARK   12  A    between atoms: C_13  and  C_14
REMARK   13  A    between atoms: C_14  and  C_15
REMARK   14  A    between atoms: C_15  and  C_16
REMARK   15  A    between atoms: C_16  and  C_17
REMARK   16  A    between atoms: C_17  and  C_18
REMARK   17  A    between atoms: C_18  and  O_19
REMARK   18  A    between atoms: O_19  and  C_20
REMARK   19  A    between atoms: C_20  and  C_21
REMARK   20  A    between atoms: C_23  and  O_24
REMARK                            x       y       z     vdW  Elec       q    Type
REMARK                         _______ _______ _______ _____ _____    ______ ____
ROOT
ATOM      1  C   UNL     1       7.237   5.035  18.141  0.00  0.00    +0.000 C 
ENDROOT
BRANCH   1   2
ATOM      2  C   UNL     1       7.651   4.676  16.720  0.00  0.00    +0.000 C 
BRANCH   2   3
ATOM      3  C   UNL     1       6.550   3.906  15.988  0.00  0.00    +0.000 C 
BRANCH   3   4
ATOM      4  C   UNL     1       5.246   4.685  15.802  0.00  0.00    +0.000 C 
BRANCH   4   6
ATOM      5  C   UNL     1       3.395   4.775  17.512  0.00  0.00    +0.000 C 
ATOM      6  C   UNL     1       4.107   4.104  16.597  0.00  0.00    +0.000 C 
BRANCH   5   7
ATOM      7  C   UNL     1       3.645   6.215  17.823  0.00  0.00    +0.000 C 
BRANCH   7   8
ATOM      8  C   UNL     1       2.576   6.821  18.715  0.00  0.00    +0.000 C 
BRANCH   8   9
ATOM      9  C   UNL     1       2.758   6.290  20.132  0.00  0.00    +0.000 C 
BRANCH   9  10
ATOM     10  C   UNL     1       1.416   5.921  20.740  0.00  0.00    +0.000 C 
BRANCH  10  11
ATOM     11  C   UNL     1       1.053   4.482  20.400  0.00  0.00    +0.000 C 
BRANCH  11  12
ATOM     12  C   UNL     1       1.861   3.520  21.260  0.00  0.00    +0.000 C 
BRANCH  12  14
ATOM     13  C   UNL     1       1.890   1.986  19.283  0.00  0.00    +0.000 C 
ATOM     14  C   UNL     1       2.716   2.596  20.401  0.00  0.00    +0.000 C 
ENDBRANCH  12  14
ENDBRANCH  11  12
ENDBRANCH  10  11
ENDBRANCH   9  10
ENDBRANCH   8   9
ENDBRANCH   7   8
ENDBRANCH   5   7
ENDBRANCH   4   6
ENDBRANCH   3   4
ENDBRANCH   2   3
ENDBRANCH   1   2
BRANCH   1  15
ATOM     15  C   UNL     1       7.647   6.451  18.518  0.00  0.00    +0.000 C 
BRANCH  15  16
ATOM     16  C   UNL     1       7.505   7.348  17.295  0.00  0.00    +0.000 C 
BRANCH  16  17
ATOM     17  C   UNL     1       7.718   8.812  17.643  0.00  0.00    +0.000 C 
BRANCH  17  18
ATOM     18  C   UNL     1       8.726   8.930  18.775  0.00  0.00    +0.000 C 
BRANCH  18  19
ATOM     19  O   UNL     1       9.534  10.078  18.551  0.00  0.00    +0.000 OA
BRANCH  19  20
ATOM     20  C   UNL     1       9.586  10.886  19.719  0.00  0.00    +0.000 C 
BRANCH  20  21
ATOM     21  C   UNL     1      10.067  12.277  19.325  0.00  0.00    +0.000 C 
ATOM     22  C   UNL     1       8.909  13.202  18.958  0.00  0.00    +0.000 C 
ATOM     23  C   UNL     1       9.538  14.201  18.013  0.00  0.00    +0.000 C 
ATOM     24  C   UNL     1      10.653  13.403  17.330  0.00  0.00    +0.000 C 
ATOM     25  N   UNL     1      10.926  12.194  18.137  0.00  0.00    +0.000 NA
ATOM     26  H   UNL     1      11.911  12.196  18.411  0.00  0.00    +0.000 HD
BRANCH  23  27
ATOM     27  O   UNL     1       9.993  15.355  18.721  0.00  0.00    +0.000 OA
ATOM     28  H   UNL     1      10.200  15.155  19.647  0.00  0.00    +0.000 HD
ENDBRANCH  23  27
ENDBRANCH  20  21
ENDBRANCH  19  20
ENDBRANCH  18  19
ENDBRANCH  17  18
ENDBRANCH  16  17
ENDBRANCH  15  16
ENDBRANCH   1  15
TORSDOF 19
ENDMDL
MODEL 5
REMARK VINA RESULT:      -5.6      2.585      4.360
REMARK  Name = 
REMARK  20 active torsions:
REMARK  status: ('A' for Active; 'I' for Inactive)
REMARK    1  A    between atoms: C_1  and  C_2
REMARK    2  A    between atoms: C_2  and  C_3
REMARK    3  A    between atoms: C_3  and  C_4
REMARK    4  A    between atoms: C_4  and  C_5
REMARK    5  A    between atoms: C_5  and  C_6
REMARK    6  A    between atoms: C_6  and  C_7
REMARK    7  A    between atoms: C_7  and  C_8
REMARK    8  A    between atoms: C_8  and  C_9
REMARK    9  A    between atoms: C_10  and  C_11
REMARK   10  A    between atoms: C_11  and  C_12
REMARK   11  A    between atoms: C_12  and  C_13
REMARK   12  A    between atoms: C_13  and  C_14
REMARK   13  A    between atoms: C_14  and  C_15
REMARK   14  A    between atoms: C_15  and  C_16
REMARK   15  A    between atoms: C_16  and  C_17
REMARK   16  A    between atoms: C_17  and  C_18
REMARK   17  A    between atoms: C_18  and  O_19
REMARK   18  A    between atoms: O_19  and  C_20
REMARK   19  A    between atoms: C_20  and  C_21
REMARK   20  A    between atoms: C_23  and  O_24
REMARK                            x       y       z     vdW  Elec       q    Type
REMARK                         _______ _______ _______ _____ _____    ______ ____
ROOT
ATOM      1  C   UNL     1       3.478   7.448  17.382  0.00  0.00    +0.000 C 
ENDROOT
BRANCH   1   2
ATOM      2  C   UNL     1       4.361   6.236  17.649  0.00  0.00    +0.000 C 
BRANCH   2   3
ATOM      3  C   UNL     1       3.728   4.949  17.119  0.00  0.00    +0.000 C 
BRANCH   3   4
ATOM      4  C   UNL     1       4.698   4.021  16.382  0.00  0.00    +0.000 C 
BRANCH   4   6
ATOM      5  C   UNL     1       7.080   4.767  16.026  0.00  0.00    +0.000 C 
ATOM      6  C   UNL     1       6.129   4.230  16.802  0.00  0.00    +0.000 C 
BRANCH   5   7
ATOM      7  C   UNL     1       6.804   5.255  14.641  0.00  0.00    +0.000 C 
BRANCH   7   8
ATOM      8  C   UNL     1       6.897   4.155  13.598  0.00  0.00    +0.000 C 
BRANCH   8   9
ATOM      9  C   UNL     1       5.488   3.746  13.187  0.00  0.00    +0.000 C 
BRANCH   9  10
ATOM     10  C   UNL     1       5.502   3.093  11.816  0.00  0.00    +0.000 C 
BRANCH  10  11
ATOM     11  C   UNL     1       4.090   3.007  11.250  0.00  0.00    +0.000 C 
BRANCH  11  12
ATOM     12  C   UNL     1       3.930   3.983  10.092  0.00  0.00    +0.000 C 
BRANCH  12  14
ATOM     13  C   UNL     1       2.072   5.155   8.892  0.00  0.00    +0.000 C 
ATOM     14  C   UNL     1       2.574   3.821   9.417  0.00  0.00    +0.000 C 
ENDBRANCH  12  14
ENDBRANCH  11  12
ENDBRANCH  10  11
ENDBRANCH   9  10
ENDBRANCH   8   9
ENDBRANCH   7   8
ENDBRANCH   5   7
ENDBRANCH   4   6
ENDBRANCH   3   4
ENDBRANCH   2   3
ENDBRANCH   1   2
BRANCH   1  15
ATOM     15  C   UNL     1       2.622   7.812  18.587  0.00  0.00    +0.000 C 
BRANCH  15  16
ATOM     16  C   UNL     1       2.715   6.690  19.615  0.00  0.00    +0.000 C 
BRANCH  16  17
ATOM     17  C   UNL     1       1.580   6.756  20.624  0.00  0.00    +0.000 C 
BRANCH  17  18
ATOM     18  C   UNL     1       1.025   5.361  20.863  0.00  0.00    +0.000 C 
BRANCH  18  19
ATOM     19  O   UNL     1       1.337   4.546  19.740  0.00  0.00    +0.000 OA
BRANCH  19  20
ATOM     20  C   UNL     1       0.906   3.210  19.960  0.00  0.00    +0.000 C 
BRANCH  20  21
ATOM     21  C   UNL     1       2.132   2.306  19.999  0.00  0.00    +0.000 C 
ATOM     22  C   UNL     1       3.430   3.104  20.100  0.00  0.00    +0.000 C 
ATOM     23  C   UNL     1       4.459   2.188  19.477  0.00  0.00    +0.000 C 
ATOM     24  C   UNL     1       3.658   1.393  18.441  0.00  0.00    +0.000 C 
ATOM     25  N   UNL     1       2.220   1.524  18.760  0.00  0.00    +0.000 NA
ATOM     26  H   UNL     1       1.828   0.590  18.902  0.00  0.00    +0.000 HD
BRANCH  23  27
ATOM     27  O   UNL     1       5.093   1.382  20.471  0.00  0.00    +0.000 OA
ATOM     28  H   UNL     1       4.786   0.463  20.444  0.00  0.00    +0.000 HD
ENDBRANCH  23  27
ENDBRANCH  20  21
ENDBRANCH  19  20
ENDBRANCH  18  19
ENDBRANCH  17  18
ENDBRANCH  16  17
ENDBRANCH  15  16
ENDBRANCH   1  15
TORSDOF 19
ENDMDL
MODEL 6
REMARK VINA RESULT:      -5.6      3.812      8.311
REMARK  Name = 
REMARK  20 active torsions:
REMARK  status: ('A' for Active; 'I' for Inactive)
REMARK    1  A    between atoms: C_1  and  C_2
REMARK    2  A    between atoms: C_2  and  C_3
REMARK    3  A    between atoms: C_3  and  C_4
REMARK    4  A    between atoms: C_4  and  C_5
REMARK    5  A    between atoms: C_5  and  C_6
REMARK    6  A    between atoms: C_6  and  C_7
REMARK    7  A    between atoms: C_7  and  C_8
REMARK    8  A    between atoms: C_8  and  C_9
REMARK    9  A    between atoms: C_10  and  C_11
REMARK   10  A    between atoms: C_11  and  C_12
REMARK   11  A    between atoms: C_12  and  C_13
REMARK   12  A    between atoms: C_13  and  C_14
REMARK   13  A    between atoms: C_14  and  C_15
REMARK   14  A    between atoms: C_15  and  C_16
REMARK   15  A    between atoms: C_16  and  C_17
REMARK   16  A    between atoms: C_17  and  C_18
REMARK   17  A    between atoms: C_18  and  O_19
REMARK   18  A    between atoms: O_19  and  C_20
REMARK   19  A    between atoms: C_20  and  C_21
REMARK   20  A    between atoms: C_23  and  O_24
REMARK                            x       y       z     vdW  Elec       q    Type
REMARK                         _______ _______ _______ _____ _____    ______ ____
ROOT
ATOM      1  C   UNL     1       1.637   4.706  17.810  0.00  0.00    +0.000 C 
ENDROOT
BRANCH   1   2
ATOM      2  C   UNL     1       2.158   5.703  18.837  0.00  0.00    +0.000 C 
BRANCH   2   3
ATOM      3  C   UNL     1       2.676   6.979  18.173  0.00  0.00    +0.000 C 
BRANCH   3   4
ATOM      4  C   UNL     1       1.587   7.990  17.803  0.00  0.00    +0.000 C 
BRANCH   4   6
ATOM      5  C   UNL     1       1.506  10.423  18.461  0.00  0.00    +0.000 C 
ATOM      6  C   UNL     1       2.090   9.410  17.808  0.00  0.00    +0.000 C 
BRANCH   5   7
ATOM      7  C   UNL     1       0.280  10.238  19.296  0.00  0.00    +0.000 C 
BRANCH   7   8
ATOM      8  C   UNL     1      -1.004  10.412  18.505  0.00  0.00    +0.000 C 
BRANCH   8   9
ATOM      9  C   UNL     1      -1.604  11.775  18.833  0.00  0.00    +0.000 C 
BRANCH   9  10
ATOM     10  C   UNL     1      -0.902  12.392  20.029  0.00  0.00    +0.000 C 
BRANCH  10  11
ATOM     11  C   UNL     1      -1.713  12.169  21.299  0.00  0.00    +0.000 C 
BRANCH  11  12
ATOM     12  C   UNL     1      -0.784  11.854  22.464  0.00  0.00    +0.000 C 
BRANCH  12  14
ATOM     13  C   UNL     1      -0.026   9.596  23.235  0.00  0.00    +0.000 C 
ATOM     14  C   UNL     1      -1.195  10.563  23.163  0.00  0.00    +0.000 C 
ENDBRANCH  12  14
ENDBRANCH  11  12
ENDBRANCH  10  11
ENDBRANCH   9  10
ENDBRANCH   8   9
ENDBRANCH   7   8
ENDBRANCH   5   7
ENDBRANCH   4   6
ENDBRANCH   3   4
ENDBRANCH   2   3
ENDBRANCH   1   2
BRANCH   1  15
ATOM     15  C   UNL     1       2.724   3.756  17.329  0.00  0.00    +0.000 C 
BRANCH  15  16
ATOM     16  C   UNL     1       2.439   2.362  17.875  0.00  0.00    +0.000 C 
BRANCH  16  17
ATOM     17  C   UNL     1       3.648   1.778  18.587  0.00  0.00    +0.000 C 
BRANCH  17  18
ATOM     18  C   UNL     1       4.029   2.663  19.762  0.00  0.00    +0.000 C 
BRANCH  18  19
ATOM     19  O   UNL     1       5.322   3.207  19.524  0.00  0.00    +0.000 OA
BRANCH  19  20
ATOM     20  C   UNL     1       5.292   4.624  19.631  0.00  0.00    +0.000 C 
BRANCH  20  21
ATOM     21  C   UNL     1       6.364   5.200  18.713  0.00  0.00    +0.000 C 
ATOM     22  C   UNL     1       5.763   6.021  17.574  0.00  0.00    +0.000 C 
ATOM     23  C   UNL     1       6.805   5.929  16.482  0.00  0.00    +0.000 C 
ATOM     24  C   UNL     1       7.456   4.562  16.716  0.00  0.00    +0.000 C 
ATOM     25  N   UNL     1       7.126   4.114  18.086  0.00  0.00    +0.000 NA
ATOM     26  H   UNL     1       7.996   3.950  18.597  0.00  0.00    +0.000 HD
BRANCH  23  27
ATOM     27  O   UNL     1       7.713   7.029  16.550  0.00  0.00    +0.000 OA
ATOM     28  H   UNL     1       8.454   6.928  15.933  0.00  0.00    +0.000 HD
ENDBRANCH  23  27
ENDBRANCH  20  21
ENDBRANCH  19  20
ENDBRANCH  18  19
ENDBRANCH  17  18
ENDBRANCH  16  17
ENDBRANCH  15  16
ENDBRANCH   1  15
TORSDOF 19
ENDMDL
MODEL 7
REMARK VINA RESULT:      -5.5      4.667      7.781
REMARK  Name = 
REMARK  20 active torsions:
REMARK  status: ('A' for Active; 'I' for Inactive)
REMARK    1  A    between atoms: C_1  and  C_2
REMARK    2  A    between atoms: C_2  and  C_3
REMARK    3  A    between atoms: C_3  and  C_4
REMARK    4  A    between atoms: C_4  and  C_5
REMARK    5  A    between atoms: C_5  and  C_6
REMARK    6  A    between atoms: C_6  and  C_7
REMARK    7  A    between atoms: C_7  and  C_8
REMARK    8  A    between atoms: C_8  and  C_9
REMARK    9  A    between atoms: C_10  and  C_11
REMARK   10  A    between atoms: C_11  and  C_12
REMARK   11  A    between atoms: C_12  and  C_13
REMARK   12  A    between atoms: C_13  and  C_14
REMARK   13  A    between atoms: C_14  and  C_15
REMARK   14  A    between atoms: C_15  and  C_16
REMARK   15  A    between atoms: C_16  and  C_17
REMARK   16  A    between atoms: C_17  and  C_18
REMARK   17  A    between atoms: C_18  and  O_19
REMARK   18  A    between atoms: O_19  and  C_20
REMARK   19  A    between atoms: C_20  and  C_21
REMARK   20  A    between atoms: C_23  and  O_24
REMARK                            x       y       z     vdW  Elec       q    Type
REMARK                         _______ _______ _______ _____ _____    ______ ____
ROOT
ATOM      1  C   UNL     1       8.048   6.411  18.791  0.00  0.00    +0.000 C 
ENDROOT
BRANCH   1   2
ATOM      2  C   UNL     1       6.835   5.540  19.095  0.00  0.00    +0.000 C 
BRANCH   2   3
ATOM      3  C   UNL     1       6.322   4.828  17.844  0.00  0.00    +0.000 C 
BRANCH   3   4
ATOM      4  C   UNL     1       4.856   5.112  17.508  0.00  0.00    +0.000 C 
BRANCH   4   6
ATOM      5  C   UNL     1       2.832   5.985  18.734  0.00  0.00    +0.000 C 
ATOM      6  C   UNL     1       4.161   5.910  18.580  0.00  0.00    +0.000 C 
BRANCH   5   7
ATOM      7  C   UNL     1       1.880   5.244  17.852  0.00  0.00    +0.000 C 
BRANCH   7   8
ATOM      8  C   UNL     1       1.317   3.996  18.510  0.00  0.00    +0.000 C 
BRANCH   8   9
ATOM      9  C   UNL     1       1.293   4.204  20.020  0.00  0.00    +0.000 C 
BRANCH   9  10
ATOM     10  C   UNL     1       1.338   2.868  20.742  0.00  0.00    +0.000 C 
BRANCH  10  11
ATOM     11  C   UNL     1       2.631   2.734  21.537  0.00  0.00    +0.000 C 
BRANCH  11  12
ATOM     12  C   UNL     1       3.827   3.050  20.650  0.00  0.00    +0.000 C 
BRANCH  12  14
ATOM     13  C   UNL     1       3.713   1.532  18.663  0.00  0.00    +0.000 C 
ATOM     14  C   UNL     1       4.383   1.788  20.002  0.00  0.00    +0.000 C 
ENDBRANCH  12  14
ENDBRANCH  11  12
ENDBRANCH  10  11
ENDBRANCH   9  10
ENDBRANCH   8   9
ENDBRANCH   7   8
ENDBRANCH   5   7
ENDBRANCH   4   6
ENDBRANCH   3   4
ENDBRANCH   2   3
ENDBRANCH   1   2
BRANCH   1  15
ATOM     15  C   UNL     1       7.684   7.628  17.952  0.00  0.00    +0.000 C 
BRANCH  15  16
ATOM     16  C   UNL     1       8.581   8.792  18.357  0.00  0.00    +0.000 C 
BRANCH  16  17
ATOM     17  C   UNL     1       8.291  10.038  17.537  0.00  0.00    +0.000 C 
BRANCH  17  18
ATOM     18  C   UNL     1       8.818  11.265  18.262  0.00  0.00    +0.000 C 
BRANCH  18  19
ATOM     19  O   UNL     1       9.771  10.849  19.232  0.00  0.00    +0.000 OA
BRANCH  19  20
ATOM     20  C   UNL     1      11.058  11.364  18.918  0.00  0.00    +0.000 C 
BRANCH  20  21
ATOM     21  C   UNL     1      10.884  12.729  18.261  0.00  0.00    +0.000 C 
ATOM     22  C   UNL     1      11.979  13.015  17.237  0.00  0.00    +0.000 C 
ATOM     23  C   UNL     1      12.053  14.526  17.209  0.00  0.00    +0.000 C 
ATOM     24  C   UNL     1      11.650  14.935  18.630  0.00  0.00    +0.000 C 
ATOM     25  N   UNL     1      10.974  13.788  19.273  0.00  0.00    +0.000 NA
ATOM     26  H   UNL     1      10.037  14.080  19.564  0.00  0.00    +0.000 HD
BRANCH  23  27
ATOM     27  O   UNL     1      11.211  15.058  16.186  0.00  0.00    +0.000 OA
ATOM     28  H   UNL     1      11.109  16.019  16.262  0.00  0.00    +0.000 HD
ENDBRANCH  23  27
ENDBRANCH  20  21
ENDBRANCH  19  20
ENDBRANCH  18  19
ENDBRANCH  17  18
ENDBRANCH  16  17
ENDBRANCH  15  16
ENDBRANCH   1  15
TORSDOF 19
ENDMDL
MODEL 8
REMARK VINA RESULT:      -5.5      5.176      7.843
REMARK  Name = 
REMARK  20 active torsions:
REMARK  status: ('A' for Active; 'I' for Inactive)
REMARK    1  A    between atoms: C_1  and  C_2
REMARK    2  A    between atoms: C_2  and  C_3
REMARK    3  A    between atoms: C_3  and  C_4
REMARK    4  A    between atoms: C_4  and  C_5
REMARK    5  A    between atoms: C_5  and  C_6
REMARK    6  A    between atoms: C_6  and  C_7
REMARK    7  A    between atoms: C_7  and  C_8
REMARK    8  A    between atoms: C_8  and  C_9
REMARK    9  A    between atoms: C_10  and  C_11
REMARK   10  A    between atoms: C_11  and  C_12
REMARK   11  A    between atoms: C_12  and  C_13
REMARK   12  A    between atoms: C_13  and  C_14
REMARK   13  A    between atoms: C_14  and  C_15
REMARK   14  A    between atoms: C_15  and  C_16
REMARK   15  A    between atoms: C_16  and  C_17
REMARK   16  A    between atoms: C_17  and  C_18
REMARK   17  A    between atoms: C_18  and  O_19
REMARK   18  A    between atoms: O_19  and  C_20
REMARK   19  A    between atoms: C_20  and  C_21
REMARK   20  A    between atoms: C_23  and  O_24
REMARK                            x       y       z     vdW  Elec       q    Type
REMARK                         _______ _______ _______ _____ _____    ______ ____
ROOT
ATOM      1  C   UNL     1       0.054  10.035  18.978  0.00  0.00    +0.000 C 
ENDROOT
BRANCH   1   2
ATOM      2  C   UNL     1       1.345   9.257  19.198  0.00  0.00    +0.000 C 
BRANCH   2   3
ATOM      3  C   UNL     1       1.858   8.633  17.900  0.00  0.00    +0.000 C 
BRANCH   3   4
ATOM      4  C   UNL     1       2.507   7.257  18.070  0.00  0.00    +0.000 C 
BRANCH   4   6
ATOM      5  C   UNL     1       4.861   6.412  17.750  0.00  0.00    +0.000 C 
ATOM      6  C   UNL     1       3.817   7.141  17.335  0.00  0.00    +0.000 C 
BRANCH   5   7
ATOM      7  C   UNL     1       4.822   5.595  19.001  0.00  0.00    +0.000 C 
BRANCH   7   8
ATOM      8  C   UNL     1       5.493   4.242  18.843  0.00  0.00    +0.000 C 
BRANCH   8   9
ATOM      9  C   UNL     1       4.445   3.149  19.022  0.00  0.00    +0.000 C 
BRANCH   9  10
ATOM     10  C   UNL     1       3.561   3.050  17.792  0.00  0.00    +0.000 C 
BRANCH  10  11
ATOM     11  C   UNL     1       2.166   2.571  18.172  0.00  0.00    +0.000 C 
BRANCH  11  12
ATOM     12  C   UNL     1       1.275   3.762  18.498  0.00  0.00    +0.000 C 
BRANCH  12  14
ATOM     13  C   UNL     1       1.674   4.850  20.717  0.00  0.00    +0.000 C 
ATOM     14  C   UNL     1       0.895   3.779  19.974  0.00  0.00    +0.000 C 
ENDBRANCH  12  14
ENDBRANCH  11  12
ENDBRANCH  10  11
ENDBRANCH   9  10
ENDBRANCH   8   9
ENDBRANCH   7   8
ENDBRANCH   5   7
ENDBRANCH   4   6
ENDBRANCH   3   4
ENDBRANCH   2   3
ENDBRANCH   1   2
BRANCH   1  15
ATOM     15  C   UNL     1      -0.683  10.305  20.281  0.00  0.00    +0.000 C 
BRANCH  15  16
ATOM     16  C   UNL     1       0.090   9.664  21.428  0.00  0.00    +0.000 C 
BRANCH  16  17
ATOM     17  C   UNL     1      -0.540   9.976  22.775  0.00  0.00    +0.000 C 
BRANCH  17  18
ATOM     18  C   UNL     1      -1.253  11.317  22.711  0.00  0.00    +0.000 C 
BRANCH  18  19
ATOM     19  O   UNL     1      -0.312  12.349  22.982  0.00  0.00    +0.000 OA
BRANCH  19  20
ATOM     20  C   UNL     1      -0.760  13.584  22.440  0.00  0.00    +0.000 C 
BRANCH  20  21
ATOM     21  C   UNL     1       0.250  14.048  21.397  0.00  0.00    +0.000 C 
ATOM     22  C   UNL     1      -0.301  13.941  19.977  0.00  0.00    +0.000 C 
ATOM     23  C   UNL     1       0.939  13.782  19.126  0.00  0.00    +0.000 C 
ATOM     24  C   UNL     1       1.924  13.060  20.051  0.00  0.00    +0.000 C 
ATOM     25  N   UNL     1       1.447  13.200  21.444  0.00  0.00    +0.000 NA
ATOM     26  H   UNL     1       2.178  13.650  21.999  0.00  0.00    +0.000 HD
BRANCH  23  27
ATOM     27  O   UNL     1       1.399  15.049  18.655  0.00  0.00    +0.000 OA
ATOM     28  H   UNL     1       2.366  15.115  18.674  0.00  0.00    +0.000 HD
ENDBRANCH  23  27
ENDBRANCH  20  21
ENDBRANCH  19  20
ENDBRANCH  18  19
ENDBRANCH  17  18
ENDBRANCH  16  17
ENDBRANCH  15  16
ENDBRANCH   1  15
TORSDOF 19
ENDMDL
MODEL 9
REMARK VINA RESULT:      -5.5      2.146      4.663
REMARK  Name = 
REMARK  20 active torsions:
REMARK  status: ('A' for Active; 'I' for Inactive)
REMARK    1  A    between atoms: C_1  and  C_2
REMARK    2  A    between atoms: C_2  and  C_3
REMARK    3  A    between atoms: C_3  and  C_4
REMARK    4  A    between atoms: C_4  and  C_5
REMARK    5  A    between atoms: C_5  and  C_6
REMARK    6  A    between atoms: C_6  and  C_7
REMARK    7  A    between atoms: C_7  and  C_8
REMARK    8  A    between atoms: C_8  and  C_9
REMARK    9  A    between atoms: C_10  and  C_11
REMARK   10  A    between atoms: C_11  and  C_12
REMARK   11  A    between atoms: C_12  and  C_13
REMARK   12  A    between atoms: C_13  and  C_14
REMARK   13  A    between atoms: C_14  and  C_15
REMARK   14  A    between atoms: C_15  and  C_16
REMARK   15  A    between atoms: C_16  and  C_17
REMARK   16  A    between atoms: C_17  and  C_18
REMARK   17  A    between atoms: C_18  and  O_19
REMARK   18  A    between atoms: O_19  and  C_20
REMARK   19  A    between atoms: C_20  and  C_21
REMARK   20  A    between atoms: C_23  and  O_24
REMARK                            x       y       z     vdW  Elec       q    Type
REMARK                         _______ _______ _______ _____ _____    ______ ____
ROOT
ATOM      1  C   UNL     1       4.563   6.864  17.342  0.00  0.00    +0.000 C 
ENDROOT
BRANCH   1   2
ATOM      2  C   UNL     1       5.644   7.916  17.554  0.00  0.00    +0.000 C 
BRANCH   2   3
ATOM      3  C   UNL     1       7.028   7.387  17.177  0.00  0.00    +0.000 C 
BRANCH   3   4
ATOM      4  C   UNL     1       7.925   7.047  18.371  0.00  0.00    +0.000 C 
BRANCH   4   6
ATOM      5  C   UNL     1       7.343   4.594  18.312  0.00  0.00    +0.000 C 
ATOM      6  C   UNL     1       7.576   5.721  18.996  0.00  0.00    +0.000 C 
BRANCH   5   7
ATOM      7  C   UNL     1       7.438   4.526  16.822  0.00  0.00    +0.000 C 
BRANCH   7   8
ATOM      8  C   UNL     1       6.164   4.018  16.172  0.00  0.00    +0.000 C 
BRANCH   8   9
ATOM      9  C   UNL     1       6.047   4.623  14.778  0.00  0.00    +0.000 C 
BRANCH   9  10
ATOM     10  C   UNL     1       5.657   3.560  13.766  0.00  0.00    +0.000 C 
BRANCH  10  11
ATOM     11  C   UNL     1       6.436   3.744  12.469  0.00  0.00    +0.000 C 
BRANCH  11  12
ATOM     12  C   UNL     1       5.969   2.735  11.430  0.00  0.00    +0.000 C 
BRANCH  12  14
ATOM     13  C   UNL     1       6.066   0.254  11.105  0.00  0.00    +0.000 C 
ATOM     14  C   UNL     1       6.871   1.506  11.410  0.00  0.00    +0.000 C 
ENDBRANCH  12  14
ENDBRANCH  11  12
ENDBRANCH  10  11
ENDBRANCH   9  10
ENDBRANCH   8   9
ENDBRANCH   7   8
ENDBRANCH   5   7
ENDBRANCH   4   6
ENDBRANCH   3   4
ENDBRANCH   2   3
ENDBRANCH   1   2
BRANCH   1  15
ATOM     15  C   UNL     1       3.193   7.350  17.794  0.00  0.00    +0.000 C 
BRANCH  15  16
ATOM     16  C   UNL     1       2.545   6.271  18.653  0.00  0.00    +0.000 C 
BRANCH  16  17
ATOM     17  C   UNL     1       2.311   6.750  20.076  0.00  0.00    +0.000 C 
BRANCH  17  18
ATOM     18  C   UNL     1       1.643   5.650  20.885  0.00  0.00    +0.000 C 
BRANCH  18  19
ATOM     19  O   UNL     1       1.132   4.670  19.989  0.00  0.00    +0.000 OA
BRANCH  19  20
ATOM     20  C   UNL     1       1.097   3.394  20.615  0.00  0.00    +0.000 C 
BRANCH  20  21
ATOM     21  C   UNL     1       1.783   2.388  19.699  0.00  0.00    +0.000 C 
ATOM     22  C   UNL     1       3.300   2.565  19.686  0.00  0.00    +0.000 C 
ATOM     23  C   UNL     1       3.709   2.020  18.336  0.00  0.00    +0.000 C 
ATOM     24  C   UNL     1       2.495   2.305  17.445  0.00  0.00    +0.000 C 
ATOM     25  N   UNL     1       1.330   2.577  18.315  0.00  0.00    +0.000 NA
ATOM     26  H   UNL     1       0.589   1.910  18.091  0.00  0.00    +0.000 HD
BRANCH  23  27
ATOM     27  O   UNL     1       4.056   0.638  18.428  0.00  0.00    +0.000 OA
ATOM     28  H   UNL     1       3.649   0.212  19.198  0.00  0.00    +0.000 HD
ENDBRANCH  23  27
ENDBRANCH  20  21
ENDBRANCH  19  20
ENDBRANCH  18  19
ENDBRANCH  17  18
ENDBRANCH  16  17
ENDBRANCH  15  16
ENDBRANCH   1  15
TORSDOF 19
ENDMDL
