MODEL 1
REMARK VINA RESULT:      -7.9      0.000      0.000
REMARK  Name = 
REMARK  8 active torsions:
REMARK  status: ('A' for Active; 'I' for Inactive)
REMARK    1  A    between atoms: C_1  and  C_2
REMARK    2  A    between atoms: C_6  and  N_7
REMARK    3  A    between atoms: C_10  and  C_11
REMARK    4  A    between atoms: C_11  and  C_13
REMARK    5  A    between atoms: C_18  and  N_19
REMARK    6  A    between atoms: N_19  and  S_20
REMARK    7  A    between atoms: S_20  and  C_21
REMARK    8  A    between atoms: C_27  and  N_28
REMARK                            x       y       z     vdW  Elec       q    Type
REMARK                         _______ _______ _______ _____ _____    ______ ____
ROOT
ATOM      1  N   UNL     1       1.297   9.205  19.274  0.00  0.00    +0.000 N 
ATOM      2  N   UNL     1       1.621   9.023  17.962  0.00  0.00    +0.000 NA
ATOM      3  C   UNL     1       2.311   7.886  17.937  0.00  0.00    +0.000 A 
ATOM      4  C   UNL     1       2.407   7.274  19.200  0.00  0.00    +0.000 A 
ATOM      5  C   UNL     1       1.725   8.125  20.057  0.00  0.00    +0.000 A 
ENDROOT
BRANCH   1  11
ATOM      6  C   UNL     1      -0.608  15.417  22.618  0.00  0.00    +0.000 C 
ATOM      7  C   UNL     1      -0.437  14.161  21.854  0.00  0.00    +0.000 A 
ATOM      8  N   UNL     1       0.644  13.410  21.799  0.00  0.00    +0.000 NA
ATOM      9  C   UNL     1       0.330  12.371  20.960  0.00  0.00    +0.000 A 
ATOM     10  C   UNL     1       1.120  11.287  20.553  0.00  0.00    +0.000 A 
ATOM     11  C   UNL     1       0.558  10.349  19.674  0.00  0.00    +0.000 A 
ATOM     12  C   UNL     1      -0.754  10.518  19.183  0.00  0.00    +0.000 A 
ATOM     13  C   UNL     1      -1.551  11.590  19.605  0.00  0.00    +0.000 A 
ATOM     14  C   UNL     1      -0.969  12.484  20.488  0.00  0.00    +0.000 A 
ATOM     15  N   UNL     1      -1.444  13.627  21.087  0.00  0.00    +0.000 N 
ATOM     16  H   UNL     1      -2.370  14.011  20.972  0.00  0.00    +0.000 HD
ENDBRANCH   1  11
BRANCH   5  17
ATOM     17  N   UNL     1       1.424   7.925  21.370  0.00  0.00    +0.000 N 
ATOM     18  H   UNL     1       1.937   8.484  22.056  0.00  0.00    +0.000 HD
ATOM     19  H   UNL     1       1.273   6.978  21.720  0.00  0.00    +0.000 HD
ENDBRANCH   5  17
BRANCH   4  20
ATOM     20  C   UNL     1       2.905   5.961  19.563  0.00  0.00    +0.000 C 
ATOM     21  O   UNL     1       2.476   5.378  20.555  0.00  0.00    +0.000 OA
BRANCH  20  22
ATOM     22  C   UNL     1       3.843   5.329  18.662  0.00  0.00    +0.000 A 
ATOM     23  C   UNL     1       5.107   5.824  18.408  0.00  0.00    +0.000 A 
ATOM     24  C   UNL     1       5.712   5.001  17.454  0.00  0.00    +0.000 A 
ATOM     25  C   UNL     1       6.972   4.992  16.838  0.00  0.00    +0.000 A 
ATOM     26  C   UNL     1       6.763   5.100  15.473  0.00  0.00    +0.000 A 
ATOM     27  C   UNL     1       5.990   4.077  14.935  0.00  0.00    +0.000 A 
ATOM     28  C   UNL     1       4.920   3.543  15.686  0.00  0.00    +0.000 A 
ATOM     29  C   UNL     1       4.705   4.186  16.920  0.00  0.00    +0.000 A 
ATOM     30  N   UNL     1       3.665   4.228  17.831  0.00  0.00    +0.000 N 
ATOM     31  H   UNL     1       2.816   3.681  17.765  0.00  0.00    +0.000 HD
BRANCH  27  32
ATOM     32  N   UNL     1       6.615   3.274  13.926  0.00  0.00    +0.000 N 
ATOM     33  H   UNL     1       7.622   3.463  13.975  0.00  0.00    +0.000 HD
BRANCH  32  34
ATOM     34  S   UNL     1       6.156   3.619  12.322  0.00  0.00    +0.000 S 
ATOM     35  C   UNL     1       6.540   2.046  11.595  0.00  0.00    +0.000 C 
ATOM     36  O   UNL     1       4.720   3.811  12.278  0.00  0.00    +0.000 OA
ATOM     37  O   UNL     1       7.078   4.595  11.793  0.00  0.00    +0.000 OA
ENDBRANCH  32  34
ENDBRANCH  27  32
ENDBRANCH  20  22
ENDBRANCH   4  20
TORSDOF 6
ENDMDL
MODEL 2
REMARK VINA RESULT:      -7.9      4.882      9.915
REMARK  Name = 
REMARK  8 active torsions:
REMARK  status: ('A' for Active; 'I' for Inactive)
REMARK    1  A    between atoms: C_1  and  C_2
REMARK    2  A    between atoms: C_6  and  N_7
REMARK    3  A    between atoms: C_10  and  C_11
REMARK    4  A    between atoms: C_11  and  C_13
REMARK    5  A    between atoms: C_18  and  N_19
REMARK    6  A    between atoms: N_19  and  S_20
REMARK    7  A    between atoms: S_20  and  C_21
REMARK    8  A    between atoms: C_27  and  N_28
REMARK                            x       y       z     vdW  Elec       q    Type
REMARK                         _______ _______ _______ _____ _____    ______ ____
ROOT
ATOM      1  N   UNL     1       2.077   7.900  19.219  0.00  0.00    +0.000 N 
ATOM      2  N   UNL     1       1.746   7.670  20.521  0.00  0.00    +0.000 NA
ATOM      3  C   UNL     1       1.078   8.756  20.899  0.00  0.00    +0.000 A 
ATOM      4  C   UNL     1       0.905   9.685  19.858  0.00  0.00    +0.000 A 
ATOM      5  C   UNL     1       1.536   9.110  18.764  0.00  0.00    +0.000 A 
ENDROOT
BRANCH   1  11
ATOM      6  C   UNL     1       6.929   4.857  14.681  0.00  0.00    +0.000 C 
ATOM      7  C   UNL     1       5.864   5.259  15.628  0.00  0.00    +0.000 A 
ATOM      8  N   UNL     1       5.609   6.476  16.060  0.00  0.00    +0.000 NA
ATOM      9  C   UNL     1       4.551   6.348  16.924  0.00  0.00    +0.000 A 
ATOM     10  C   UNL     1       3.883   7.333  17.664  0.00  0.00    +0.000 A 
ATOM     11  C   UNL     1       2.821   6.936  18.491  0.00  0.00    +0.000 A 
ATOM     12  C   UNL     1       2.465   5.575  18.602  0.00  0.00    +0.000 A 
ATOM     13  C   UNL     1       3.120   4.593  17.848  0.00  0.00    +0.000 A 
ATOM     14  C   UNL     1       4.149   5.024  17.028  0.00  0.00    +0.000 A 
ATOM     15  N   UNL     1       4.993   4.350  16.178  0.00  0.00    +0.000 N 
ATOM     16  H   UNL     1       4.978   3.358  15.998  0.00  0.00    +0.000 HD
ENDBRANCH   1  11
BRANCH   5  17
ATOM     17  N   UNL     1       1.549   9.555  17.478  0.00  0.00    +0.000 N 
ATOM     18  H   UNL     1       2.185   9.084  16.829  0.00  0.00    +0.000 HD
ATOM     19  H   UNL     1       1.516  10.556  17.283  0.00  0.00    +0.000 HD
ENDBRANCH   5  17
BRANCH   4  20
ATOM     20  C   UNL     1       0.094  10.886  19.807  0.00  0.00    +0.000 C 
ATOM     21  O   UNL     1      -1.133  10.818  19.812  0.00  0.00    +0.000 OA
BRANCH  20  22
ATOM     22  C   UNL     1       0.779  12.159  19.851  0.00  0.00    +0.000 A 
ATOM     23  C   UNL     1       0.555  13.177  18.946  0.00  0.00    +0.000 A 
ATOM     24  C   UNL     1       1.424  14.229  19.252  0.00  0.00    +0.000 A 
ATOM     25  C   UNL     1       1.633  15.505  18.708  0.00  0.00    +0.000 A 
ATOM     26  C   UNL     1       2.955  15.565  18.299  0.00  0.00    +0.000 A 
ATOM     27  C   UNL     1       3.874  15.353  19.320  0.00  0.00    +0.000 A 
ATOM     28  C   UNL     1       3.582  14.419  20.339  0.00  0.00    +0.000 A 
ATOM     29  C   UNL     1       2.369  13.727  20.155  0.00  0.00    +0.000 A 
ATOM     30  N   UNL     1       1.813  12.576  20.683  0.00  0.00    +0.000 N 
ATOM     31  H   UNL     1       2.225  12.021  21.422  0.00  0.00    +0.000 HD
BRANCH  27  32
ATOM     32  N   UNL     1       4.784  16.427  19.587  0.00  0.00    +0.000 N 
ATOM     33  H   UNL     1       4.395  17.266  19.143  0.00  0.00    +0.000 HD
BRANCH  32  34
ATOM     34  S   UNL     1       6.349  16.244  18.939  0.00  0.00    +0.000 S 
ATOM     35  C   UNL     1       7.199  15.786  20.428  0.00  0.00    +0.000 C 
ATOM     36  O   UNL     1       6.351  15.110  18.036  0.00  0.00    +0.000 OA
ATOM     37  O   UNL     1       6.822  17.548  18.535  0.00  0.00    +0.000 OA
ENDBRANCH  32  34
ENDBRANCH  27  32
ENDBRANCH  20  22
ENDBRANCH   4  20
TORSDOF 6
ENDMDL
MODEL 3
REMARK VINA RESULT:      -7.8      4.058      5.896
REMARK  Name = 
REMARK  8 active torsions:
REMARK  status: ('A' for Active; 'I' for Inactive)
REMARK    1  A    between atoms: C_1  and  C_2
REMARK    2  A    between atoms: C_6  and  N_7
REMARK    3  A    between atoms: C_10  and  C_11
REMARK    4  A    between atoms: C_11  and  C_13
REMARK    5  A    between atoms: C_18  and  N_19
REMARK    6  A    between atoms: N_19  and  S_20
REMARK    7  A    between atoms: S_20  and  C_21
REMARK    8  A    between atoms: C_27  and  N_28
REMARK                            x       y       z     vdW  Elec       q    Type
REMARK                         _______ _______ _______ _____ _____    ______ ____
ROOT
ATOM      1  N   UNL     1       2.083  13.265  19.880  0.00  0.00    +0.000 N 
ATOM      2  N   UNL     1       1.465  12.890  21.037  0.00  0.00    +0.000 NA
ATOM      3  C   UNL     1       0.805  11.778  20.725  0.00  0.00    +0.000 A 
ATOM      4  C   UNL     1       1.014  11.369  19.396  0.00  0.00    +0.000 A 
ATOM      5  C   UNL     1       1.865  12.327  18.862  0.00  0.00    +0.000 A 
ENDROOT
BRANCH   1  11
ATOM      6  C   UNL     1       7.473  18.040  21.123  0.00  0.00    +0.000 C 
ATOM      7  C   UNL     1       6.279  17.245  20.756  0.00  0.00    +0.000 A 
ATOM      8  N   UNL     1       6.039  15.988  21.067  0.00  0.00    +0.000 NA
ATOM      9  C   UNL     1       4.828  15.690  20.497  0.00  0.00    +0.000 A 
ATOM     10  C   UNL     1       4.106  14.488  20.519  0.00  0.00    +0.000 A 
ATOM     11  C   UNL     1       2.877  14.440  19.844  0.00  0.00    +0.000 A 
ATOM     12  C   UNL     1       2.402  15.561  19.132  0.00  0.00    +0.000 A 
ATOM     13  C   UNL     1       3.113  16.768  19.127  0.00  0.00    +0.000 A 
ATOM     14  C   UNL     1       4.312  16.785  19.819  0.00  0.00    +0.000 A 
ATOM     15  N   UNL     1       5.250  17.771  20.013  0.00  0.00    +0.000 N 
ATOM     16  H   UNL     1       5.194  18.714  19.660  0.00  0.00    +0.000 HD
ENDBRANCH   1  11
BRANCH   5  17
ATOM     17  N   UNL     1       2.466  12.324  17.640  0.00  0.00    +0.000 N 
ATOM     18  H   UNL     1       3.426  12.672  17.593  0.00  0.00    +0.000 HD
ATOM     19  H   UNL     1       1.940  12.609  16.813  0.00  0.00    +0.000 HD
ENDBRANCH   5  17
BRANCH   4  20
ATOM     20  C   UNL     1       0.634  10.139  18.729  0.00  0.00    +0.000 C 
ATOM     21  O   UNL     1      -0.404  10.072  18.075  0.00  0.00    +0.000 OA
BRANCH  20  22
ATOM     22  C   UNL     1       1.566   9.035  18.781  0.00  0.00    +0.000 A 
ATOM     23  C   UNL     1       2.363   8.660  17.717  0.00  0.00    +0.000 A 
ATOM     24  C   UNL     1       3.092   7.529  18.097  0.00  0.00    +0.000 A 
ATOM     25  C   UNL     1       4.057   6.736  17.459  0.00  0.00    +0.000 A 
ATOM     26  C   UNL     1       3.563   5.443  17.417  0.00  0.00    +0.000 A 
ATOM     27  C   UNL     1       3.286   4.900  18.667  0.00  0.00    +0.000 A 
ATOM     28  C   UNL     1       2.771   5.728  19.688  0.00  0.00    +0.000 A 
ATOM     29  C   UNL     1       2.517   7.053  19.282  0.00  0.00    +0.000 A 
ATOM     30  N   UNL     1       1.781   8.106  19.794  0.00  0.00    +0.000 N 
ATOM     31  H   UNL     1       1.303   8.098  20.686  0.00  0.00    +0.000 HD
BRANCH  27  32
ATOM     32  N   UNL     1       4.013   3.716  19.018  0.00  0.00    +0.000 N 
ATOM     33  H   UNL     1       4.598   3.473  18.211  0.00  0.00    +0.000 HD
BRANCH  32  34
ATOM     34  S   UNL     1       3.062   2.336  19.331  0.00  0.00    +0.000 S 
ATOM     35  C   UNL     1       1.672   2.735  18.303  0.00  0.00    +0.000 C 
ATOM     36  O   UNL     1       3.730   1.173  18.779  0.00  0.00    +0.000 OA
ATOM     37  O   UNL     1       2.632   2.393  20.709  0.00  0.00    +0.000 OA
ENDBRANCH  32  34
ENDBRANCH  27  32
ENDBRANCH  20  22
ENDBRANCH   4  20
TORSDOF 6
ENDMDL
MODEL 4
REMARK VINA RESULT:      -7.8      0.951      1.487
REMARK  Name = 
REMARK  8 active torsions:
REMARK  status: ('A' for Active; 'I' for Inactive)
REMARK    1  A    between atoms: C_1  and  C_2
REMARK    2  A    between atoms: C_6  and  N_7
REMARK    3  A    between atoms: C_10  and  C_11
REMARK    4  A    between atoms: C_11  and  C_13
REMARK    5  A    between atoms: C_18  and  N_19
REMARK    6  A    between atoms: N_19  and  S_20
REMARK    7  A    between atoms: S_20  and  C_21
REMARK    8  A    between atoms: C_27  and  N_28
REMARK                            x       y       z     vdW  Elec       q    Type
REMARK                         _______ _______ _______ _____ _____    ______ ____
ROOT
ATOM      1  N   UNL     1       1.171   9.476  19.273  0.00  0.00    +0.000 N 
ATOM      2  N   UNL     1       1.367   9.288  17.937  0.00  0.00    +0.000 NA
ATOM      3  C   UNL     1       2.039   8.142  17.850  0.00  0.00    +0.000 A 
ATOM      4  C   UNL     1       2.246   7.531  19.099  0.00  0.00    +0.000 A 
ATOM      5  C   UNL     1       1.659   8.392  20.016  0.00  0.00    +0.000 A 
ENDROOT
BRANCH   1  11
ATOM      6  C   UNL     1      -4.153  14.239  20.811  0.00  0.00    +0.000 C 
ATOM      7  C   UNL     1      -2.931  13.438  20.576  0.00  0.00    +0.000 A 
ATOM      8  N   UNL     1      -2.867  12.217  20.087  0.00  0.00    +0.000 NA
ATOM      9  C   UNL     1      -1.534  11.894  20.070  0.00  0.00    +0.000 A 
ATOM     10  C   UNL     1      -0.911  10.711  19.647  0.00  0.00    +0.000 A 
ATOM     11  C   UNL     1       0.487  10.629  19.738  0.00  0.00    +0.000 A 
ATOM     12  C   UNL     1       1.237  11.694  20.278  0.00  0.00    +0.000 A 
ATOM     13  C   UNL     1       0.617  12.883  20.683  0.00  0.00    +0.000 A 
ATOM     14  C   UNL     1      -0.761  12.936  20.560  0.00  0.00    +0.000 A 
ATOM     15  N   UNL     1      -1.675  13.918  20.861  0.00  0.00    +0.000 N 
ATOM     16  H   UNL     1      -1.459  14.828  21.237  0.00  0.00    +0.000 HD
ENDBRANCH   1  11
BRANCH   5  17
ATOM     17  N   UNL     1       1.481   8.197  21.351  0.00  0.00    +0.000 N 
ATOM     18  H   UNL     1       0.710   8.701  21.797  0.00  0.00    +0.000 HD
ATOM     19  H   UNL     1       2.289   8.157  21.973  0.00  0.00    +0.000 HD
ENDBRANCH   5  17
BRANCH   4  20
ATOM     20  C   UNL     1       2.761   6.213  19.417  0.00  0.00    +0.000 C 
ATOM     21  O   UNL     1       2.319   5.578  20.372  0.00  0.00    +0.000 OA
BRANCH  20  22
ATOM     22  C   UNL     1       3.733   5.639  18.514  0.00  0.00    +0.000 A 
ATOM     23  C   UNL     1       4.761   6.363  17.941  0.00  0.00    +0.000 A 
ATOM     24  C   UNL     1       5.467   5.511  17.086  0.00  0.00    +0.000 A 
ATOM     25  C   UNL     1       6.596   5.674  16.271  0.00  0.00    +0.000 A 
ATOM     26  C   UNL     1       6.211   5.381  14.973  0.00  0.00    +0.000 A 
ATOM     27  C   UNL     1       5.714   4.093  14.806  0.00  0.00    +0.000 A 
ATOM     28  C   UNL     1       4.939   3.506  15.830  0.00  0.00    +0.000 A 
ATOM     29  C   UNL     1       4.688   4.359  16.923  0.00  0.00    +0.000 A 
ATOM     30  N   UNL     1       3.791   4.358  17.976  0.00  0.00    +0.000 N 
ATOM     31  H   UNL     1       3.137   3.612  18.177  0.00  0.00    +0.000 HD
BRANCH  27  32
ATOM     32  N   UNL     1       6.428   3.252  13.891  0.00  0.00    +0.000 N 
ATOM     33  H   UNL     1       7.423   3.480  13.988  0.00  0.00    +0.000 HD
BRANCH  32  34
ATOM     34  S   UNL     1       6.059   3.479  12.243  0.00  0.00    +0.000 S 
ATOM     35  C   UNL     1       6.376   1.829  11.672  0.00  0.00    +0.000 C 
ATOM     36  O   UNL     1       4.641   3.750  12.114  0.00  0.00    +0.000 OA
ATOM     37  O   UNL     1       7.062   4.351  11.676  0.00  0.00    +0.000 OA
ENDBRANCH  32  34
ENDBRANCH  27  32
ENDBRANCH  20  22
ENDBRANCH   4  20
TORSDOF 6
ENDMDL
MODEL 5
REMARK VINA RESULT:      -7.7      1.125      1.203
REMARK  Name = 
REMARK  8 active torsions:
REMARK  status: ('A' for Active; 'I' for Inactive)
REMARK    1  A    between atoms: C_1  and  C_2
REMARK    2  A    between atoms: C_6  and  N_7
REMARK    3  A    between atoms: C_10  and  C_11
REMARK    4  A    between atoms: C_11  and  C_13
REMARK    5  A    between atoms: C_18  and  N_19
REMARK    6  A    between atoms: N_19  and  S_20
REMARK    7  A    between atoms: S_20  and  C_21
REMARK    8  A    between atoms: C_27  and  N_28
REMARK                            x       y       z     vdW  Elec       q    Type
REMARK                         _______ _______ _______ _____ _____    ______ ____
ROOT
ATOM      1  N   UNL     1       1.252   9.577  18.728  0.00  0.00    +0.000 N 
ATOM      2  N   UNL     1       1.818   9.362  17.506  0.00  0.00    +0.000 NA
ATOM      3  C   UNL     1       2.518   8.239  17.648  0.00  0.00    +0.000 A 
ATOM      4  C   UNL     1       2.385   7.667  18.926  0.00  0.00    +0.000 A 
ATOM      5  C   UNL     1       1.543   8.530  19.613  0.00  0.00    +0.000 A 
ENDROOT
BRANCH   1  11
ATOM      6  C   UNL     1      -0.901  16.353  20.413  0.00  0.00    +0.000 C 
ATOM      7  C   UNL     1      -0.691  14.933  20.050  0.00  0.00    +0.000 A 
ATOM      8  N   UNL     1       0.463  14.309  19.936  0.00  0.00    +0.000 NA
ATOM      9  C   UNL     1       0.155  13.024  19.569  0.00  0.00    +0.000 A 
ATOM     10  C   UNL     1       1.009  11.943  19.314  0.00  0.00    +0.000 A 
ATOM     11  C   UNL     1       0.435  10.716  18.945  0.00  0.00    +0.000 A 
ATOM     12  C   UNL     1      -0.962  10.591  18.798  0.00  0.00    +0.000 A 
ATOM     13  C   UNL     1      -1.817  11.665  19.072  0.00  0.00    +0.000 A 
ATOM     14  C   UNL     1      -1.217  12.854  19.453  0.00  0.00    +0.000 A 
ATOM     15  N   UNL     1      -1.736  14.084  19.781  0.00  0.00    +0.000 N 
ATOM     16  H   UNL     1      -2.716  14.321  19.808  0.00  0.00    +0.000 HD
ENDBRANCH   1  11
BRANCH   5  17
ATOM     17  N   UNL     1       1.005   8.363  20.852  0.00  0.00    +0.000 N 
ATOM     18  H   UNL     1       1.655   8.323  21.641  0.00  0.00    +0.000 HD
ATOM     19  H   UNL     1       0.235   7.708  20.990  0.00  0.00    +0.000 HD
ENDBRANCH   5  17
BRANCH   4  20
ATOM     20  C   UNL     1       2.826   6.376  19.419  0.00  0.00    +0.000 C 
ATOM     21  O   UNL     1       2.371   5.912  20.461  0.00  0.00    +0.000 OA
BRANCH  20  22
ATOM     22  C   UNL     1       3.738   5.620  18.589  0.00  0.00    +0.000 A 
ATOM     23  C   UNL     1       5.088   5.893  18.497  0.00  0.00    +0.000 A 
ATOM     24  C   UNL     1       5.647   5.008  17.569  0.00  0.00    +0.000 A 
ATOM     25  C   UNL     1       6.948   4.798  17.090  0.00  0.00    +0.000 A 
ATOM     26  C   UNL     1       6.917   4.988  15.718  0.00  0.00    +0.000 A 
ATOM     27  C   UNL     1       6.045   4.136  15.049  0.00  0.00    +0.000 A 
ATOM     28  C   UNL     1       4.822   3.773  15.653  0.00  0.00    +0.000 A 
ATOM     29  C   UNL     1       4.582   4.402  16.891  0.00  0.00    +0.000 A 
ATOM     30  N   UNL     1       3.468   4.596  17.687  0.00  0.00    +0.000 N 
ATOM     31  H   UNL     1       2.551   4.209  17.503  0.00  0.00    +0.000 HD
BRANCH  27  32
ATOM     32  N   UNL     1       6.634   3.269  14.071  0.00  0.00    +0.000 N 
ATOM     33  H   UNL     1       7.644   3.447  14.082  0.00  0.00    +0.000 HD
BRANCH  32  34
ATOM     34  S   UNL     1       6.135   3.530  12.462  0.00  0.00    +0.000 S 
ATOM     35  C   UNL     1       7.272   4.825  12.040  0.00  0.00    +0.000 C 
ATOM     36  O   UNL     1       6.458   2.355  11.677  0.00  0.00    +0.000 OA
ATOM     37  O   UNL     1       4.805   4.092  12.492  0.00  0.00    +0.000 OA
ENDBRANCH  32  34
ENDBRANCH  27  32
ENDBRANCH  20  22
ENDBRANCH   4  20
TORSDOF 6
ENDMDL
MODEL 6
REMARK VINA RESULT:      -7.6      4.266      6.448
REMARK  Name = 
REMARK  8 active torsions:
REMARK  status: ('A' for Active; 'I' for Inactive)
REMARK    1  A    between atoms: C_1  and  C_2
REMARK    2  A    between atoms: C_6  and  N_7
REMARK    3  A    between atoms: C_10  and  C_11
REMARK    4  A    between atoms: C_11  and  C_13
REMARK    5  A    between atoms: C_18  and  N_19
REMARK    6  A    between atoms: N_19  and  S_20
REMARK    7  A    between atoms: S_20  and  C_21
REMARK    8  A    between atoms: C_27  and  N_28
REMARK                            x       y       z     vdW  Elec       q    Type
REMARK                         _______ _______ _______ _____ _____    ______ ____
ROOT
ATOM      1  N   UNL     1       2.021  13.732  20.063  0.00  0.00    +0.000 N 
ATOM      2  N   UNL     1       1.406  13.363  21.222  0.00  0.00    +0.000 NA
ATOM      3  C   UNL     1       0.689  12.290  20.899  0.00  0.00    +0.000 A 
ATOM      4  C   UNL     1       0.857  11.899  19.559  0.00  0.00    +0.000 A 
ATOM      5  C   UNL     1       1.743  12.827  19.029  0.00  0.00    +0.000 A 
ENDROOT
BRANCH   1  11
ATOM      6  C   UNL     1       7.985  17.950  20.286  0.00  0.00    +0.000 C 
ATOM      7  C   UNL     1       6.659  17.294  20.230  0.00  0.00    +0.000 A 
ATOM      8  N   UNL     1       6.415  16.001  20.248  0.00  0.00    +0.000 NA
ATOM      9  C   UNL     1       5.052  15.879  20.161  0.00  0.00    +0.000 A 
ATOM     10  C   UNL     1       4.261  14.721  20.137  0.00  0.00    +0.000 A 
ATOM     11  C   UNL     1       2.870  14.870  20.036  0.00  0.00    +0.000 A 
ATOM     12  C   UNL     1       2.289  16.150  19.922  0.00  0.00    +0.000 A 
ATOM     13  C   UNL     1       3.076  17.308  19.965  0.00  0.00    +0.000 A 
ATOM     14  C   UNL     1       4.443  17.123  20.085  0.00  0.00    +0.000 A 
ATOM     15  N   UNL     1       5.490  18.012  20.148  0.00  0.00    +0.000 N 
ATOM     16  H   UNL     1       5.411  19.017  20.127  0.00  0.00    +0.000 HD
ENDBRANCH   1  11
BRANCH   5  17
ATOM     17  N   UNL     1       2.323  12.822  17.798  0.00  0.00    +0.000 N 
ATOM     18  H   UNL     1       1.762  13.170  17.017  0.00  0.00    +0.000 HD
ATOM     19  H   UNL     1       2.889  12.025  17.504  0.00  0.00    +0.000 HD
ENDBRANCH   5  17
BRANCH   4  20
ATOM     20  C   UNL     1       0.409  10.702  18.874  0.00  0.00    +0.000 C 
ATOM     21  O   UNL     1      -0.593  10.722  18.163  0.00  0.00    +0.000 OA
BRANCH  20  22
ATOM     22  C   UNL     1       1.236   9.522  18.980  0.00  0.00    +0.000 A 
ATOM     23  C   UNL     1       1.920   8.973  17.913  0.00  0.00    +0.000 A 
ATOM     24  C   UNL     1       2.566   7.816  18.361  0.00  0.00    +0.000 A 
ATOM     25  C   UNL     1       3.407   6.876  17.748  0.00  0.00    +0.000 A 
ATOM     26  C   UNL     1       2.795   5.639  17.865  0.00  0.00    +0.000 A 
ATOM     27  C   UNL     1       2.556   5.246  19.177  0.00  0.00    +0.000 A 
ATOM     28  C   UNL     1       2.191   6.212  20.140  0.00  0.00    +0.000 A 
ATOM     29  C   UNL     1       2.032   7.512  19.619  0.00  0.00    +0.000 A 
ATOM     30  N   UNL     1       1.434   8.676  20.066  0.00  0.00    +0.000 N 
ATOM     31  H   UNL     1       1.020   8.798  20.982  0.00  0.00    +0.000 HD
BRANCH  27  32
ATOM     32  N   UNL     1       3.193   4.033  19.600  0.00  0.00    +0.000 N 
ATOM     33  H   UNL     1       3.888   3.794  18.885  0.00  0.00    +0.000 HD
BRANCH  32  34
ATOM     34  S   UNL     1       2.174   2.674  19.729  0.00  0.00    +0.000 S 
ATOM     35  C   UNL     1       2.262   2.443  21.486  0.00  0.00    +0.000 C 
ATOM     36  O   UNL     1       0.822   3.068  19.380  0.00  0.00    +0.000 OA
ATOM     37  O   UNL     1       2.835   1.557  19.095  0.00  0.00    +0.000 OA
ENDBRANCH  32  34
ENDBRANCH  27  32
ENDBRANCH  20  22
ENDBRANCH   4  20
TORSDOF 6
ENDMDL
MODEL 7
REMARK VINA RESULT:      -7.6      3.044      4.823
REMARK  Name = 
REMARK  8 active torsions:
REMARK  status: ('A' for Active; 'I' for Inactive)
REMARK    1  A    between atoms: C_1  and  C_2
REMARK    2  A    between atoms: C_6  and  N_7
REMARK    3  A    between atoms: C_10  and  C_11
REMARK    4  A    between atoms: C_11  and  C_13
REMARK    5  A    between atoms: C_18  and  N_19
REMARK    6  A    between atoms: N_19  and  S_20
REMARK    7  A    between atoms: S_20  and  C_21
REMARK    8  A    between atoms: C_27  and  N_28
REMARK                            x       y       z     vdW  Elec       q    Type
REMARK                         _______ _______ _______ _____ _____    ______ ____
ROOT
ATOM      1  N   UNL     1      -0.816  11.750  21.996  0.00  0.00    +0.000 N 
ATOM      2  N   UNL     1       0.009  10.872  22.634  0.00  0.00    +0.000 NA
ATOM      3  C   UNL     1       0.731  10.317  21.664  0.00  0.00    +0.000 A 
ATOM      4  C   UNL     1       0.445  10.848  20.394  0.00  0.00    +0.000 A 
ATOM      5  C   UNL     1      -0.544  11.795  20.622  0.00  0.00    +0.000 A 
ENDROOT
BRANCH   1  11
ATOM      6  C   UNL     1      -4.115  17.381  25.282  0.00  0.00    +0.000 C 
ATOM      7  C   UNL     1      -3.611  16.110  24.714  0.00  0.00    +0.000 A 
ATOM      8  N   UNL     1      -2.563  15.954  23.933  0.00  0.00    +0.000 NA
ATOM      9  C   UNL     1      -2.505  14.612  23.656  0.00  0.00    +0.000 A 
ATOM     10  C   UNL     1      -1.585  13.906  22.868  0.00  0.00    +0.000 A 
ATOM     11  C   UNL     1      -1.750  12.518  22.738  0.00  0.00    +0.000 A 
ATOM     12  C   UNL     1      -2.837  11.862  23.352  0.00  0.00    +0.000 A 
ATOM     13  C   UNL     1      -3.745  12.564  24.155  0.00  0.00    +0.000 A 
ATOM     14  C   UNL     1      -3.539  13.928  24.277  0.00  0.00    +0.000 A 
ATOM     15  N   UNL     1      -4.223  14.905  24.961  0.00  0.00    +0.000 N 
ATOM     16  H   UNL     1      -5.038  14.760  25.536  0.00  0.00    +0.000 HD
ENDBRANCH   1  11
BRANCH   5  17
ATOM     17  N   UNL     1      -1.079  12.676  19.733  0.00  0.00    +0.000 N 
ATOM     18  H   UNL     1      -1.685  13.408  20.110  0.00  0.00    +0.000 HD
ATOM     19  H   UNL     1      -1.435  12.343  18.836  0.00  0.00    +0.000 HD
ENDBRANCH   5  17
BRANCH   4  20
ATOM     20  C   UNL     1       1.125  10.653  19.128  0.00  0.00    +0.000 C 
ATOM     21  O   UNL     1       1.323  11.598  18.368  0.00  0.00    +0.000 OA
BRANCH  20  22
ATOM     22  C   UNL     1       1.645   9.334  18.845  0.00  0.00    +0.000 A 
ATOM     23  C   UNL     1       1.734   8.331  19.790  0.00  0.00    +0.000 A 
ATOM     24  C   UNL     1       2.332   7.219  19.188  0.00  0.00    +0.000 A 
ATOM     25  C   UNL     1       2.653   5.930  19.636  0.00  0.00    +0.000 A 
ATOM     26  C   UNL     1       4.020   5.770  19.482  0.00  0.00    +0.000 A 
ATOM     27  C   UNL     1       4.465   5.919  18.172  0.00  0.00    +0.000 A 
ATOM     28  C   UNL     1       3.853   6.875  17.333  0.00  0.00    +0.000 A 
ATOM     29  C   UNL     1       2.867   7.654  17.969  0.00  0.00    +0.000 A 
ATOM     30  N   UNL     1       2.227   8.845  17.680  0.00  0.00    +0.000 N 
ATOM     31  H   UNL     1       2.344   9.372  16.823  0.00  0.00    +0.000 HD
BRANCH  27  32
ATOM     32  N   UNL     1       5.114   4.781  17.591  0.00  0.00    +0.000 N 
ATOM     33  H   UNL     1       5.185   4.069  18.326  0.00  0.00    +0.000 HD
BRANCH  32  34
ATOM     34  S   UNL     1       6.707   5.043  17.045  0.00  0.00    +0.000 S 
ATOM     35  C   UNL     1       6.634   4.085  15.553  0.00  0.00    +0.000 C 
ATOM     36  O   UNL     1       6.856   6.441  16.691  0.00  0.00    +0.000 OA
ATOM     37  O   UNL     1       7.608   4.382  17.959  0.00  0.00    +0.000 OA
ENDBRANCH  32  34
ENDBRANCH  27  32
ENDBRANCH  20  22
ENDBRANCH   4  20
TORSDOF 6
ENDMDL
MODEL 8
REMARK VINA RESULT:      -7.6      5.539     12.082
REMARK  Name = 
REMARK  8 active torsions:
REMARK  status: ('A' for Active; 'I' for Inactive)
REMARK    1  A    between atoms: C_1  and  C_2
REMARK    2  A    between atoms: C_6  and  N_7
REMARK    3  A    between atoms: C_10  and  C_11
REMARK    4  A    between atoms: C_11  and  C_13
REMARK    5  A    between atoms: C_18  and  N_19
REMARK    6  A    between atoms: N_19  and  S_20
REMARK    7  A    between atoms: S_20  and  C_21
REMARK    8  A    between atoms: C_27  and  N_28
REMARK                            x       y       z     vdW  Elec       q    Type
REMARK                         _______ _______ _______ _____ _____    ______ ____
ROOT
ATOM      1  N   UNL     1       1.902   8.139  19.406  0.00  0.00    +0.000 N 
ATOM      2  N   UNL     1       1.575   8.003  20.722  0.00  0.00    +0.000 NA
ATOM      3  C   UNL     1       0.938   9.130  21.032  0.00  0.00    +0.000 A 
ATOM      4  C   UNL     1       0.783   9.993  19.933  0.00  0.00    +0.000 A 
ATOM      5  C   UNL     1       1.391   9.332  18.875  0.00  0.00    +0.000 A 
ENDROOT
BRANCH   1  11
ATOM      6  C   UNL     1       6.469   4.672  14.876  0.00  0.00    +0.000 C 
ATOM      7  C   UNL     1       5.472   5.163  15.853  0.00  0.00    +0.000 A 
ATOM      8  N   UNL     1       5.214   6.418  16.157  0.00  0.00    +0.000 NA
ATOM      9  C   UNL     1       4.233   6.373  17.115  0.00  0.00    +0.000 A 
ATOM     10  C   UNL     1       3.595   7.426  17.785  0.00  0.00    +0.000 A 
ATOM     11  C   UNL     1       2.615   7.109  18.738  0.00  0.00    +0.000 A 
ATOM     12  C   UNL     1       2.312   5.766  19.039  0.00  0.00    +0.000 A 
ATOM     13  C   UNL     1       2.934   4.713  18.356  0.00  0.00    +0.000 A 
ATOM     14  C   UNL     1       3.881   5.064  17.409  0.00  0.00    +0.000 A 
ATOM     15  N   UNL     1       4.675   4.309  16.577  0.00  0.00    +0.000 N 
ATOM     16  H   UNL     1       4.677   3.303  16.519  0.00  0.00    +0.000 HD
ENDBRANCH   1  11
BRANCH   5  17
ATOM     17  N   UNL     1       1.408   9.690  17.563  0.00  0.00    +0.000 N 
ATOM     18  H   UNL     1       0.738   9.226  16.944  0.00  0.00    +0.000 HD
ATOM     19  H   UNL     1       2.298   9.833  17.084  0.00  0.00    +0.000 HD
ENDBRANCH   5  17
BRANCH   4  20
ATOM     20  C   UNL     1       0.004  11.210  19.807  0.00  0.00    +0.000 C 
ATOM     21  O   UNL     1      -0.264  11.674  18.701  0.00  0.00    +0.000 OA
BRANCH  20  22
ATOM     22  C   UNL     1      -0.526  11.793  21.019  0.00  0.00    +0.000 A 
ATOM     23  C   UNL     1      -1.806  11.557  21.482  0.00  0.00    +0.000 A 
ATOM     24  C   UNL     1      -1.997  12.320  22.638  0.00  0.00    +0.000 A 
ATOM     25  C   UNL     1      -3.064  12.470  23.536  0.00  0.00    +0.000 A 
ATOM     26  C   UNL     1      -3.417  13.810  23.534  0.00  0.00    +0.000 A 
ATOM     27  C   UNL     1      -2.389  14.668  23.905  0.00  0.00    +0.000 A 
ATOM     28  C   UNL     1      -1.062  14.376  23.518  0.00  0.00    +0.000 A 
ATOM     29  C   UNL     1      -0.939  13.235  22.702  0.00  0.00    +0.000 A 
ATOM     30  N   UNL     1       0.046  12.731  21.871  0.00  0.00    +0.000 N 
ATOM     31  H   UNL     1       0.970  13.131  21.761  0.00  0.00    +0.000 HD
BRANCH  27  32
ATOM     32  N   UNL     1      -2.624  15.473  25.067  0.00  0.00    +0.000 N 
ATOM     33  H   UNL     1      -3.439  15.076  25.547  0.00  0.00    +0.000 HD
BRANCH  32  34
ATOM     34  S   UNL     1      -3.015  17.104  24.765  0.00  0.00    +0.000 S 
ATOM     35  C   UNL     1      -4.767  17.009  25.030  0.00  0.00    +0.000 C 
ATOM     36  O   UNL     1      -2.433  17.926  25.807  0.00  0.00    +0.000 OA
ATOM     37  O   UNL     1      -2.787  17.366  23.363  0.00  0.00    +0.000 OA
ENDBRANCH  32  34
ENDBRANCH  27  32
ENDBRANCH  20  22
ENDBRANCH   4  20
TORSDOF 6
ENDMDL
MODEL 9
REMARK VINA RESULT:      -7.6      4.874      9.757
REMARK  Name = 
REMARK  8 active torsions:
REMARK  status: ('A' for Active; 'I' for Inactive)
REMARK    1  A    between atoms: C_1  and  C_2
REMARK    2  A    between atoms: C_6  and  N_7
REMARK    3  A    between atoms: C_10  and  C_11
REMARK    4  A    between atoms: C_11  and  C_13
REMARK    5  A    between atoms: C_18  and  N_19
REMARK    6  A    between atoms: N_19  and  S_20
REMARK    7  A    between atoms: S_20  and  C_21
REMARK    8  A    between atoms: C_27  and  N_28
REMARK                            x       y       z     vdW  Elec       q    Type
REMARK                         _______ _______ _______ _____ _____    ______ ____
ROOT
ATOM      1  N   UNL     1       1.791   8.145  19.716  0.00  0.00    +0.000 N 
ATOM      2  N   UNL     1       1.404   8.109  21.023  0.00  0.00    +0.000 NA
ATOM      3  C   UNL     1       0.841   9.295  21.242  0.00  0.00    +0.000 A 
ATOM      4  C   UNL     1       0.792  10.102  20.092  0.00  0.00    +0.000 A 
ATOM      5  C   UNL     1       1.390   9.338  19.099  0.00  0.00    +0.000 A 
ENDROOT
BRANCH   1  11
ATOM      6  C   UNL     1       5.939   4.059  15.300  0.00  0.00    +0.000 C 
ATOM      7  C   UNL     1       5.036   4.686  16.292  0.00  0.00    +0.000 A 
ATOM      8  N   UNL     1       4.788   5.971  16.433  0.00  0.00    +0.000 NA
ATOM      9  C   UNL     1       3.910   6.066  17.483  0.00  0.00    +0.000 A 
ATOM     10  C   UNL     1       3.324   7.205  18.053  0.00  0.00    +0.000 A 
ATOM     11  C   UNL     1       2.452   7.030  19.138  0.00  0.00    +0.000 A 
ATOM     12  C   UNL     1       2.204   5.744  19.662  0.00  0.00    +0.000 A 
ATOM     13  C   UNL     1       2.773   4.604  19.081  0.00  0.00    +0.000 A 
ATOM     14  C   UNL     1       3.613   4.813  18.000  0.00  0.00    +0.000 A 
ATOM     15  N   UNL     1       4.332   3.947  17.212  0.00  0.00    +0.000 N 
ATOM     16  H   UNL     1       4.347   2.942  17.302  0.00  0.00    +0.000 HD
ENDBRANCH   1  11
BRANCH   5  17
ATOM     17  N   UNL     1       1.484   9.618  17.771  0.00  0.00    +0.000 N 
ATOM     18  H   UNL     1       1.501  10.604  17.502  0.00  0.00    +0.000 HD
ATOM     19  H   UNL     1       0.946   9.072  17.095  0.00  0.00    +0.000 HD
ENDBRANCH   5  17
BRANCH   4  20
ATOM     20  C   UNL     1       0.110  11.362  19.866  0.00  0.00    +0.000 C 
ATOM     21  O   UNL     1      -1.117  11.422  19.869  0.00  0.00    +0.000 OA
BRANCH  20  22
ATOM     22  C   UNL     1       0.925  12.549  19.739  0.00  0.00    +0.000 A 
ATOM     23  C   UNL     1       0.791  13.459  18.708  0.00  0.00    +0.000 A 
ATOM     24  C   UNL     1       1.770  14.444  18.869  0.00  0.00    +0.000 A 
ATOM     25  C   UNL     1       2.100  15.609  18.161  0.00  0.00    +0.000 A 
ATOM     26  C   UNL     1       3.413  15.476  17.742  0.00  0.00    +0.000 A 
ATOM     27  C   UNL     1       4.325  15.303  18.778  0.00  0.00    +0.000 A 
ATOM     28  C   UNL     1       3.956  14.547  19.912  0.00  0.00    +0.000 A 
ATOM     29  C   UNL     1       2.674  13.968  19.827  0.00  0.00    +0.000 A 
ATOM     30  N   UNL     1       2.011  12.961  20.504  0.00  0.00    +0.000 N 
ATOM     31  H   UNL     1       2.377  12.467  21.308  0.00  0.00    +0.000 HD
BRANCH  27  32
ATOM     32  N   UNL     1       5.345  16.302  18.897  0.00  0.00    +0.000 N 
ATOM     33  H   UNL     1       5.216  16.957  18.118  0.00  0.00    +0.000 HD
BRANCH  32  34
ATOM     34  S   UNL     1       6.947  15.735  18.763  0.00  0.00    +0.000 S 
ATOM     35  C   UNL     1       7.762  17.297  18.552  0.00  0.00    +0.000 C 
ATOM     36  O   UNL     1       7.351  15.171  20.036  0.00  0.00    +0.000 OA
ATOM     37  O   UNL     1       7.060  14.999  17.526  0.00  0.00    +0.000 OA
ENDBRANCH  32  34
ENDBRANCH  27  32
ENDBRANCH  20  22
ENDBRANCH   4  20
TORSDOF 6
ENDMDL
