MODEL 1
REMARK VINA RESULT:      -8.1      0.000      0.000
REMARK  Name = 
REMARK  6 active torsions:
REMARK  status: ('A' for Active; 'I' for Inactive)
REMARK    1  A    between atoms: C_1  and  C_2
REMARK    2  A    between atoms: C_6  and  N_7
REMARK    3  A    between atoms: C_8  and  C_10
REMARK    4  A    between atoms: C_13  and  N_14
REMARK    5  A    between atoms: N_17  and  C_18
REMARK    6  A    between atoms: C_25  and  C_26
REMARK                            x       y       z     vdW  Elec       q    Type
REMARK                         _______ _______ _______ _____ _____    ______ ____
ROOT
ATOM      1  N   UNL     1       1.879   8.205  19.127  0.00  0.00    +0.000 N 
ATOM      2  C   UNL     1       1.407   8.041  20.420  0.00  0.00    +0.000 C 
ATOM      3  O   UNL     1       1.554   7.049  21.130  0.00  0.00    +0.000 OA
ATOM      4  H   UNL     1       1.716   9.076  18.644  0.00  0.00    +0.000 HD
ENDROOT
BRANCH   1  10
ATOM      5  C   UNL     1       6.441   4.047  15.254  0.00  0.00    +0.000 C 
ATOM      6  C   UNL     1       5.325   4.566  16.123  0.00  0.00    +0.000 A 
ATOM      7  C   UNL     1       5.205   5.871  16.425  0.00  0.00    +0.000 A 
ATOM      8  N   UNL     1       4.146   6.277  17.225  0.00  0.00    +0.000 N 
ATOM      9  C   UNL     1       3.752   7.502  17.701  0.00  0.00    +0.000 A 
ATOM     10  C   UNL     1       2.611   7.254  18.443  0.00  0.00    +0.000 A 
ATOM     11  N   UNL     1       2.311   5.918  18.427  0.00  0.00    +0.000 NA
ATOM     12  C   UNL     1       3.246   5.359  17.696  0.00  0.00    +0.000 A 
ATOM     13  C   UNL     1       3.440   3.971  17.337  0.00  0.00    +0.000 A 
ATOM     14  C   UNL     1       2.473   2.932  17.838  0.00  0.00    +0.000 C 
ATOM     15  N   UNL     1       4.434   3.598  16.584  0.00  0.00    +0.000 NA
ENDBRANCH   1  10
BRANCH   2  16
ATOM     16  C   UNL     1       0.621   9.179  20.993  0.00  0.00    +0.000 A 
ATOM     17  C   UNL     1       0.211   9.108  22.331  0.00  0.00    +0.000 A 
ATOM     18  C   UNL     1      -0.539  10.142  22.915  0.00  0.00    +0.000 A 
ATOM     19  C   UNL     1      -0.876  11.289  22.179  0.00  0.00    +0.000 A 
ATOM     20  C   UNL     1      -0.470  11.330  20.840  0.00  0.00    +0.000 A 
ATOM     21  C   UNL     1       0.271  10.305  20.245  0.00  0.00    +0.000 A 
BRANCH  19  22
ATOM     22  N   UNL     1      -1.506  12.374  22.757  0.00  0.00    +0.000 N 
ATOM     23  C   UNL     1      -0.864  13.702  22.739  0.00  0.00    +0.000 C 
ATOM     24  C   UNL     1      -1.289  14.487  24.002  0.00  0.00    +0.000 C 
ATOM     25  N   UNL     1      -2.762  14.604  24.121  0.00  0.00    +0.000 NA
ATOM     26  C   UNL     1      -3.126  15.316  25.344  0.00  0.00    +0.000 C 
ATOM     27  C   UNL     1      -3.357  13.245  24.109  0.00  0.00    +0.000 C 
ATOM     28  C   UNL     1      -2.974  12.441  22.841  0.00  0.00    +0.000 C 
ENDBRANCH  19  22
ENDBRANCH   2  16
TORSDOF 3
ENDMDL
MODEL 2
REMARK VINA RESULT:      -7.9      0.620      1.448
REMARK  Name = 
REMARK  6 active torsions:
REMARK  status: ('A' for Active; 'I' for Inactive)
REMARK    1  A    between atoms: C_1  and  C_2
REMARK    2  A    between atoms: C_6  and  N_7
REMARK    3  A    between atoms: C_8  and  C_10
REMARK    4  A    between atoms: C_13  and  N_14
REMARK    5  A    between atoms: N_17  and  C_18
REMARK    6  A    between atoms: C_25  and  C_26
REMARK                            x       y       z     vdW  Elec       q    Type
REMARK                         _______ _______ _______ _____ _____    ______ ____
ROOT
ATOM      1  N   UNL     1       1.847   8.211  19.257  0.00  0.00    +0.000 N 
ATOM      2  C   UNL     1       1.334   7.997  20.527  0.00  0.00    +0.000 C 
ATOM      3  O   UNL     1       1.428   6.966  21.188  0.00  0.00    +0.000 OA
ATOM      4  H   UNL     1       1.725   9.110  18.815  0.00  0.00    +0.000 HD
ENDROOT
BRANCH   1  10
ATOM      5  C   UNL     1       6.330   4.116  15.229  0.00  0.00    +0.000 C 
ATOM      6  C   UNL     1       5.232   4.621  16.128  0.00  0.00    +0.000 A 
ATOM      7  C   UNL     1       5.118   5.920  16.454  0.00  0.00    +0.000 A 
ATOM      8  N   UNL     1       4.075   6.313  17.281  0.00  0.00    +0.000 N 
ATOM      9  C   UNL     1       3.691   7.531  17.784  0.00  0.00    +0.000 A 
ATOM     10  C   UNL     1       2.565   7.270  18.543  0.00  0.00    +0.000 A 
ATOM     11  N   UNL     1       2.263   5.935  18.511  0.00  0.00    +0.000 NA
ATOM     12  C   UNL     1       3.184   5.388  17.753  0.00  0.00    +0.000 A 
ATOM     13  C   UNL     1       3.370   4.006  17.367  0.00  0.00    +0.000 A 
ATOM     14  C   UNL     1       2.411   2.960  17.870  0.00  0.00    +0.000 C 
ATOM     15  N   UNL     1       4.349   3.645  16.590  0.00  0.00    +0.000 NA
ENDBRANCH   1  10
BRANCH   2  16
ATOM     16  C   UNL     1       0.571   9.131  21.137  0.00  0.00    +0.000 A 
ATOM     17  C   UNL     1       0.170  10.193  20.315  0.00  0.00    +0.000 A 
ATOM     18  C   UNL     1      -0.538  11.287  20.839  0.00  0.00    +0.000 A 
ATOM     19  C   UNL     1      -0.887  11.334  22.198  0.00  0.00    +0.000 A 
ATOM     20  C   UNL     1      -0.462  10.270  23.002  0.00  0.00    +0.000 A 
ATOM     21  C   UNL     1       0.249   9.178  22.496  0.00  0.00    +0.000 A 
BRANCH  19  22
ATOM     22  N   UNL     1      -1.685  12.334  22.717  0.00  0.00    +0.000 N 
ATOM     23  C   UNL     1      -2.939  11.995  23.418  0.00  0.00    +0.000 C 
ATOM     24  C   UNL     1      -3.961  13.138  23.208  0.00  0.00    +0.000 C 
ATOM     25  N   UNL     1      -3.434  14.450  23.655  0.00  0.00    +0.000 NA
ATOM     26  C   UNL     1      -4.409  15.509  23.406  0.00  0.00    +0.000 C 
ATOM     27  C   UNL     1      -2.163  14.729  22.940  0.00  0.00    +0.000 C 
ATOM     28  C   UNL     1      -1.107  13.615  23.153  0.00  0.00    +0.000 C 
ENDBRANCH  19  22
ENDBRANCH   2  16
TORSDOF 3
ENDMDL
MODEL 3
REMARK VINA RESULT:      -7.8      1.201      1.778
REMARK  Name = 
REMARK  6 active torsions:
REMARK  status: ('A' for Active; 'I' for Inactive)
REMARK    1  A    between atoms: C_1  and  C_2
REMARK    2  A    between atoms: C_6  and  N_7
REMARK    3  A    between atoms: C_8  and  C_10
REMARK    4  A    between atoms: C_13  and  N_14
REMARK    5  A    between atoms: N_17  and  C_18
REMARK    6  A    between atoms: C_25  and  C_26
REMARK                            x       y       z     vdW  Elec       q    Type
REMARK                         _______ _______ _______ _____ _____    ______ ____
ROOT
ATOM      1  N   UNL     1       2.180   7.936  19.130  0.00  0.00    +0.000 N 
ATOM      2  C   UNL     1       1.536   9.058  18.634  0.00  0.00    +0.000 C 
ATOM      3  O   UNL     1       1.522   9.435  17.465  0.00  0.00    +0.000 OA
ATOM      4  H   UNL     1       2.106   7.711  20.111  0.00  0.00    +0.000 HD
ENDROOT
BRANCH   1  10
ATOM      5  C   UNL     1       6.613   4.204  14.713  0.00  0.00    +0.000 C 
ATOM      6  C   UNL     1       5.560   4.621  15.705  0.00  0.00    +0.000 A 
ATOM      7  C   UNL     1       5.370   5.908  16.045  0.00  0.00    +0.000 A 
ATOM      8  N   UNL     1       4.375   6.218  16.961  0.00  0.00    +0.000 N 
ATOM      9  C   UNL     1       3.939   7.402  17.500  0.00  0.00    +0.000 A 
ATOM     10  C   UNL     1       2.907   7.054  18.354  0.00  0.00    +0.000 A 
ATOM     11  N   UNL     1       2.712   5.699  18.342  0.00  0.00    +0.000 NA
ATOM     12  C   UNL     1       3.605   5.226  17.505  0.00  0.00    +0.000 A 
ATOM     13  C   UNL     1       3.868   3.862  17.099  0.00  0.00    +0.000 A 
ATOM     14  C   UNL     1       3.044   2.743  17.679  0.00  0.00    +0.000 C 
ATOM     15  N   UNL     1       4.802   3.579  16.238  0.00  0.00    +0.000 NA
ENDBRANCH   1  10
BRANCH   2  16
ATOM     16  C   UNL     1       0.807   9.904  19.632  0.00  0.00    +0.000 A 
ATOM     17  C   UNL     1       0.668  11.276  19.379  0.00  0.00    +0.000 A 
ATOM     18  C   UNL     1       0.004  12.116  20.286  0.00  0.00    +0.000 A 
ATOM     19  C   UNL     1      -0.564  11.599  21.462  0.00  0.00    +0.000 A 
ATOM     20  C   UNL     1      -0.399  10.230  21.701  0.00  0.00    +0.000 A 
ATOM     21  C   UNL     1       0.265   9.383  20.809  0.00  0.00    +0.000 A 
BRANCH  19  22
ATOM     22  N   UNL     1      -1.326  12.376  22.313  0.00  0.00    +0.000 N 
ATOM     23  C   UNL     1      -2.248  11.740  23.273  0.00  0.00    +0.000 C 
ATOM     24  C   UNL     1      -3.457  12.675  23.510  0.00  0.00    +0.000 C 
ATOM     25  N   UNL     1      -3.042  14.021  23.975  0.00  0.00    +0.000 NA
ATOM     26  C   UNL     1      -4.206  14.887  24.150  0.00  0.00    +0.000 C 
ATOM     27  C   UNL     1      -2.098  14.603  22.988  0.00  0.00    +0.000 C 
ATOM     28  C   UNL     1      -0.861  13.702  22.748  0.00  0.00    +0.000 C 
ENDBRANCH  19  22
ENDBRANCH   2  16
TORSDOF 3
ENDMDL
MODEL 4
REMARK VINA RESULT:      -7.7      1.561      2.011
REMARK  Name = 
REMARK  6 active torsions:
REMARK  status: ('A' for Active; 'I' for Inactive)
REMARK    1  A    between atoms: C_1  and  C_2
REMARK    2  A    between atoms: C_6  and  N_7
REMARK    3  A    between atoms: C_8  and  C_10
REMARK    4  A    between atoms: C_13  and  N_14
REMARK    5  A    between atoms: N_17  and  C_18
REMARK    6  A    between atoms: C_25  and  C_26
REMARK                            x       y       z     vdW  Elec       q    Type
REMARK                         _______ _______ _______ _____ _____    ______ ____
ROOT
ATOM      1  N   UNL     1       1.882   7.955  18.901  0.00  0.00    +0.000 N 
ATOM      2  C   UNL     1       1.524   9.214  18.444  0.00  0.00    +0.000 C 
ATOM      3  O   UNL     1       1.917   9.756  17.414  0.00  0.00    +0.000 OA
ATOM      4  H   UNL     1       1.478   7.601  19.755  0.00  0.00    +0.000 HD
ENDROOT
BRANCH   1  10
ATOM      5  C   UNL     1       7.028   4.432  15.131  0.00  0.00    +0.000 C 
ATOM      6  C   UNL     1       5.838   4.800  15.979  0.00  0.00    +0.000 A 
ATOM      7  C   UNL     1       5.537   6.077  16.270  0.00  0.00    +0.000 A 
ATOM      8  N   UNL     1       4.420   6.341  17.050  0.00  0.00    +0.000 N 
ATOM      9  C   UNL     1       3.857   7.504  17.510  0.00  0.00    +0.000 A 
ATOM     10  C   UNL     1       2.747   7.107  18.235  0.00  0.00    +0.000 A 
ATOM     11  N   UNL     1       2.629   5.744  18.224  0.00  0.00    +0.000 NA
ATOM     12  C   UNL     1       3.644   5.313  17.512  0.00  0.00    +0.000 A 
ATOM     13  C   UNL     1       4.029   3.962  17.165  0.00  0.00    +0.000 A 
ATOM     14  C   UNL     1       3.202   2.804  17.658  0.00  0.00    +0.000 C 
ATOM     15  N   UNL     1       5.077   3.722  16.432  0.00  0.00    +0.000 NA
ENDBRANCH   1  10
BRANCH   2  16
ATOM     16  C   UNL     1       0.583   9.994  19.308  0.00  0.00    +0.000 A 
ATOM     17  C   UNL     1      -0.224  10.973  18.713  0.00  0.00    +0.000 A 
ATOM     18  C   UNL     1      -1.115  11.741  19.479  0.00  0.00    +0.000 A 
ATOM     19  C   UNL     1      -1.241  11.531  20.862  0.00  0.00    +0.000 A 
ATOM     20  C   UNL     1      -0.413  10.560  21.436  0.00  0.00    +0.000 A 
ATOM     21  C   UNL     1       0.483   9.792  20.687  0.00  0.00    +0.000 A 
BRANCH  19  22
ATOM     22  N   UNL     1      -2.192  12.185  21.621  0.00  0.00    +0.000 N 
ATOM     23  C   UNL     1      -2.003  12.338  23.076  0.00  0.00    +0.000 C 
ATOM     24  C   UNL     1      -3.388  12.351  23.767  0.00  0.00    +0.000 C 
ATOM     25  N   UNL     1      -4.274  13.409  23.226  0.00  0.00    +0.000 NA
ATOM     26  C   UNL     1      -5.583  13.366  23.874  0.00  0.00    +0.000 C 
ATOM     27  C   UNL     1      -4.409  13.224  21.760  0.00  0.00    +0.000 C 
ATOM     28  C   UNL     1      -3.040  13.234  21.033  0.00  0.00    +0.000 C 
ENDBRANCH  19  22
ENDBRANCH   2  16
TORSDOF 3
ENDMDL
MODEL 5
REMARK VINA RESULT:      -7.6      1.532     10.765
REMARK  Name = 
REMARK  6 active torsions:
REMARK  status: ('A' for Active; 'I' for Inactive)
REMARK    1  A    between atoms: C_1  and  C_2
REMARK    2  A    between atoms: C_6  and  N_7
REMARK    3  A    between atoms: C_8  and  C_10
REMARK    4  A    between atoms: C_13  and  N_14
REMARK    5  A    between atoms: N_17  and  C_18
REMARK    6  A    between atoms: C_25  and  C_26
REMARK                            x       y       z     vdW  Elec       q    Type
REMARK                         _______ _______ _______ _____ _____    ______ ____
ROOT
ATOM      1  N   UNL     1      -0.005  11.126  21.647  0.00  0.00    +0.000 N 
ATOM      2  C   UNL     1      -0.199  10.770  20.322  0.00  0.00    +0.000 C 
ATOM      3  O   UNL     1      -1.033  11.242  19.554  0.00  0.00    +0.000 OA
ATOM      4  H   UNL     1       0.728  10.683  22.180  0.00  0.00    +0.000 HD
ENDROOT
BRANCH   1  10
ATOM      5  C   UNL     1      -3.095  16.986  24.683  0.00  0.00    +0.000 C 
ATOM      6  C   UNL     1      -2.764  15.595  24.209  0.00  0.00    +0.000 A 
ATOM      7  C   UNL     1      -1.669  15.334  23.474  0.00  0.00    +0.000 A 
ATOM      8  N   UNL     1      -1.424  14.026  23.080  0.00  0.00    +0.000 N 
ATOM      9  C   UNL     1      -0.421  13.444  22.346  0.00  0.00    +0.000 A 
ATOM     10  C   UNL     1      -0.737  12.098  22.303  0.00  0.00    +0.000 A 
ATOM     11  N   UNL     1      -1.897  11.856  22.988  0.00  0.00    +0.000 NA
ATOM     12  C   UNL     1      -2.287  13.025  23.437  0.00  0.00    +0.000 A 
ATOM     13  C   UNL     1      -3.448  13.378  24.225  0.00  0.00    +0.000 A 
ATOM     14  C   UNL     1      -4.422  12.305  24.634  0.00  0.00    +0.000 C 
ATOM     15  N   UNL     1      -3.671  14.607  24.591  0.00  0.00    +0.000 NA
ENDBRANCH   1  10
BRANCH   2  16
ATOM     16  C   UNL     1       0.682   9.684  19.787  0.00  0.00    +0.000 A 
ATOM     17  C   UNL     1       1.036   9.710  18.431  0.00  0.00    +0.000 A 
ATOM     18  C   UNL     1       1.851   8.710  17.876  0.00  0.00    +0.000 A 
ATOM     19  C   UNL     1       2.355   7.669  18.672  0.00  0.00    +0.000 A 
ATOM     20  C   UNL     1       1.975   7.655  20.019  0.00  0.00    +0.000 A 
ATOM     21  C   UNL     1       1.160   8.640  20.583  0.00  0.00    +0.000 A 
BRANCH  19  22
ATOM     22  N   UNL     1       3.254   6.741  18.184  0.00  0.00    +0.000 N 
ATOM     23  C   UNL     1       4.491   7.187  17.513  0.00  0.00    +0.000 C 
ATOM     24  C   UNL     1       4.890   6.143  16.443  0.00  0.00    +0.000 C 
ATOM     25  N   UNL     1       5.050   4.785  17.017  0.00  0.00    +0.000 NA
ATOM     26  C   UNL     1       5.388   3.821  15.972  0.00  0.00    +0.000 C 
ATOM     27  C   UNL     1       3.790   4.398  17.699  0.00  0.00    +0.000 C 
ATOM     28  C   UNL     1       3.376   5.410  18.798  0.00  0.00    +0.000 C 
ENDBRANCH  19  22
ENDBRANCH   2  16
TORSDOF 3
ENDMDL
MODEL 6
REMARK VINA RESULT:      -7.6      1.122      1.218
REMARK  Name = 
REMARK  6 active torsions:
REMARK  status: ('A' for Active; 'I' for Inactive)
REMARK    1  A    between atoms: C_1  and  C_2
REMARK    2  A    between atoms: C_6  and  N_7
REMARK    3  A    between atoms: C_8  and  C_10
REMARK    4  A    between atoms: C_13  and  N_14
REMARK    5  A    between atoms: N_17  and  C_18
REMARK    6  A    between atoms: C_25  and  C_26
REMARK                            x       y       z     vdW  Elec       q    Type
REMARK                         _______ _______ _______ _____ _____    ______ ____
ROOT
ATOM      1  N   UNL     1       1.957   8.085  19.125  0.00  0.00    +0.000 N 
ATOM      2  C   UNL     1       1.372   9.198  18.544  0.00  0.00    +0.000 C 
ATOM      3  O   UNL     1       1.448   9.530  17.363  0.00  0.00    +0.000 OA
ATOM      4  H   UNL     1       1.810   7.899  20.106  0.00  0.00    +0.000 HD
ENDROOT
BRANCH   1  10
ATOM      5  C   UNL     1       6.658   4.089  15.248  0.00  0.00    +0.000 C 
ATOM      6  C   UNL     1       5.519   4.570  16.108  0.00  0.00    +0.000 A 
ATOM      7  C   UNL     1       5.369   5.865  16.434  0.00  0.00    +0.000 A 
ATOM      8  N   UNL     1       4.290   6.236  17.224  0.00  0.00    +0.000 N 
ATOM      9  C   UNL     1       3.866   7.445  17.717  0.00  0.00    +0.000 A 
ATOM     10  C   UNL     1       2.717   7.160  18.435  0.00  0.00    +0.000 A 
ATOM     11  N   UNL     1       2.442   5.820  18.387  0.00  0.00    +0.000 NA
ATOM     12  C   UNL     1       3.400   5.293  17.661  0.00  0.00    +0.000 A 
ATOM     13  C   UNL     1       3.625   3.916  17.277  0.00  0.00    +0.000 A 
ATOM     14  C   UNL     1       2.668   2.850  17.741  0.00  0.00    +0.000 C 
ATOM     15  N   UNL     1       4.638   3.576  16.535  0.00  0.00    +0.000 NA
ENDBRANCH   1  10
BRANCH   2  16
ATOM     16  C   UNL     1       0.593  10.095  19.455  0.00  0.00    +0.000 A 
ATOM     17  C   UNL     1       0.618   9.840  20.833  0.00  0.00    +0.000 A 
ATOM     18  C   UNL     1      -0.104  10.643  21.731  0.00  0.00    +0.000 A 
ATOM     19  C   UNL     1      -0.850  11.741  21.274  0.00  0.00    +0.000 A 
ATOM     20  C   UNL     1      -0.872  11.966  19.893  0.00  0.00    +0.000 A 
ATOM     21  C   UNL     1      -0.164  11.172  18.987  0.00  0.00    +0.000 A 
BRANCH  19  22
ATOM     22  N   UNL     1      -1.471  12.620  22.141  0.00  0.00    +0.000 N 
ATOM     23  C   UNL     1      -0.895  13.957  22.380  0.00  0.00    +0.000 C 
ATOM     24  C   UNL     1      -1.231  14.401  23.824  0.00  0.00    +0.000 C 
ATOM     25  N   UNL     1      -2.690  14.389  24.089  0.00  0.00    +0.000 NA
ATOM     26  C   UNL     1      -2.966  14.775  25.471  0.00  0.00    +0.000 C 
ATOM     27  C   UNL     1      -3.220  13.031  23.808  0.00  0.00    +0.000 C 
ATOM     28  C   UNL     1      -2.924  12.567  22.360  0.00  0.00    +0.000 C 
ENDBRANCH  19  22
ENDBRANCH   2  16
TORSDOF 3
ENDMDL
MODEL 7
REMARK VINA RESULT:      -7.6      1.458      1.899
REMARK  Name = 
REMARK  6 active torsions:
REMARK  status: ('A' for Active; 'I' for Inactive)
REMARK    1  A    between atoms: C_1  and  C_2
REMARK    2  A    between atoms: C_6  and  N_7
REMARK    3  A    between atoms: C_8  and  C_10
REMARK    4  A    between atoms: C_13  and  N_14
REMARK    5  A    between atoms: N_17  and  C_18
REMARK    6  A    between atoms: C_25  and  C_26
REMARK                            x       y       z     vdW  Elec       q    Type
REMARK                         _______ _______ _______ _____ _____    ______ ____
ROOT
ATOM      1  N   UNL     1       1.806   8.041  18.960  0.00  0.00    +0.000 N 
ATOM      2  C   UNL     1       1.461   9.291  18.471  0.00  0.00    +0.000 C 
ATOM      3  O   UNL     1       1.854   9.799  17.424  0.00  0.00    +0.000 OA
ATOM      4  H   UNL     1       1.404   7.717  19.827  0.00  0.00    +0.000 HD
ENDROOT
BRANCH   1  10
ATOM      5  C   UNL     1       6.935   4.336  15.345  0.00  0.00    +0.000 C 
ATOM      6  C   UNL     1       5.725   4.748  16.143  0.00  0.00    +0.000 A 
ATOM      7  C   UNL     1       5.482   6.031  16.459  0.00  0.00    +0.000 A 
ATOM      8  N   UNL     1       4.342   6.337  17.189  0.00  0.00    +0.000 N 
ATOM      9  C   UNL     1       3.822   7.517  17.657  0.00  0.00    +0.000 A 
ATOM     10  C   UNL     1       2.656   7.164  18.312  0.00  0.00    +0.000 A 
ATOM     11  N   UNL     1       2.462   5.811  18.251  0.00  0.00    +0.000 NA
ATOM     12  C   UNL     1       3.487   5.342  17.578  0.00  0.00    +0.000 A 
ATOM     13  C   UNL     1       3.813   3.982  17.209  0.00  0.00    +0.000 A 
ATOM     14  C   UNL     1       2.897   2.861  17.622  0.00  0.00    +0.000 C 
ATOM     15  N   UNL     1       4.883   3.703  16.523  0.00  0.00    +0.000 NA
ENDBRANCH   1  10
BRANCH   2  16
ATOM     16  C   UNL     1       0.536  10.107  19.320  0.00  0.00    +0.000 A 
ATOM     17  C   UNL     1      -0.577  10.710  18.716  0.00  0.00    +0.000 A 
ATOM     18  C   UNL     1      -1.469  11.495  19.464  0.00  0.00    +0.000 A 
ATOM     19  C   UNL     1      -1.285  11.676  20.844  0.00  0.00    +0.000 A 
ATOM     20  C   UNL     1      -0.158  11.079  21.421  0.00  0.00    +0.000 A 
ATOM     21  C   UNL     1       0.741  10.300  20.688  0.00  0.00    +0.000 A 
BRANCH  19  22
ATOM     22  N   UNL     1      -2.209  12.341  21.627  0.00  0.00    +0.000 N 
ATOM     23  C   UNL     1      -3.450  12.865  21.028  0.00  0.00    +0.000 C 
ATOM     24  C   UNL     1      -3.888  14.134  21.798  0.00  0.00    +0.000 C 
ATOM     25  N   UNL     1      -4.058  13.878  23.249  0.00  0.00    +0.000 NA
ATOM     26  C   UNL     1      -4.432  15.106  23.947  0.00  0.00    +0.000 C 
ATOM     27  C   UNL     1      -2.791  13.329  23.794  0.00  0.00    +0.000 C 
ATOM     28  C   UNL     1      -2.340  12.041  23.062  0.00  0.00    +0.000 C 
ENDBRANCH  19  22
ENDBRANCH   2  16
TORSDOF 3
ENDMDL
MODEL 8
REMARK VINA RESULT:      -7.6      1.649      2.731
REMARK  Name = 
REMARK  6 active torsions:
REMARK  status: ('A' for Active; 'I' for Inactive)
REMARK    1  A    between atoms: C_1  and  C_2
REMARK    2  A    between atoms: C_6  and  N_7
REMARK    3  A    between atoms: C_8  and  C_10
REMARK    4  A    between atoms: C_13  and  N_14
REMARK    5  A    between atoms: N_17  and  C_18
REMARK    6  A    between atoms: C_25  and  C_26
REMARK                            x       y       z     vdW  Elec       q    Type
REMARK                         _______ _______ _______ _____ _____    ______ ____
ROOT
ATOM      1  N   UNL     1       1.187   7.595  21.007  0.00  0.00    +0.000 N 
ATOM      2  C   UNL     1       0.951   8.789  20.345  0.00  0.00    +0.000 C 
ATOM      3  O   UNL     1       1.300   9.070  19.201  0.00  0.00    +0.000 OA
ATOM      4  H   UNL     1       0.834   7.466  21.944  0.00  0.00    +0.000 HD
ENDROOT
BRANCH   1  10
ATOM      5  C   UNL     1       3.885   1.295  18.530  0.00  0.00    +0.000 C 
ATOM      6  C   UNL     1       3.624   2.745  18.842  0.00  0.00    +0.000 A 
ATOM      7  C   UNL     1       2.589   3.136  19.604  0.00  0.00    +0.000 A 
ATOM      8  N   UNL     1       2.416   4.490  19.856  0.00  0.00    +0.000 N 
ATOM      9  C   UNL     1       1.485   5.194  20.578  0.00  0.00    +0.000 A 
ATOM     10  C   UNL     1       1.857   6.521  20.452  0.00  0.00    +0.000 A 
ATOM     11  N   UNL     1       2.981   6.633  19.678  0.00  0.00    +0.000 NA
ATOM     12  C   UNL     1       3.289   5.405  19.333  0.00  0.00    +0.000 A 
ATOM     13  C   UNL     1       4.379   4.915  18.517  0.00  0.00    +0.000 A 
ATOM     14  C   UNL     1       5.358   5.892  17.921  0.00  0.00    +0.000 C 
ATOM     15  N   UNL     1       4.535   3.644  18.286  0.00  0.00    +0.000 NA
ENDBRANCH   1  10
BRANCH   2  16
ATOM     16  C   UNL     1       0.219   9.844  21.113  0.00  0.00    +0.000 A 
ATOM     17  C   UNL     1      -0.019  11.082  20.499  0.00  0.00    +0.000 A 
ATOM     18  C   UNL     1      -0.692  12.110  21.179  0.00  0.00    +0.000 A 
ATOM     19  C   UNL     1      -1.167  11.918  22.486  0.00  0.00    +0.000 A 
ATOM     20  C   UNL     1      -0.903  10.680  23.084  0.00  0.00    +0.000 A 
ATOM     21  C   UNL     1      -0.230   9.650  22.422  0.00  0.00    +0.000 A 
BRANCH  19  22
ATOM     22  N   UNL     1      -1.935  12.864  23.135  0.00  0.00    +0.000 N 
ATOM     23  C   UNL     1      -3.207  12.477  23.775  0.00  0.00    +0.000 C 
ATOM     24  C   UNL     1      -4.185  13.674  23.721  0.00  0.00    +0.000 C 
ATOM     25  N   UNL     1      -3.617  14.891  24.349  0.00  0.00    +0.000 NA
ATOM     26  C   UNL     1      -4.553  16.009  24.244  0.00  0.00    +0.000 C 
ATOM     27  C   UNL     1      -2.330  15.221  23.687  0.00  0.00    +0.000 C 
ATOM     28  C   UNL     1      -1.316  14.051  23.748  0.00  0.00    +0.000 C 
ENDBRANCH  19  22
ENDBRANCH   2  16
TORSDOF 3
ENDMDL
MODEL 9
REMARK VINA RESULT:      -7.5      1.989     10.714
REMARK  Name = 
REMARK  6 active torsions:
REMARK  status: ('A' for Active; 'I' for Inactive)
REMARK    1  A    between atoms: C_1  and  C_2
REMARK    2  A    between atoms: C_6  and  N_7
REMARK    3  A    between atoms: C_8  and  C_10
REMARK    4  A    between atoms: C_13  and  N_14
REMARK    5  A    between atoms: N_17  and  C_18
REMARK    6  A    between atoms: C_25  and  C_26
REMARK                            x       y       z     vdW  Elec       q    Type
REMARK                         _______ _______ _______ _____ _____    ______ ____
ROOT
ATOM      1  N   UNL     1       0.159  10.664  21.595  0.00  0.00    +0.000 N 
ATOM      2  C   UNL     1       0.596  10.567  20.284  0.00  0.00    +0.000 C 
ATOM      3  O   UNL     1       0.525  11.441  19.424  0.00  0.00    +0.000 OA
ATOM      4  H   UNL     1       0.287   9.884  22.223  0.00  0.00    +0.000 HD
ENDROOT
BRANCH   1  10
ATOM      5  C   UNL     1      -3.729  15.918  24.818  0.00  0.00    +0.000 C 
ATOM      6  C   UNL     1      -2.680  15.125  24.082  0.00  0.00    +0.000 A 
ATOM      7  C   UNL     1      -2.801  13.802  23.876  0.00  0.00    +0.000 A 
ATOM      8  N   UNL     1      -1.799  13.138  23.183  0.00  0.00    +0.000 N 
ATOM      9  C   UNL     1      -1.629  11.827  22.815  0.00  0.00    +0.000 A 
ATOM     10  C   UNL     1      -0.424  11.795  22.135  0.00  0.00    +0.000 A 
ATOM     11  N   UNL     1       0.132  13.045  22.085  0.00  0.00    +0.000 NA
ATOM     12  C   UNL     1      -0.709  13.825  22.722  0.00  0.00    +0.000 A 
ATOM     13  C   UNL     1      -0.640  15.247  22.984  0.00  0.00    +0.000 A 
ATOM     14  C   UNL     1       0.545  16.036  22.496  0.00  0.00    +0.000 C 
ATOM     15  N   UNL     1      -1.585  15.863  23.634  0.00  0.00    +0.000 NA
ENDBRANCH   1  10
BRANCH   2  16
ATOM     16  C   UNL     1       1.191   9.255  19.875  0.00  0.00    +0.000 A 
ATOM     17  C   UNL     1       1.284   8.231  20.828  0.00  0.00    +0.000 A 
ATOM     18  C   UNL     1       1.844   6.986  20.501  0.00  0.00    +0.000 A 
ATOM     19  C   UNL     1       2.303   6.723  19.200  0.00  0.00    +0.000 A 
ATOM     20  C   UNL     1       2.215   7.766  18.271  0.00  0.00    +0.000 A 
ATOM     21  C   UNL     1       1.666   9.012  18.584  0.00  0.00    +0.000 A 
BRANCH  19  22
ATOM     22  N   UNL     1       2.746   5.473  18.816  0.00  0.00    +0.000 N 
ATOM     23  C   UNL     1       1.987   4.688  17.824  0.00  0.00    +0.000 C 
ATOM     24  C   UNL     1       2.169   3.181  18.124  0.00  0.00    +0.000 C 
ATOM     25  N   UNL     1       3.597   2.782  18.144  0.00  0.00    +0.000 NA
ATOM     26  C   UNL     1       3.731   1.364  18.469  0.00  0.00    +0.000 C 
ATOM     27  C   UNL     1       4.317   3.618  19.137  0.00  0.00    +0.000 C 
ATOM     28  C   UNL     1       4.178   5.134  18.849  0.00  0.00    +0.000 C 
ENDBRANCH  19  22
ENDBRANCH   2  16
TORSDOF 3
ENDMDL
