MODEL 1
REMARK VINA RESULT:      -9.4      0.000      0.000
REMARK  Name = 
REMARK  7 active torsions:
REMARK  status: ('A' for Active; 'I' for Inactive)
REMARK    1  A    between atoms: C_2  and  N_3
REMARK    2  A    between atoms: C_4  and  C_6
REMARK    3  A    between atoms: C_9  and  N_10
REMARK    4  A    between atoms: C_14  and  C_15
REMARK    5  A    between atoms: N_20  and  C_21
REMARK    6  A    between atoms: C_21  and  C_22
REMARK    7  A    between atoms: N_24  and  C_25
REMARK                            x       y       z     vdW  Elec       q    Type
REMARK                         _______ _______ _______ _____ _____    ______ ____
ROOT
ATOM      1  C   UNL     1       2.144   6.533  19.413  0.00  0.00    +0.000 C 
ATOM      2  C   UNL     1       1.828   7.640  20.097  0.00  0.00    +0.000 C 
ATOM      3  N   UNL     1       1.779   7.793  21.452  0.00  0.00    +0.000 N 
ATOM      4  C   UNL     1       1.363   9.072  21.766  0.00  0.00    +0.000 C 
ATOM      5  O   UNL     1       1.176   9.504  22.891  0.00  0.00    +0.000 OA
ATOM      6  N   UNL     1       1.169   9.752  20.587  0.00  0.00    +0.000 N 
ATOM      7  C   UNL     1       1.431   8.951  19.502  0.00  0.00    +0.000 C 
ATOM      8  O   UNL     1       1.357   9.212  18.317  0.00  0.00    +0.000 OA
ATOM      9  H   UNL     1       2.022   7.088  22.134  0.00  0.00    +0.000 HD
ENDROOT
BRANCH   1  14
ATOM     10  N   UNL     1       3.291   4.357  19.572  0.00  0.00    +0.000 N 
ATOM     11  C   UNL     1       3.155   3.223  20.356  0.00  0.00    +0.000 A 
ATOM     12  C   UNL     1       2.324   3.495  21.418  0.00  0.00    +0.000 A 
ATOM     13  C   UNL     1       1.882   4.824  21.268  0.00  0.00    +0.000 A 
ATOM     14  C   UNL     1       2.438   5.327  20.106  0.00  0.00    +0.000 A 
BRANCH  10  18
ATOM     15  C   UNL     1       5.786   4.560  16.141  0.00  0.00    +0.000 A 
ATOM     16  C   UNL     1       4.465   4.105  16.041  0.00  0.00    +0.000 A 
ATOM     17  C   UNL     1       3.645   4.037  17.172  0.00  0.00    +0.000 A 
ATOM     18  C   UNL     1       4.136   4.439  18.422  0.00  0.00    +0.000 A 
ATOM     19  C   UNL     1       5.461   4.880  18.528  0.00  0.00    +0.000 A 
ATOM     20  C   UNL     1       6.286   4.931  17.395  0.00  0.00    +0.000 A 
BRANCH  15  22
ATOM     21  N   UNL     1       6.163   3.827  13.844  0.00  0.00    +0.000 N 
ATOM     22  C   UNL     1       6.608   4.588  14.898  0.00  0.00    +0.000 C 
ATOM     23  O   UNL     1       7.644   5.243  14.872  0.00  0.00    +0.000 OA
ATOM     24  H   UNL     1       5.373   3.222  13.966  0.00  0.00    +0.000 HD
BRANCH  21  26
ATOM     25  N   UNL     1       7.221   3.579  11.591  0.00  0.00    +0.000 NA
ATOM     26  C   UNL     1       6.746   3.653  12.642  0.00  0.00    +0.000 C 
ENDBRANCH  21  26
ENDBRANCH  15  22
ENDBRANCH  10  18
ENDBRANCH   1  14
BRANCH   6  27
ATOM     27  C   UNL     1       0.820  11.151  20.499  0.00  0.00    +0.000 C 
BRANCH  27  28
ATOM     28  C   UNL     1      -0.680  11.395  20.352  0.00  0.00    +0.000 C 
ATOM     29  O   UNL     1      -1.404  11.386  21.348  0.00  0.00    +0.000 OA
ATOM     30  N   UNL     1      -1.162  11.406  19.048  0.00  0.00    +0.000 N 
ATOM     31  H   UNL     1      -0.599  10.913  18.360  0.00  0.00    +0.000 HD
BRANCH  30  32
ATOM     32  C   UNL     1      -2.544  11.532  18.774  0.00  0.00    +0.000 A 
ATOM     33  C   UNL     1      -3.379  12.339  19.560  0.00  0.00    +0.000 A 
ATOM     34  C   UNL     1      -4.748  12.415  19.291  0.00  0.00    +0.000 A 
ATOM     35  C   UNL     1      -5.289  11.663  18.251  0.00  0.00    +0.000 A 
ATOM     36 CL   UNL     1      -6.982  11.712  17.949  0.00  0.00    +0.000 Cl
ATOM     37  C   UNL     1      -4.466  10.863  17.459  0.00  0.00    +0.000 A 
ATOM     38  C   UNL     1      -3.087  10.821  17.702  0.00  0.00    +0.000 A 
ENDBRANCH  30  32
ENDBRANCH  27  28
ENDBRANCH   6  27
TORSDOF 7
ENDMDL
MODEL 2
REMARK VINA RESULT:      -9.3      2.024      2.335
REMARK  Name = 
REMARK  7 active torsions:
REMARK  status: ('A' for Active; 'I' for Inactive)
REMARK    1  A    between atoms: C_2  and  N_3
REMARK    2  A    between atoms: C_4  and  C_6
REMARK    3  A    between atoms: C_9  and  N_10
REMARK    4  A    between atoms: C_14  and  C_15
REMARK    5  A    between atoms: N_20  and  C_21
REMARK    6  A    between atoms: C_21  and  C_22
REMARK    7  A    between atoms: N_24  and  C_25
REMARK                            x       y       z     vdW  Elec       q    Type
REMARK                         _______ _______ _______ _____ _____    ______ ____
ROOT
ATOM      1  C   UNL     1       2.186   6.506  19.354  0.00  0.00    +0.000 C 
ATOM      2  C   UNL     1       1.868   7.619  20.025  0.00  0.00    +0.000 C 
ATOM      3  N   UNL     1       1.807   7.785  21.379  0.00  0.00    +0.000 N 
ATOM      4  C   UNL     1       1.394   9.068  21.677  0.00  0.00    +0.000 C 
ATOM      5  O   UNL     1       1.197   9.511  22.796  0.00  0.00    +0.000 OA
ATOM      6  N   UNL     1       1.214   9.738  20.490  0.00  0.00    +0.000 N 
ATOM      7  C   UNL     1       1.483   8.927  19.415  0.00  0.00    +0.000 C 
ATOM      8  O   UNL     1       1.421   9.178  18.227  0.00  0.00    +0.000 OA
ATOM      9  H   UNL     1       2.040   7.085  22.068  0.00  0.00    +0.000 HD
ENDROOT
BRANCH   1  14
ATOM     10  N   UNL     1       3.319   4.324  19.542  0.00  0.00    +0.000 N 
ATOM     11  C   UNL     1       3.172   3.198  20.335  0.00  0.00    +0.000 A 
ATOM     12  C   UNL     1       2.335   3.485  21.388  0.00  0.00    +0.000 A 
ATOM     13  C   UNL     1       1.901   4.816  21.223  0.00  0.00    +0.000 A 
ATOM     14  C   UNL     1       2.468   5.305  20.060  0.00  0.00    +0.000 A 
BRANCH  10  18
ATOM     15  C   UNL     1       5.835   4.484  16.123  0.00  0.00    +0.000 A 
ATOM     16  C   UNL     1       4.475   4.171  15.999  0.00  0.00    +0.000 A 
ATOM     17  C   UNL     1       3.648   4.118  17.125  0.00  0.00    +0.000 A 
ATOM     18  C   UNL     1       4.173   4.391  18.396  0.00  0.00    +0.000 A 
ATOM     19  C   UNL     1       5.535   4.689  18.526  0.00  0.00    +0.000 A 
ATOM     20  C   UNL     1       6.366   4.725  17.397  0.00  0.00    +0.000 A 
BRANCH  15  22
ATOM     21  N   UNL     1       6.199   3.765  13.819  0.00  0.00    +0.000 N 
ATOM     22  C   UNL     1       6.661   4.504  14.882  0.00  0.00    +0.000 C 
ATOM     23  O   UNL     1       7.713   5.134  14.865  0.00  0.00    +0.000 OA
ATOM     24  H   UNL     1       5.395   3.179  13.934  0.00  0.00    +0.000 HD
BRANCH  21  26
ATOM     25  N   UNL     1       7.206   3.445  11.552  0.00  0.00    +0.000 NA
ATOM     26  C   UNL     1       6.781   3.590  12.617  0.00  0.00    +0.000 C 
ENDBRANCH  21  26
ENDBRANCH  15  22
ENDBRANCH  10  18
ENDBRANCH   1  14
BRANCH   6  27
ATOM     27  C   UNL     1       0.871  11.138  20.386  0.00  0.00    +0.000 C 
BRANCH  27  28
ATOM     28  C   UNL     1      -0.578  11.438  20.758  0.00  0.00    +0.000 C 
ATOM     29  O   UNL     1      -1.483  11.173  19.966  0.00  0.00    +0.000 OA
ATOM     30  N   UNL     1      -0.759  12.197  21.909  0.00  0.00    +0.000 N 
ATOM     31  H   UNL     1       0.029  12.774  22.191  0.00  0.00    +0.000 HD
BRANCH  30  32
ATOM     32  C   UNL     1      -2.045  12.621  22.318  0.00  0.00    +0.000 A 
ATOM     33  C   UNL     1      -2.700  13.691  21.692  0.00  0.00    +0.000 A 
ATOM     34  C   UNL     1      -3.954  14.114  22.142  0.00  0.00    +0.000 A 
ATOM     35  C   UNL     1      -4.542  13.485  23.237  0.00  0.00    +0.000 A 
ATOM     36 CL   UNL     1      -6.060  14.036  23.827  0.00  0.00    +0.000 Cl
ATOM     37  C   UNL     1      -3.901  12.416  23.861  0.00  0.00    +0.000 A 
ATOM     38  C   UNL     1      -2.665  11.964  23.382  0.00  0.00    +0.000 A 
ENDBRANCH  30  32
ENDBRANCH  27  28
ENDBRANCH   6  27
TORSDOF 7
ENDMDL
MODEL 3
REMARK VINA RESULT:      -9.0      2.109      2.536
REMARK  Name = 
REMARK  7 active torsions:
REMARK  status: ('A' for Active; 'I' for Inactive)
REMARK    1  A    between atoms: C_2  and  N_3
REMARK    2  A    between atoms: C_4  and  C_6
REMARK    3  A    between atoms: C_9  and  N_10
REMARK    4  A    between atoms: C_14  and  C_15
REMARK    5  A    between atoms: N_20  and  C_21
REMARK    6  A    between atoms: C_21  and  C_22
REMARK    7  A    between atoms: N_24  and  C_25
REMARK                            x       y       z     vdW  Elec       q    Type
REMARK                         _______ _______ _______ _____ _____    ______ ____
ROOT
ATOM      1  C   UNL     1       2.117   6.474  19.302  0.00  0.00    +0.000 C 
ATOM      2  C   UNL     1       1.837   7.608  19.953  0.00  0.00    +0.000 C 
ATOM      3  N   UNL     1       1.836   7.813  21.303  0.00  0.00    +0.000 N 
ATOM      4  C   UNL     1       1.445   9.108  21.583  0.00  0.00    +0.000 C 
ATOM      5  O   UNL     1       1.302   9.584  22.696  0.00  0.00    +0.000 OA
ATOM      6  N   UNL     1       1.217   9.745  20.386  0.00  0.00    +0.000 N 
ATOM      7  C   UNL     1       1.432   8.901  19.323  0.00  0.00    +0.000 C 
ATOM      8  O   UNL     1       1.319   9.118  18.133  0.00  0.00    +0.000 OA
ATOM      9  H   UNL     1       2.096   7.132  22.002  0.00  0.00    +0.000 HD
ENDROOT
BRANCH   1  14
ATOM     10  N   UNL     1       3.272   4.306  19.517  0.00  0.00    +0.000 N 
ATOM     11  C   UNL     1       3.149   3.197  20.339  0.00  0.00    +0.000 A 
ATOM     12  C   UNL     1       2.330   3.501  21.401  0.00  0.00    +0.000 A 
ATOM     13  C   UNL     1       1.882   4.824  21.214  0.00  0.00    +0.000 A 
ATOM     14  C   UNL     1       2.422   5.291  20.030  0.00  0.00    +0.000 A 
BRANCH  10  18
ATOM     15  C   UNL     1       5.746   4.494  16.070  0.00  0.00    +0.000 A 
ATOM     16  C   UNL     1       6.137   5.108  17.267  0.00  0.00    +0.000 A 
ATOM     17  C   UNL     1       5.320   5.046  18.401  0.00  0.00    +0.000 A 
ATOM     18  C   UNL     1       4.102   4.354  18.354  0.00  0.00    +0.000 A 
ATOM     19  C   UNL     1       3.702   3.752  17.154  0.00  0.00    +0.000 A 
ATOM     20  C   UNL     1       4.514   3.830  16.014  0.00  0.00    +0.000 A 
BRANCH  15  22
ATOM     21  N   UNL     1       6.235   4.042  13.721  0.00  0.00    +0.000 N 
ATOM     22  C   UNL     1       6.657   4.616  14.897  0.00  0.00    +0.000 C 
ATOM     23  O   UNL     1       7.739   5.179  15.027  0.00  0.00    +0.000 OA
ATOM     24  H   UNL     1       5.395   3.496  13.709  0.00  0.00    +0.000 HD
BRANCH  21  26
ATOM     25  N   UNL     1       7.396   3.878  11.512  0.00  0.00    +0.000 NA
ATOM     26  C   UNL     1       6.891   3.981  12.547  0.00  0.00    +0.000 C 
ENDBRANCH  21  26
ENDBRANCH  15  22
ENDBRANCH  10  18
ENDBRANCH   1  14
BRANCH   6  27
ATOM     27  C   UNL     1       0.879  11.144  20.256  0.00  0.00    +0.000 C 
BRANCH  27  28
ATOM     28  C   UNL     1      -0.528  11.476  20.744  0.00  0.00    +0.000 C 
ATOM     29  O   UNL     1      -1.498  11.265  20.014  0.00  0.00    +0.000 OA
ATOM     30  N   UNL     1      -0.598  12.204  21.928  0.00  0.00    +0.000 N 
ATOM     31  H   UNL     1       0.227  12.747  22.166  0.00  0.00    +0.000 HD
BRANCH  30  32
ATOM     32  C   UNL     1      -1.836  12.654  22.444  0.00  0.00    +0.000 A 
ATOM     33  C   UNL     1      -2.547  11.916  23.399  0.00  0.00    +0.000 A 
ATOM     34  C   UNL     1      -3.787  12.365  23.863  0.00  0.00    +0.000 A 
ATOM     35  C   UNL     1      -4.329  13.542  23.351  0.00  0.00    +0.000 A 
ATOM     36 CL   UNL     1      -5.877  14.072  23.879  0.00  0.00    +0.000 Cl
ATOM     37  C   UNL     1      -3.625  14.287  22.405  0.00  0.00    +0.000 A 
ATOM     38  C   UNL     1      -2.364  13.858  21.973  0.00  0.00    +0.000 A 
ENDBRANCH  30  32
ENDBRANCH  27  28
ENDBRANCH   6  27
TORSDOF 7
ENDMDL
MODEL 4
REMARK VINA RESULT:      -8.9      0.606      1.071
REMARK  Name = 
REMARK  7 active torsions:
REMARK  status: ('A' for Active; 'I' for Inactive)
REMARK    1  A    between atoms: C_2  and  N_3
REMARK    2  A    between atoms: C_4  and  C_6
REMARK    3  A    between atoms: C_9  and  N_10
REMARK    4  A    between atoms: C_14  and  C_15
REMARK    5  A    between atoms: N_20  and  C_21
REMARK    6  A    between atoms: C_21  and  C_22
REMARK    7  A    between atoms: N_24  and  C_25
REMARK                            x       y       z     vdW  Elec       q    Type
REMARK                         _______ _______ _______ _____ _____    ______ ____
ROOT
ATOM      1  C   UNL     1       2.126   6.644  19.370  0.00  0.00    +0.000 C 
ATOM      2  C   UNL     1       1.803   7.727  20.086  0.00  0.00    +0.000 C 
ATOM      3  N   UNL     1       1.753   7.839  21.446  0.00  0.00    +0.000 N 
ATOM      4  C   UNL     1       1.330   9.105  21.799  0.00  0.00    +0.000 C 
ATOM      5  O   UNL     1       1.140   9.502  22.936  0.00  0.00    +0.000 OA
ATOM      6  N   UNL     1       1.132   9.819  20.641  0.00  0.00    +0.000 N 
ATOM      7  C   UNL     1       1.399   9.053  19.532  0.00  0.00    +0.000 C 
ATOM      8  O   UNL     1       1.323   9.350  18.356  0.00  0.00    +0.000 OA
ATOM      9  H   UNL     1       2.000   7.115  22.106  0.00  0.00    +0.000 HD
ENDROOT
BRANCH   1  14
ATOM     10  N   UNL     1       3.265   4.458  19.451  0.00  0.00    +0.000 N 
ATOM     11  C   UNL     1       3.138   3.305  20.208  0.00  0.00    +0.000 A 
ATOM     12  C   UNL     1       2.329   3.554  21.292  0.00  0.00    +0.000 A 
ATOM     13  C   UNL     1       1.891   4.889  21.185  0.00  0.00    +0.000 A 
ATOM     14  C   UNL     1       2.427   5.419  20.026  0.00  0.00    +0.000 A 
BRANCH  10  18
ATOM     15  C   UNL     1       5.716   4.734  15.994  0.00  0.00    +0.000 A 
ATOM     16  C   UNL     1       4.743   3.733  16.104  0.00  0.00    +0.000 A 
ATOM     17  C   UNL     1       3.937   3.643  17.244  0.00  0.00    +0.000 A 
ATOM     18  C   UNL     1       4.088   4.567  18.287  0.00  0.00    +0.000 A 
ATOM     19  C   UNL     1       5.071   5.560  18.186  0.00  0.00    +0.000 A 
ATOM     20  C   UNL     1       5.889   5.638  17.050  0.00  0.00    +0.000 A 
BRANCH  15  22
ATOM     21  N   UNL     1       6.121   3.990  13.705  0.00  0.00    +0.000 N 
ATOM     22  C   UNL     1       6.551   4.759  14.759  0.00  0.00    +0.000 C 
ATOM     23  O   UNL     1       7.585   5.419  14.741  0.00  0.00    +0.000 OA
ATOM     24  H   UNL     1       5.332   3.383  13.822  0.00  0.00    +0.000 HD
BRANCH  21  26
ATOM     25  N   UNL     1       7.242   3.583  11.506  0.00  0.00    +0.000 NA
ATOM     26  C   UNL     1       6.718   3.813  12.510  0.00  0.00    +0.000 C 
ENDBRANCH  21  26
ENDBRANCH  15  22
ENDBRANCH  10  18
ENDBRANCH   1  14
BRANCH   6  27
ATOM     27  C   UNL     1       0.774  11.218  20.595  0.00  0.00    +0.000 C 
BRANCH  27  28
ATOM     28  C   UNL     1      -0.729  11.465  20.695  0.00  0.00    +0.000 C 
ATOM     29  O   UNL     1      -1.364  11.007  21.646  0.00  0.00    +0.000 OA
ATOM     30  N   UNL     1      -1.322  12.029  19.572  0.00  0.00    +0.000 N 
ATOM     31  H   UNL     1      -0.827  11.898  18.693  0.00  0.00    +0.000 HD
BRANCH  30  32
ATOM     32  C   UNL     1      -2.720  12.229  19.498  0.00  0.00    +0.000 A 
ATOM     33  C   UNL     1      -3.507  11.577  18.538  0.00  0.00    +0.000 A 
ATOM     34  C   UNL     1      -4.881  11.823  18.462  0.00  0.00    +0.000 A 
ATOM     35  C   UNL     1      -5.466  12.741  19.331  0.00  0.00    +0.000 A 
ATOM     36 CL   UNL     1      -7.146  13.085  19.208  0.00  0.00    +0.000 Cl
ATOM     37  C   UNL     1      -4.693  13.388  20.295  0.00  0.00    +0.000 A 
ATOM     38  C   UNL     1      -3.324  13.109  20.398  0.00  0.00    +0.000 A 
ENDBRANCH  30  32
ENDBRANCH  27  28
ENDBRANCH   6  27
TORSDOF 7
ENDMDL
MODEL 5
REMARK VINA RESULT:      -8.8      4.907      9.143
REMARK  Name = 
REMARK  7 active torsions:
REMARK  status: ('A' for Active; 'I' for Inactive)
REMARK    1  A    between atoms: C_2  and  N_3
REMARK    2  A    between atoms: C_4  and  C_6
REMARK    3  A    between atoms: C_9  and  N_10
REMARK    4  A    between atoms: C_14  and  C_15
REMARK    5  A    between atoms: N_20  and  C_21
REMARK    6  A    between atoms: C_21  and  C_22
REMARK    7  A    between atoms: N_24  and  C_25
REMARK                            x       y       z     vdW  Elec       q    Type
REMARK                         _______ _______ _______ _____ _____    ______ ____
ROOT
ATOM      1  C   UNL     1       4.624   4.324  19.549  0.00  0.00    +0.000 C 
ATOM      2  C   UNL     1       5.359   5.063  18.709  0.00  0.00    +0.000 C 
ATOM      3  N   UNL     1       5.059   5.400  17.420  0.00  0.00    +0.000 N 
ATOM      4  C   UNL     1       6.095   6.131  16.872  0.00  0.00    +0.000 C 
ATOM      5  O   UNL     1       6.149   6.540  15.724  0.00  0.00    +0.000 OA
ATOM      6  N   UNL     1       7.060   6.282  17.840  0.00  0.00    +0.000 N 
ATOM      7  C   UNL     1       6.696   5.658  19.008  0.00  0.00    +0.000 C 
ATOM      8  O   UNL     1       7.301   5.577  20.058  0.00  0.00    +0.000 OA
ATOM      9  H   UNL     1       4.205   5.169  16.934  0.00  0.00    +0.000 HD
ENDROOT
BRANCH   1  14
ATOM     10  N   UNL     1       2.189   4.461  19.190  0.00  0.00    +0.000 N 
ATOM     11  C   UNL     1       1.174   3.552  18.938  0.00  0.00    +0.000 A 
ATOM     12  C   UNL     1       1.720   2.335  18.606  0.00  0.00    +0.000 A 
ATOM     13  C   UNL     1       3.119   2.467  18.702  0.00  0.00    +0.000 A 
ATOM     14  C   UNL     1       3.395   3.759  19.112  0.00  0.00    +0.000 A 
BRANCH  10  18
ATOM     15  C   UNL     1       1.503   8.544  20.138  0.00  0.00    +0.000 A 
ATOM     16  C   UNL     1       1.242   7.537  21.076  0.00  0.00    +0.000 A 
ATOM     17  C   UNL     1       1.467   6.193  20.762  0.00  0.00    +0.000 A 
ATOM     18  C   UNL     1       1.972   5.839  19.503  0.00  0.00    +0.000 A 
ATOM     19  C   UNL     1       2.218   6.843  18.557  0.00  0.00    +0.000 A 
ATOM     20  C   UNL     1       1.975   8.189  18.869  0.00  0.00    +0.000 A 
BRANCH  15  22
ATOM     21  N   UNL     1       1.041  10.859  19.518  0.00  0.00    +0.000 N 
ATOM     22  C   UNL     1       1.221   9.953  20.535  0.00  0.00    +0.000 C 
ATOM     23  O   UNL     1       1.196  10.253  21.724  0.00  0.00    +0.000 OA
ATOM     24  H   UNL     1       1.190  10.576  18.568  0.00  0.00    +0.000 HD
BRANCH  21  26
ATOM     25  N   UNL     1       0.580  13.315  19.639  0.00  0.00    +0.000 NA
ATOM     26  C   UNL     1       0.820  12.184  19.617  0.00  0.00    +0.000 C 
ENDBRANCH  21  26
ENDBRANCH  15  22
ENDBRANCH  10  18
ENDBRANCH   1  14
BRANCH   6  27
ATOM     27  C   UNL     1       8.261   7.068  17.679  0.00  0.00    +0.000 C 
BRANCH  27  28
ATOM     28  C   UNL     1       8.104   8.518  18.129  0.00  0.00    +0.000 C 
ATOM     29  O   UNL     1       7.197   9.211  17.664  0.00  0.00    +0.000 OA
ATOM     30  N   UNL     1       9.146   9.027  18.897  0.00  0.00    +0.000 N 
ATOM     31  H   UNL     1      10.043   8.560  18.795  0.00  0.00    +0.000 HD
BRANCH  30  32
ATOM     32  C   UNL     1       9.169  10.381  19.305  0.00  0.00    +0.000 A 
ATOM     33  C   UNL     1       9.135  10.742  20.659  0.00  0.00    +0.000 A 
ATOM     34  C   UNL     1       9.119  12.089  21.032  0.00  0.00    +0.000 A 
ATOM     35  C   UNL     1       9.110  13.077  20.050  0.00  0.00    +0.000 A 
ATOM     36 CL   UNL     1       9.037  14.734  20.503  0.00  0.00    +0.000 Cl
ATOM     37  C   UNL     1       9.150  12.727  18.701  0.00  0.00    +0.000 A 
ATOM     38  C   UNL     1       9.210  11.378  18.328  0.00  0.00    +0.000 A 
ENDBRANCH  30  32
ENDBRANCH  27  28
ENDBRANCH   6  27
TORSDOF 7
ENDMDL
MODEL 6
REMARK VINA RESULT:      -8.7      2.281      2.566
REMARK  Name = 
REMARK  7 active torsions:
REMARK  status: ('A' for Active; 'I' for Inactive)
REMARK    1  A    between atoms: C_2  and  N_3
REMARK    2  A    between atoms: C_4  and  C_6
REMARK    3  A    between atoms: C_9  and  N_10
REMARK    4  A    between atoms: C_14  and  C_15
REMARK    5  A    between atoms: N_20  and  C_21
REMARK    6  A    between atoms: C_21  and  C_22
REMARK    7  A    between atoms: N_24  and  C_25
REMARK                            x       y       z     vdW  Elec       q    Type
REMARK                         _______ _______ _______ _____ _____    ______ ____
ROOT
ATOM      1  C   UNL     1       2.122   6.541  19.357  0.00  0.00    +0.000 C 
ATOM      2  C   UNL     1       1.830   7.658  20.033  0.00  0.00    +0.000 C 
ATOM      3  N   UNL     1       1.788   7.821  21.388  0.00  0.00    +0.000 N 
ATOM      4  C   UNL     1       1.399   9.110  21.695  0.00  0.00    +0.000 C 
ATOM      5  O   UNL     1       1.223   9.553  22.817  0.00  0.00    +0.000 OA
ATOM      6  N   UNL     1       1.215   9.786  20.511  0.00  0.00    +0.000 N 
ATOM      7  C   UNL     1       1.458   8.973  19.431  0.00  0.00    +0.000 C 
ATOM      8  O   UNL     1       1.385   9.227  18.245  0.00  0.00    +0.000 OA
ATOM      9  H   UNL     1       2.018   7.116  22.074  0.00  0.00    +0.000 HD
ENDROOT
BRANCH   1  14
ATOM     10  N   UNL     1       3.233   4.347  19.532  0.00  0.00    +0.000 N 
ATOM     11  C   UNL     1       3.076   3.219  20.321  0.00  0.00    +0.000 A 
ATOM     12  C   UNL     1       2.245   3.510  21.377  0.00  0.00    +0.000 A 
ATOM     13  C   UNL     1       1.824   4.845  21.220  0.00  0.00    +0.000 A 
ATOM     14  C   UNL     1       2.393   5.334  20.057  0.00  0.00    +0.000 A 
BRANCH  10  18
ATOM     15  C   UNL     1       5.749   4.491  16.113  0.00  0.00    +0.000 A 
ATOM     16  C   UNL     1       4.467   3.931  16.037  0.00  0.00    +0.000 A 
ATOM     17  C   UNL     1       3.640   3.883  17.164  0.00  0.00    +0.000 A 
ATOM     18  C   UNL     1       4.084   4.410  18.385  0.00  0.00    +0.000 A 
ATOM     19  C   UNL     1       5.371   4.956  18.468  0.00  0.00    +0.000 A 
ATOM     20  C   UNL     1       6.205   4.987  17.341  0.00  0.00    +0.000 A 
BRANCH  15  22
ATOM     21  N   UNL     1       7.481   5.520  14.736  0.00  0.00    +0.000 N 
ATOM     22  C   UNL     1       6.583   4.491  14.877  0.00  0.00    +0.000 C 
ATOM     23  O   UNL     1       6.416   3.614  14.035  0.00  0.00    +0.000 OA
ATOM     24  H   UNL     1       7.488   6.269  15.402  0.00  0.00    +0.000 HD
BRANCH  21  26
ATOM     25  N   UNL     1       9.008   5.893  12.790  0.00  0.00    +0.000 NA
ATOM     26  C   UNL     1       8.307   5.763  13.700  0.00  0.00    +0.000 C 
ENDBRANCH  21  26
ENDBRANCH  15  22
ENDBRANCH  10  18
ENDBRANCH   1  14
BRANCH   6  27
ATOM     27  C   UNL     1       0.894  11.191  20.414  0.00  0.00    +0.000 C 
BRANCH  27  28
ATOM     28  C   UNL     1      -0.530  11.520  20.854  0.00  0.00    +0.000 C 
ATOM     29  O   UNL     1      -1.472  11.321  20.086  0.00  0.00    +0.000 OA
ATOM     30  N   UNL     1      -0.643  12.231  22.044  0.00  0.00    +0.000 N 
ATOM     31  H   UNL     1       0.174  12.769  22.321  0.00  0.00    +0.000 HD
BRANCH  30  32
ATOM     32  C   UNL     1      -1.898  12.678  22.520  0.00  0.00    +0.000 A 
ATOM     33  C   UNL     1      -2.625  11.950  23.472  0.00  0.00    +0.000 A 
ATOM     34  C   UNL     1      -3.881  12.394  23.896  0.00  0.00    +0.000 A 
ATOM     35  C   UNL     1      -4.423  13.554  23.347  0.00  0.00    +0.000 A 
ATOM     36 CL   UNL     1      -5.989  14.077  23.826  0.00  0.00    +0.000 Cl
ATOM     37  C   UNL     1      -3.704  14.289  22.405  0.00  0.00    +0.000 A 
ATOM     38  C   UNL     1      -2.427  13.866  22.013  0.00  0.00    +0.000 A 
ENDBRANCH  30  32
ENDBRANCH  27  28
ENDBRANCH   6  27
TORSDOF 7
ENDMDL
MODEL 7
REMARK VINA RESULT:      -8.7      4.891      9.188
REMARK  Name = 
REMARK  7 active torsions:
REMARK  status: ('A' for Active; 'I' for Inactive)
REMARK    1  A    between atoms: C_2  and  N_3
REMARK    2  A    between atoms: C_4  and  C_6
REMARK    3  A    between atoms: C_9  and  N_10
REMARK    4  A    between atoms: C_14  and  C_15
REMARK    5  A    between atoms: N_20  and  C_21
REMARK    6  A    between atoms: C_21  and  C_22
REMARK    7  A    between atoms: N_24  and  C_25
REMARK                            x       y       z     vdW  Elec       q    Type
REMARK                         _______ _______ _______ _____ _____    ______ ____
ROOT
ATOM      1  C   UNL     1       4.727   4.135  19.565  0.00  0.00    +0.000 C 
ATOM      2  C   UNL     1       5.415   4.884  18.695  0.00  0.00    +0.000 C 
ATOM      3  N   UNL     1       5.078   5.179  17.405  0.00  0.00    +0.000 N 
ATOM      4  C   UNL     1       6.072   5.940  16.822  0.00  0.00    +0.000 C 
ATOM      5  O   UNL     1       6.088   6.324  15.665  0.00  0.00    +0.000 OA
ATOM      6  N   UNL     1       7.047   6.153  17.767  0.00  0.00    +0.000 N 
ATOM      7  C   UNL     1       6.731   5.540  18.956  0.00  0.00    +0.000 C 
ATOM      8  O   UNL     1       7.358   5.509  19.996  0.00  0.00    +0.000 OA
ATOM      9  H   UNL     1       4.226   4.901  16.941  0.00  0.00    +0.000 HD
ENDROOT
BRANCH   1  14
ATOM     10  N   UNL     1       2.299   4.198  19.143  0.00  0.00    +0.000 N 
ATOM     11  C   UNL     1       1.301   3.253  18.966  0.00  0.00    +0.000 A 
ATOM     12  C   UNL     1       1.869   2.015  18.775  0.00  0.00    +0.000 A 
ATOM     13  C   UNL     1       3.265   2.177  18.886  0.00  0.00    +0.000 A 
ATOM     14  C   UNL     1       3.516   3.509  19.164  0.00  0.00    +0.000 A 
BRANCH  10  18
ATOM     15  C   UNL     1       1.544   8.347  19.648  0.00  0.00    +0.000 A 
ATOM     16  C   UNL     1       1.414   7.458  20.723  0.00  0.00    +0.000 A 
ATOM     17  C   UNL     1       1.662   6.092  20.555  0.00  0.00    +0.000 A 
ATOM     18  C   UNL     1       2.058   5.597  19.305  0.00  0.00    +0.000 A 
ATOM     19  C   UNL     1       2.174   6.481  18.224  0.00  0.00    +0.000 A 
ATOM     20  C   UNL     1       1.908   7.848  18.391  0.00  0.00    +0.000 A 
BRANCH  15  22
ATOM     21  N   UNL     1       0.728  10.109  21.127  0.00  0.00    +0.000 N 
ATOM     22  C   UNL     1       1.245   9.786  19.896  0.00  0.00    +0.000 C 
ATOM     23  O   UNL     1       1.434  10.605  19.003  0.00  0.00    +0.000 OA
ATOM     24  H   UNL     1       0.487   9.380  21.771  0.00  0.00    +0.000 HD
BRANCH  21  26
ATOM     25  N   UNL     1      -0.038  12.366  21.885  0.00  0.00    +0.000 NA
ATOM     26  C   UNL     1       0.340  11.319  21.571  0.00  0.00    +0.000 C 
ENDBRANCH  21  26
ENDBRANCH  15  22
ENDBRANCH  10  18
ENDBRANCH   1  14
BRANCH   6  27
ATOM     27  C   UNL     1       8.211   6.984  17.567  0.00  0.00    +0.000 C 
BRANCH  27  28
ATOM     28  C   UNL     1       8.012   8.428  18.019  0.00  0.00    +0.000 C 
ATOM     29  O   UNL     1       7.038   9.068  17.620  0.00  0.00    +0.000 OA
ATOM     30  N   UNL     1       9.081   8.997  18.703  0.00  0.00    +0.000 N 
ATOM     31  H   UNL     1       9.991   8.577  18.536  0.00  0.00    +0.000 HD
BRANCH  30  32
ATOM     32  C   UNL     1       9.064  10.355  19.100  0.00  0.00    +0.000 A 
ATOM     33  C   UNL     1       8.985  11.394  18.164  0.00  0.00    +0.000 A 
ATOM     34  C   UNL     1       9.009  12.728  18.582  0.00  0.00    +0.000 A 
ATOM     35  C   UNL     1       9.138  13.023  19.937  0.00  0.00    +0.000 A 
ATOM     36 CL   UNL     1       9.221  14.662  20.452  0.00  0.00    +0.000 Cl
ATOM     37  C   UNL     1       9.209  11.996  20.877  0.00  0.00    +0.000 A 
ATOM     38  C   UNL     1       9.141  10.660  20.461  0.00  0.00    +0.000 A 
ENDBRANCH  30  32
ENDBRANCH  27  28
ENDBRANCH   6  27
TORSDOF 7
ENDMDL
MODEL 8
REMARK VINA RESULT:      -8.7      4.951      9.142
REMARK  Name = 
REMARK  7 active torsions:
REMARK  status: ('A' for Active; 'I' for Inactive)
REMARK    1  A    between atoms: C_2  and  N_3
REMARK    2  A    between atoms: C_4  and  C_6
REMARK    3  A    between atoms: C_9  and  N_10
REMARK    4  A    between atoms: C_14  and  C_15
REMARK    5  A    between atoms: N_20  and  C_21
REMARK    6  A    between atoms: C_21  and  C_22
REMARK    7  A    between atoms: N_24  and  C_25
REMARK                            x       y       z     vdW  Elec       q    Type
REMARK                         _______ _______ _______ _____ _____    ______ ____
ROOT
ATOM      1  C   UNL     1       4.603   4.271  19.523  0.00  0.00    +0.000 C 
ATOM      2  C   UNL     1       5.377   5.003  18.714  0.00  0.00    +0.000 C 
ATOM      3  N   UNL     1       5.138   5.335  17.411  0.00  0.00    +0.000 N 
ATOM      4  C   UNL     1       6.199   6.061  16.908  0.00  0.00    +0.000 C 
ATOM      5  O   UNL     1       6.307   6.465  15.762  0.00  0.00    +0.000 OA
ATOM      6  N   UNL     1       7.119   6.215  17.919  0.00  0.00    +0.000 N 
ATOM      7  C   UNL     1       6.700   5.597  19.072  0.00  0.00    +0.000 C 
ATOM      8  O   UNL     1       7.256   5.520  20.149  0.00  0.00    +0.000 OA
ATOM      9  H   UNL     1       4.306   5.103  16.888  0.00  0.00    +0.000 HD
ENDROOT
BRANCH   1  14
ATOM     10  N   UNL     1       2.176   4.389  19.102  0.00  0.00    +0.000 N 
ATOM     11  C   UNL     1       1.181   3.477  18.790  0.00  0.00    +0.000 A 
ATOM     12  C   UNL     1       1.752   2.280  18.430  0.00  0.00    +0.000 A 
ATOM     13  C   UNL     1       3.146   2.426  18.569  0.00  0.00    +0.000 A 
ATOM     14  C   UNL     1       3.394   3.705  19.032  0.00  0.00    +0.000 A 
BRANCH  10  18
ATOM     15  C   UNL     1       1.491   8.451  20.138  0.00  0.00    +0.000 A 
ATOM     16  C   UNL     1       1.950   8.104  18.860  0.00  0.00    +0.000 A 
ATOM     17  C   UNL     1       2.177   6.767  18.521  0.00  0.00    +0.000 A 
ATOM     18  C   UNL     1       1.932   5.752  19.457  0.00  0.00    +0.000 A 
ATOM     19  C   UNL     1       1.488   6.097  20.740  0.00  0.00    +0.000 A 
ATOM     20  C   UNL     1       1.278   7.440  21.083  0.00  0.00    +0.000 A 
BRANCH  15  22
ATOM     21  N   UNL     1       1.161  10.740  19.357  0.00  0.00    +0.000 N 
ATOM     22  C   UNL     1       1.290   9.898  20.435  0.00  0.00    +0.000 C 
ATOM     23  O   UNL     1       1.283  10.281  21.600  0.00  0.00    +0.000 OA
ATOM     24  H   UNL     1       1.292  10.384  18.430  0.00  0.00    +0.000 HD
BRANCH  21  26
ATOM     25  N   UNL     1       0.900  13.226  19.452  0.00  0.00    +0.000 NA
ATOM     26  C   UNL     1       1.015  12.079  19.364  0.00  0.00    +0.000 C 
ENDBRANCH  21  26
ENDBRANCH  15  22
ENDBRANCH  10  18
ENDBRANCH   1  14
BRANCH   6  27
ATOM     27  C   UNL     1       8.329   6.997  17.810  0.00  0.00    +0.000 C 
BRANCH  27  28
ATOM     28  C   UNL     1       8.132   8.471  18.156  0.00  0.00    +0.000 C 
ATOM     29  O   UNL     1       7.230   9.114  17.616  0.00  0.00    +0.000 OA
ATOM     30  N   UNL     1       9.139   9.049  18.921  0.00  0.00    +0.000 N 
ATOM     31  H   UNL     1      10.047   8.593  18.879  0.00  0.00    +0.000 HD
BRANCH  30  32
ATOM     32  C   UNL     1       9.126  10.428  19.236  0.00  0.00    +0.000 A 
ATOM     33  C   UNL     1       9.082  11.410  18.238  0.00  0.00    +0.000 A 
ATOM     34  C   UNL     1       9.109  12.766  18.577  0.00  0.00    +0.000 A 
ATOM     35  C   UNL     1       9.209  13.140  19.915  0.00  0.00    +0.000 A 
ATOM     36 CL   UNL     1       9.296  14.806  20.335  0.00  0.00    +0.000 Cl
ATOM     37  C   UNL     1       9.246  12.170  20.916  0.00  0.00    +0.000 A 
ATOM     38  C   UNL     1       9.174  10.812  20.578  0.00  0.00    +0.000 A 
ENDBRANCH  30  32
ENDBRANCH  27  28
ENDBRANCH   6  27
TORSDOF 7
ENDMDL
MODEL 9
REMARK VINA RESULT:      -8.7      4.994      9.235
REMARK  Name = 
REMARK  7 active torsions:
REMARK  status: ('A' for Active; 'I' for Inactive)
REMARK    1  A    between atoms: C_2  and  N_3
REMARK    2  A    between atoms: C_4  and  C_6
REMARK    3  A    between atoms: C_9  and  N_10
REMARK    4  A    between atoms: C_14  and  C_15
REMARK    5  A    between atoms: N_20  and  C_21
REMARK    6  A    between atoms: C_21  and  C_22
REMARK    7  A    between atoms: N_24  and  C_25
REMARK                            x       y       z     vdW  Elec       q    Type
REMARK                         _______ _______ _______ _____ _____    ______ ____
ROOT
ATOM      1  C   UNL     1       3.614   5.156  17.548  0.00  0.00    +0.000 C 
ATOM      2  C   UNL     1       4.842   5.464  17.984  0.00  0.00    +0.000 C 
ATOM      3  N   UNL     1       5.426   5.084  19.158  0.00  0.00    +0.000 N 
ATOM      4  C   UNL     1       6.683   5.647  19.261  0.00  0.00    +0.000 C 
ATOM      5  O   UNL     1       7.438   5.534  20.212  0.00  0.00    +0.000 OA
ATOM      6  N   UNL     1       6.911   6.378  18.119  0.00  0.00    +0.000 N 
ATOM      7  C   UNL     1       5.832   6.325  17.270  0.00  0.00    +0.000 C 
ATOM      8  O   UNL     1       5.679   6.854  16.187  0.00  0.00    +0.000 OA
ATOM      9  H   UNL     1       5.017   4.471  19.848  0.00  0.00    +0.000 HD
ENDROOT
BRANCH   1  14
ATOM     10  N   UNL     1       1.976   4.952  19.380  0.00  0.00    +0.000 N 
ATOM     11  C   UNL     1       1.457   3.911  20.131  0.00  0.00    +0.000 A 
ATOM     12  C   UNL     1       1.795   2.712  19.548  0.00  0.00    +0.000 A 
ATOM     13  C   UNL     1       2.594   3.006  18.426  0.00  0.00    +0.000 A 
ATOM     14  C   UNL     1       2.744   4.380  18.361  0.00  0.00    +0.000 A 
BRANCH  10  18
ATOM     15  C   UNL     1       1.293   9.050  20.264  0.00  0.00    +0.000 A 
ATOM     16  C   UNL     1       1.107   8.065  21.242  0.00  0.00    +0.000 A 
ATOM     17  C   UNL     1       1.331   6.716  20.949  0.00  0.00    +0.000 A 
ATOM     18  C   UNL     1       1.760   6.335  19.670  0.00  0.00    +0.000 A 
ATOM     19  C   UNL     1       1.931   7.317  18.685  0.00  0.00    +0.000 A 
ATOM     20  C   UNL     1       1.689   8.667  18.977  0.00  0.00    +0.000 A 
BRANCH  15  22
ATOM     21  N   UNL     1       1.037  11.393  19.628  0.00  0.00    +0.000 N 
ATOM     22  C   UNL     1       1.017  10.466  20.642  0.00  0.00    +0.000 C 
ATOM     23  O   UNL     1       0.822  10.751  21.818  0.00  0.00    +0.000 OA
ATOM     24  H   UNL     1       1.317  11.115  18.706  0.00  0.00    +0.000 HD
BRANCH  21  26
ATOM     25  N   UNL     1       0.633  13.856  19.792  0.00  0.00    +0.000 NA
ATOM     26  C   UNL     1       0.863  12.725  19.719  0.00  0.00    +0.000 C 
ENDBRANCH  21  26
ENDBRANCH  15  22
ENDBRANCH  10  18
ENDBRANCH   1  14
BRANCH   6  27
ATOM     27  C   UNL     1       8.155   7.044  17.810  0.00  0.00    +0.000 C 
BRANCH  27  28
ATOM     28  C   UNL     1       8.145   8.534  18.141  0.00  0.00    +0.000 C 
ATOM     29  O   UNL     1       7.413   9.298  17.511  0.00  0.00    +0.000 OA
ATOM     30  N   UNL     1       9.140   8.963  19.013  0.00  0.00    +0.000 N 
ATOM     31  H   UNL     1       9.968   8.376  19.068  0.00  0.00    +0.000 HD
BRANCH  30  32
ATOM     32  C   UNL     1       9.299  10.331  19.333  0.00  0.00    +0.000 A 
ATOM     33  C   UNL     1       9.214  10.792  20.654  0.00  0.00    +0.000 A 
ATOM     34  C   UNL     1       9.337  12.156  20.938  0.00  0.00    +0.000 A 
ATOM     35  C   UNL     1       9.518  13.063  19.896  0.00  0.00    +0.000 A 
ATOM     36 CL   UNL     1       9.616  14.746  20.235  0.00  0.00    +0.000 Cl
ATOM     37  C   UNL     1       9.611  12.613  18.580  0.00  0.00    +0.000 A 
ATOM     38  C   UNL     1       9.532  11.243  18.301  0.00  0.00    +0.000 A 
ENDBRANCH  30  32
ENDBRANCH  27  28
ENDBRANCH   6  27
TORSDOF 7
ENDMDL
