MODEL 1
REMARK VINA RESULT:      -8.1      0.000      0.000
REMARK  Name = 
REMARK  6 active torsions:
REMARK  status: ('A' for Active; 'I' for Inactive)
REMARK    1  A    between atoms: O_1  and  C_2
REMARK    2  A    between atoms: C_2  and  C_3
REMARK    3  A    between atoms: C_2  and  C_20
REMARK    4  A    between atoms: C_3  and  N_4
REMARK    5  A    between atoms: C_8  and  C_9
REMARK    6  A    between atoms: C_14  and  C_15
REMARK                            x       y       z     vdW  Elec       q    Type
REMARK                         _______ _______ _______ _____ _____    ______ ____
ROOT
ATOM      1  N   UNL     1       5.653   5.365  17.612  0.00  0.00    +0.000 N 
ATOM      2  C   UNL     1       6.847   5.883  18.047  0.00  0.00    +0.000 A 
ATOM      3  C   UNL     1       6.900   5.639  19.390  0.00  0.00    +0.000 A 
ATOM      4  N   UNL     1       5.811   4.930  19.780  0.00  0.00    +0.000 NA
ATOM      5  C   UNL     1       5.035   4.771  18.718  0.00  0.00    +0.000 A 
ENDROOT
BRANCH   5   6
ATOM      6  C   UNL     1       3.760   4.010  18.784  0.00  0.00    +0.000 A 
ATOM      7  C   UNL     1       3.773   2.600  18.833  0.00  0.00    +0.000 A 
ATOM      8  C   UNL     1       2.604   1.855  19.022  0.00  0.00    +0.000 A 
ATOM      9  C   UNL     1       1.390   2.500  19.204  0.00  0.00    +0.000 A 
ATOM     10  C   UNL     1       1.346   3.891  19.175  0.00  0.00    +0.000 A 
ATOM     11  C   UNL     1       2.508   4.663  18.956  0.00  0.00    +0.000 A 
BRANCH  11  12
ATOM     12  C   UNL     1       2.315   6.114  18.947  0.00  0.00    +0.000 A 
ATOM     13  C   UNL     1       2.452   7.080  17.966  0.00  0.00    +0.000 A 
ATOM     14  C   UNL     1       2.219   8.327  18.592  0.00  0.00    +0.000 A 
ATOM     15  C   UNL     1       1.951   8.043  19.908  0.00  0.00    +0.000 A 
ATOM     16  O   UNL     1       2.037   6.708  20.143  0.00  0.00    +0.000 OA
ENDBRANCH  11  12
ENDBRANCH   5   6
BRANCH   1  17
ATOM     17  C   UNL     1       5.184   5.379  16.232  0.00  0.00    +0.000 C 
BRANCH  17  18
ATOM     18  C   UNL     1       5.322   4.089  15.374  0.00  0.00    +0.000 C 
BRANCH  18  19
ATOM     19  C   UNL     1       6.111   4.195  14.075  0.00  0.00    +0.000 A 
ATOM     20  C   UNL     1       5.739   3.465  12.930  0.00  0.00    +0.000 A 
ATOM     21  C   UNL     1       6.442   3.594  11.730  0.00  0.00    +0.000 A 
ATOM     22  C   UNL     1       7.508   4.484  11.639  0.00  0.00    +0.000 A 
ATOM     23  C   UNL     1       7.863   5.249  12.745  0.00  0.00    +0.000 A 
ATOM     24  C   UNL     1       7.169   5.109  13.949  0.00  0.00    +0.000 A 
ENDBRANCH  18  19
BRANCH  18  25
ATOM     25  O   UNL     1       5.752   3.005  16.210  0.00  0.00    +0.000 OA
ATOM     26  H   UNL     1       5.227   2.220  15.981  0.00  0.00    +0.000 HD
ENDBRANCH  18  25
ENDBRANCH  17  18
ENDBRANCH   1  17
TORSDOF 6
ENDMDL
MODEL 2
REMARK VINA RESULT:      -8.1      0.712      1.309
REMARK  Name = 
REMARK  6 active torsions:
REMARK  status: ('A' for Active; 'I' for Inactive)
REMARK    1  A    between atoms: O_1  and  C_2
REMARK    2  A    between atoms: C_2  and  C_3
REMARK    3  A    between atoms: C_2  and  C_20
REMARK    4  A    between atoms: C_3  and  N_4
REMARK    5  A    between atoms: C_8  and  C_9
REMARK    6  A    between atoms: C_14  and  C_15
REMARK                            x       y       z     vdW  Elec       q    Type
REMARK                         _______ _______ _______ _____ _____    ______ ____
ROOT
ATOM      1  N   UNL     1       5.586   5.427  17.660  0.00  0.00    +0.000 N 
ATOM      2  C   UNL     1       6.845   5.940  17.848  0.00  0.00    +0.000 A 
ATOM      3  C   UNL     1       7.103   5.830  19.186  0.00  0.00    +0.000 A 
ATOM      4  N   UNL     1       6.074   5.206  19.811  0.00  0.00    +0.000 NA
ATOM      5  C   UNL     1       5.137   4.971  18.905  0.00  0.00    +0.000 A 
ENDROOT
BRANCH   5   6
ATOM      6  C   UNL     1       3.871   4.270  19.246  0.00  0.00    +0.000 A 
ATOM      7  C   UNL     1       3.879   2.892  19.547  0.00  0.00    +0.000 A 
ATOM      8  C   UNL     1       2.733   2.227  19.995  0.00  0.00    +0.000 A 
ATOM      9  C   UNL     1       1.553   2.927  20.189  0.00  0.00    +0.000 A 
ATOM     10  C   UNL     1       1.516   4.291  19.914  0.00  0.00    +0.000 A 
ATOM     11  C   UNL     1       2.652   4.979  19.433  0.00  0.00    +0.000 A 
BRANCH  11  12
ATOM     12  C   UNL     1       2.471   6.409  19.183  0.00  0.00    +0.000 A 
ATOM     13  C   UNL     1       2.140   7.477  19.998  0.00  0.00    +0.000 A 
ATOM     14  C   UNL     1       2.019   8.606  19.156  0.00  0.00    +0.000 A 
ATOM     15  C   UNL     1       2.288   8.159  17.885  0.00  0.00    +0.000 A 
ATOM     16  O   UNL     1       2.533   6.823  17.885  0.00  0.00    +0.000 OA
ENDBRANCH  11  12
ENDBRANCH   5   6
BRANCH   1  17
ATOM     17  C   UNL     1       4.906   5.321  16.375  0.00  0.00    +0.000 C 
BRANCH  17  18
ATOM     18  C   UNL     1       5.134   4.054  15.502  0.00  0.00    +0.000 C 
BRANCH  18  19
ATOM     19  C   UNL     1       5.931   4.226  14.216  0.00  0.00    +0.000 A 
ATOM     20  C   UNL     1       7.066   5.056  14.162  0.00  0.00    +0.000 A 
ATOM     21  C   UNL     1       7.816   5.182  12.990  0.00  0.00    +0.000 A 
ATOM     22  C   UNL     1       7.468   4.451  11.858  0.00  0.00    +0.000 A 
ATOM     23  C   UNL     1       6.377   3.588  11.903  0.00  0.00    +0.000 A 
ATOM     24  C   UNL     1       5.619   3.475  13.071  0.00  0.00    +0.000 A 
ENDBRANCH  18  19
BRANCH  18  25
ATOM     25  O   UNL     1       5.619   2.987  16.329  0.00  0.00    +0.000 OA
ATOM     26  H   UNL     1       5.243   3.098  17.218  0.00  0.00    +0.000 HD
ENDBRANCH  18  25
ENDBRANCH  17  18
ENDBRANCH   1  17
TORSDOF 6
ENDMDL
MODEL 3
REMARK VINA RESULT:      -8.1      1.213      1.526
REMARK  Name = 
REMARK  6 active torsions:
REMARK  status: ('A' for Active; 'I' for Inactive)
REMARK    1  A    between atoms: O_1  and  C_2
REMARK    2  A    between atoms: C_2  and  C_3
REMARK    3  A    between atoms: C_2  and  C_20
REMARK    4  A    between atoms: C_3  and  N_4
REMARK    5  A    between atoms: C_8  and  C_9
REMARK    6  A    between atoms: C_14  and  C_15
REMARK                            x       y       z     vdW  Elec       q    Type
REMARK                         _______ _______ _______ _____ _____    ______ ____
ROOT
ATOM      1  N   UNL     1       6.091   5.319  17.088  0.00  0.00    +0.000 N 
ATOM      2  C   UNL     1       7.238   5.816  17.653  0.00  0.00    +0.000 A 
ATOM      3  C   UNL     1       7.118   5.609  18.999  0.00  0.00    +0.000 A 
ATOM      4  N   UNL     1       5.968   4.942  19.269  0.00  0.00    +0.000 NA
ATOM      5  C   UNL     1       5.323   4.774  18.124  0.00  0.00    +0.000 A 
ENDROOT
BRANCH   5   6
ATOM      6  C   UNL     1       4.027   4.051  18.051  0.00  0.00    +0.000 A 
ATOM      7  C   UNL     1       3.999   2.642  18.001  0.00  0.00    +0.000 A 
ATOM      8  C   UNL     1       2.799   1.923  18.059  0.00  0.00    +0.000 A 
ATOM      9  C   UNL     1       1.594   2.593  18.206  0.00  0.00    +0.000 A 
ATOM     10  C   UNL     1       1.589   3.983  18.273  0.00  0.00    +0.000 A 
ATOM     11  C   UNL     1       2.784   4.731  18.186  0.00  0.00    +0.000 A 
BRANCH  11  12
ATOM     12  C   UNL     1       2.632   6.184  18.267  0.00  0.00    +0.000 A 
ATOM     13  C   UNL     1       2.968   7.220  17.413  0.00  0.00    +0.000 A 
ATOM     14  C   UNL     1       2.656   8.420  18.092  0.00  0.00    +0.000 A 
ATOM     15  C   UNL     1       2.147   8.043  19.310  0.00  0.00    +0.000 A 
ATOM     16  O   UNL     1       2.156   6.691  19.441  0.00  0.00    +0.000 OA
ENDBRANCH  11  12
ENDBRANCH   5   6
BRANCH   1  17
ATOM     17  C   UNL     1       5.794   5.306  15.661  0.00  0.00    +0.000 C 
BRANCH  17  18
ATOM     18  C   UNL     1       6.813   4.653  14.684  0.00  0.00    +0.000 C 
BRANCH  18  19
ATOM     19  C   UNL     1       6.248   3.900  13.486  0.00  0.00    +0.000 A 
ATOM     20  C   UNL     1       4.875   3.941  13.176  0.00  0.00    +0.000 A 
ATOM     21  C   UNL     1       4.367   3.280  12.054  0.00  0.00    +0.000 A 
ATOM     22  C   UNL     1       5.226   2.597  11.199  0.00  0.00    +0.000 A 
ATOM     23  C   UNL     1       6.592   2.584  11.461  0.00  0.00    +0.000 A 
ATOM     24  C   UNL     1       7.098   3.231  12.590  0.00  0.00    +0.000 A 
ENDBRANCH  18  19
BRANCH  18  25
ATOM     25  O   UNL     1       7.814   5.615  14.326  0.00  0.00    +0.000 OA
ATOM     26  H   UNL     1       7.389   6.486  14.267  0.00  0.00    +0.000 HD
ENDBRANCH  18  25
ENDBRANCH  17  18
ENDBRANCH   1  17
TORSDOF 6
ENDMDL
MODEL 4
REMARK VINA RESULT:      -7.9      1.227      1.655
REMARK  Name = 
REMARK  6 active torsions:
REMARK  status: ('A' for Active; 'I' for Inactive)
REMARK    1  A    between atoms: O_1  and  C_2
REMARK    2  A    between atoms: C_2  and  C_3
REMARK    3  A    between atoms: C_2  and  C_20
REMARK    4  A    between atoms: C_3  and  N_4
REMARK    5  A    between atoms: C_8  and  C_9
REMARK    6  A    between atoms: C_14  and  C_15
REMARK                            x       y       z     vdW  Elec       q    Type
REMARK                         _______ _______ _______ _____ _____    ______ ____
ROOT
ATOM      1  N   UNL     1       6.025   5.272  17.333  0.00  0.00    +0.000 N 
ATOM      2  C   UNL     1       7.171   5.759  17.910  0.00  0.00    +0.000 A 
ATOM      3  C   UNL     1       7.034   5.557  19.255  0.00  0.00    +0.000 A 
ATOM      4  N   UNL     1       5.875   4.901  19.514  0.00  0.00    +0.000 NA
ATOM      5  C   UNL     1       5.241   4.737  18.362  0.00  0.00    +0.000 A 
ENDROOT
BRANCH   5   6
ATOM      6  C   UNL     1       3.939   4.026  18.276  0.00  0.00    +0.000 A 
ATOM      7  C   UNL     1       3.900   2.626  18.112  0.00  0.00    +0.000 A 
ATOM      8  C   UNL     1       2.700   1.909  18.154  0.00  0.00    +0.000 A 
ATOM      9  C   UNL     1       1.505   2.567  18.398  0.00  0.00    +0.000 A 
ATOM     10  C   UNL     1       1.510   3.947  18.578  0.00  0.00    +0.000 A 
ATOM     11  C   UNL     1       2.706   4.696  18.510  0.00  0.00    +0.000 A 
BRANCH  11  12
ATOM     12  C   UNL     1       2.565   6.138  18.715  0.00  0.00    +0.000 A 
ATOM     13  C   UNL     1       2.108   6.903  19.774  0.00  0.00    +0.000 A 
ATOM     14  C   UNL     1       2.120   8.247  19.336  0.00  0.00    +0.000 A 
ATOM     15  C   UNL     1       2.587   8.219  18.045  0.00  0.00    +0.000 A 
ATOM     16  O   UNL     1       2.830   6.943  17.646  0.00  0.00    +0.000 OA
ENDBRANCH  11  12
ENDBRANCH   5   6
BRANCH   1  17
ATOM     17  C   UNL     1       5.745   5.258  15.903  0.00  0.00    +0.000 C 
BRANCH  17  18
ATOM     18  C   UNL     1       6.815   4.687  14.929  0.00  0.00    +0.000 C 
BRANCH  18  19
ATOM     19  C   UNL     1       6.315   4.050  13.639  0.00  0.00    +0.000 A 
ATOM     20  C   UNL     1       7.207   3.487  12.706  0.00  0.00    +0.000 A 
ATOM     21  C   UNL     1       6.742   2.869  11.542  0.00  0.00    +0.000 A 
ATOM     22  C   UNL     1       5.375   2.769  11.304  0.00  0.00    +0.000 A 
ATOM     23  C   UNL     1       4.474   3.277  12.236  0.00  0.00    +0.000 A 
ATOM     24  C   UNL     1       4.940   3.907  13.392  0.00  0.00    +0.000 A 
ENDBRANCH  18  19
BRANCH  18  25
ATOM     25  O   UNL     1       7.838   5.669  14.716  0.00  0.00    +0.000 OA
ATOM     26  H   UNL     1       7.483   6.535  14.975  0.00  0.00    +0.000 HD
ENDBRANCH  18  25
ENDBRANCH  17  18
ENDBRANCH   1  17
TORSDOF 6
ENDMDL
MODEL 5
REMARK VINA RESULT:      -7.8      1.924      6.129
REMARK  Name = 
REMARK  6 active torsions:
REMARK  status: ('A' for Active; 'I' for Inactive)
REMARK    1  A    between atoms: O_1  and  C_2
REMARK    2  A    between atoms: C_2  and  C_3
REMARK    3  A    between atoms: C_2  and  C_20
REMARK    4  A    between atoms: C_3  and  N_4
REMARK    5  A    between atoms: C_8  and  C_9
REMARK    6  A    between atoms: C_14  and  C_15
REMARK                            x       y       z     vdW  Elec       q    Type
REMARK                         _______ _______ _______ _____ _____    ______ ____
ROOT
ATOM      1  N   UNL     1       4.235   6.023  18.849  0.00  0.00    +0.000 N 
ATOM      2  C   UNL     1       3.225   6.849  19.275  0.00  0.00    +0.000 A 
ATOM      3  C   UNL     1       2.771   7.499  18.161  0.00  0.00    +0.000 A 
ATOM      4  N   UNL     1       3.423   7.049  17.059  0.00  0.00    +0.000 NA
ATOM      5  C   UNL     1       4.327   6.167  17.460  0.00  0.00    +0.000 A 
ENDROOT
BRANCH   5   6
ATOM      6  C   UNL     1       5.207   5.453  16.499  0.00  0.00    +0.000 A 
ATOM      7  C   UNL     1       4.662   4.525  15.587  0.00  0.00    +0.000 A 
ATOM      8  C   UNL     1       5.436   3.929  14.586  0.00  0.00    +0.000 A 
ATOM      9  C   UNL     1       6.772   4.270  14.445  0.00  0.00    +0.000 A 
ATOM     10  C   UNL     1       7.338   5.192  15.320  0.00  0.00    +0.000 A 
ATOM     11  C   UNL     1       6.583   5.785  16.358  0.00  0.00    +0.000 A 
BRANCH  11  12
ATOM     12  C   UNL     1       7.305   6.734  17.206  0.00  0.00    +0.000 A 
ATOM     13  C   UNL     1       7.962   6.610  18.417  0.00  0.00    +0.000 A 
ATOM     14  C   UNL     1       8.380   7.910  18.785  0.00  0.00    +0.000 A 
ATOM     15  C   UNL     1       7.958   8.741  17.776  0.00  0.00    +0.000 A 
ATOM     16  O   UNL     1       7.277   8.044  16.829  0.00  0.00    +0.000 OA
ENDBRANCH  11  12
ENDBRANCH   5   6
BRANCH   1  17
ATOM     17  C   UNL     1       4.997   5.119  19.702  0.00  0.00    +0.000 C 
BRANCH  17  18
ATOM     18  C   UNL     1       4.619   3.610  19.730  0.00  0.00    +0.000 C 
BRANCH  18  19
ATOM     19  C   UNL     1       3.139   3.258  19.660  0.00  0.00    +0.000 A 
ATOM     20  C   UNL     1       2.281   3.478  20.754  0.00  0.00    +0.000 A 
ATOM     21  C   UNL     1       0.916   3.190  20.672  0.00  0.00    +0.000 A 
ATOM     22  C   UNL     1       0.374   2.711  19.484  0.00  0.00    +0.000 A 
ATOM     23  C   UNL     1       1.197   2.531  18.376  0.00  0.00    +0.000 A 
ATOM     24  C   UNL     1       2.563   2.805  18.462  0.00  0.00    +0.000 A 
ENDBRANCH  18  19
BRANCH  18  25
ATOM     25  O   UNL     1       5.415   2.903  18.768  0.00  0.00    +0.000 OA
ATOM     26  H   UNL     1       4.830   2.608  18.051  0.00  0.00    +0.000 HD
ENDBRANCH  18  25
ENDBRANCH  17  18
ENDBRANCH   1  17
TORSDOF 6
ENDMDL
MODEL 6
REMARK VINA RESULT:      -7.8      2.019      6.109
REMARK  Name = 
REMARK  6 active torsions:
REMARK  status: ('A' for Active; 'I' for Inactive)
REMARK    1  A    between atoms: O_1  and  C_2
REMARK    2  A    between atoms: C_2  and  C_3
REMARK    3  A    between atoms: C_2  and  C_20
REMARK    4  A    between atoms: C_3  and  N_4
REMARK    5  A    between atoms: C_8  and  C_9
REMARK    6  A    between atoms: C_14  and  C_15
REMARK                            x       y       z     vdW  Elec       q    Type
REMARK                         _______ _______ _______ _____ _____    ______ ____
ROOT
ATOM      1  N   UNL     1       4.393   5.458  18.974  0.00  0.00    +0.000 N 
ATOM      2  C   UNL     1       3.401   6.209  19.554  0.00  0.00    +0.000 A 
ATOM      3  C   UNL     1       2.911   7.018  18.567  0.00  0.00    +0.000 A 
ATOM      4  N   UNL     1       3.523   6.740  17.388  0.00  0.00    +0.000 NA
ATOM      5  C   UNL     1       4.438   5.810  17.620  0.00  0.00    +0.000 A 
ENDROOT
BRANCH   5   6
ATOM      6  C   UNL     1       5.282   5.250  16.533  0.00  0.00    +0.000 A 
ATOM      7  C   UNL     1       4.728   4.366  15.583  0.00  0.00    +0.000 A 
ATOM      8  C   UNL     1       5.456   3.920  14.475  0.00  0.00    +0.000 A 
ATOM      9  C   UNL     1       6.749   4.371  14.265  0.00  0.00    +0.000 A 
ATOM     10  C   UNL     1       7.321   5.254  15.176  0.00  0.00    +0.000 A 
ATOM     11  C   UNL     1       6.616   5.696  16.318  0.00  0.00    +0.000 A 
BRANCH  11  12
ATOM     12  C   UNL     1       7.338   6.620  17.193  0.00  0.00    +0.000 A 
ATOM     13  C   UNL     1       7.955   6.472  18.423  0.00  0.00    +0.000 A 
ATOM     14  C   UNL     1       8.399   7.758  18.810  0.00  0.00    +0.000 A 
ATOM     15  C   UNL     1       8.031   8.605  17.794  0.00  0.00    +0.000 A 
ATOM     16  O   UNL     1       7.360   7.933  16.822  0.00  0.00    +0.000 OA
ENDBRANCH  11  12
ENDBRANCH   5   6
BRANCH   1  17
ATOM     17  C   UNL     1       5.180   4.437  19.654  0.00  0.00    +0.000 C 
BRANCH  17  18
ATOM     18  C   UNL     1       4.477   3.133  20.129  0.00  0.00    +0.000 C 
BRANCH  18  19
ATOM     19  C   UNL     1       3.014   2.949  19.747  0.00  0.00    +0.000 A 
ATOM     20  C   UNL     1       2.644   2.411  18.500  0.00  0.00    +0.000 A 
ATOM     21  C   UNL     1       1.301   2.209  18.170  0.00  0.00    +0.000 A 
ATOM     22  C   UNL     1       0.303   2.504  19.093  0.00  0.00    +0.000 A 
ATOM     23  C   UNL     1       0.650   2.993  20.349  0.00  0.00    +0.000 A 
ATOM     24  C   UNL     1       1.991   3.210  20.674  0.00  0.00    +0.000 A 
ENDBRANCH  18  19
BRANCH  18  25
ATOM     25  O   UNL     1       5.295   2.003  19.795  0.00  0.00    +0.000 OA
ATOM     26  H   UNL     1       5.585   1.585  20.623  0.00  0.00    +0.000 HD
ENDBRANCH  18  25
ENDBRANCH  17  18
ENDBRANCH   1  17
TORSDOF 6
ENDMDL
MODEL 7
REMARK VINA RESULT:      -7.7      0.950      1.353
REMARK  Name = 
REMARK  6 active torsions:
REMARK  status: ('A' for Active; 'I' for Inactive)
REMARK    1  A    between atoms: O_1  and  C_2
REMARK    2  A    between atoms: C_2  and  C_3
REMARK    3  A    between atoms: C_2  and  C_20
REMARK    4  A    between atoms: C_3  and  N_4
REMARK    5  A    between atoms: C_8  and  C_9
REMARK    6  A    between atoms: C_14  and  C_15
REMARK                            x       y       z     vdW  Elec       q    Type
REMARK                         _______ _______ _______ _____ _____    ______ ____
ROOT
ATOM      1  N   UNL     1       5.852   4.871  17.721  0.00  0.00    +0.000 N 
ATOM      2  C   UNL     1       7.052   5.425  18.086  0.00  0.00    +0.000 A 
ATOM      3  C   UNL     1       7.042   5.488  19.451  0.00  0.00    +0.000 A 
ATOM      4  N   UNL     1       5.905   4.930  19.937  0.00  0.00    +0.000 NA
ATOM      5  C   UNL     1       5.162   4.567  18.901  0.00  0.00    +0.000 A 
ENDROOT
BRANCH   5   6
ATOM      6  C   UNL     1       3.849   3.893  19.074  0.00  0.00    +0.000 A 
ATOM      7  C   UNL     1       3.789   2.514  19.369  0.00  0.00    +0.000 A 
ATOM      8  C   UNL     1       2.581   1.873  19.663  0.00  0.00    +0.000 A 
ATOM      9  C   UNL     1       1.401   2.599  19.705  0.00  0.00    +0.000 A 
ATOM     10  C   UNL     1       1.428   3.963  19.432  0.00  0.00    +0.000 A 
ATOM     11  C   UNL     1       2.631   4.627  19.104  0.00  0.00    +0.000 A 
BRANCH  11  12
ATOM     12  C   UNL     1       2.514   6.060  18.837  0.00  0.00    +0.000 A 
ATOM     13  C   UNL     1       2.834   6.849  17.746  0.00  0.00    +0.000 A 
ATOM     14  C   UNL     1       2.578   8.187  18.125  0.00  0.00    +0.000 A 
ATOM     15  C   UNL     1       2.114   8.131  19.417  0.00  0.00    +0.000 A 
ATOM     16  O   UNL     1       2.101   6.850  19.870  0.00  0.00    +0.000 OA
ENDBRANCH  11  12
ENDBRANCH   5   6
BRANCH   1  17
ATOM     17  C   UNL     1       5.436   4.592  16.352  0.00  0.00    +0.000 C 
BRANCH  17  18
ATOM     18  C   UNL     1       6.022   5.450  15.195  0.00  0.00    +0.000 C 
BRANCH  18  19
ATOM     19  C   UNL     1       6.260   4.756  13.861  0.00  0.00    +0.000 A 
ATOM     20  C   UNL     1       7.409   5.020  13.091  0.00  0.00    +0.000 A 
ATOM     21  C   UNL     1       7.642   4.352  11.886  0.00  0.00    +0.000 A 
ATOM     22  C   UNL     1       6.751   3.379  11.445  0.00  0.00    +0.000 A 
ATOM     23  C   UNL     1       5.633   3.069  12.214  0.00  0.00    +0.000 A 
ATOM     24  C   UNL     1       5.392   3.747  13.411  0.00  0.00    +0.000 A 
ENDBRANCH  18  19
BRANCH  18  25
ATOM     25  O   UNL     1       5.269   6.665  15.074  0.00  0.00    +0.000 OA
ATOM     26  H   UNL     1       5.595   7.290  15.742  0.00  0.00    +0.000 HD
ENDBRANCH  18  25
ENDBRANCH  17  18
ENDBRANCH   1  17
TORSDOF 6
ENDMDL
MODEL 8
REMARK VINA RESULT:      -7.6      1.725      3.542
REMARK  Name = 
REMARK  6 active torsions:
REMARK  status: ('A' for Active; 'I' for Inactive)
REMARK    1  A    between atoms: O_1  and  C_2
REMARK    2  A    between atoms: C_2  and  C_3
REMARK    3  A    between atoms: C_2  and  C_20
REMARK    4  A    between atoms: C_3  and  N_4
REMARK    5  A    between atoms: C_8  and  C_9
REMARK    6  A    between atoms: C_14  and  C_15
REMARK                            x       y       z     vdW  Elec       q    Type
REMARK                         _______ _______ _______ _____ _____    ______ ____
ROOT
ATOM      1  N   UNL     1       6.431   4.988  16.540  0.00  0.00    +0.000 N 
ATOM      2  C   UNL     1       7.675   4.534  16.898  0.00  0.00    +0.000 A 
ATOM      3  C   UNL     1       7.821   4.833  18.223  0.00  0.00    +0.000 A 
ATOM      4  N   UNL     1       6.683   5.394  18.704  0.00  0.00    +0.000 NA
ATOM      5  C   UNL     1       5.836   5.513  17.692  0.00  0.00    +0.000 A 
ENDROOT
BRANCH   5   6
ATOM      6  C   UNL     1       4.470   6.070  17.872  0.00  0.00    +0.000 A 
ATOM      7  C   UNL     1       4.224   7.441  17.648  0.00  0.00    +0.000 A 
ATOM      8  C   UNL     1       2.932   7.976  17.683  0.00  0.00    +0.000 A 
ATOM      9  C   UNL     1       1.842   7.149  17.909  0.00  0.00    +0.000 A 
ATOM     10  C   UNL     1       2.050   5.789  18.120  0.00  0.00    +0.000 A 
ATOM     11  C   UNL     1       3.348   5.231  18.119  0.00  0.00    +0.000 A 
BRANCH  11  12
ATOM     12  C   UNL     1       3.419   3.789  18.357  0.00  0.00    +0.000 A 
ATOM     13  C   UNL     1       2.964   2.690  17.650  0.00  0.00    +0.000 A 
ATOM     14  C   UNL     1       3.251   1.554  18.441  0.00  0.00    +0.000 A 
ATOM     15  C   UNL     1       3.864   2.029  19.575  0.00  0.00    +0.000 A 
ATOM     16  O   UNL     1       3.944   3.385  19.549  0.00  0.00    +0.000 OA
ENDBRANCH  11  12
ENDBRANCH   5   6
BRANCH   1  17
ATOM     17  C   UNL     1       5.840   4.860  15.213  0.00  0.00    +0.000 C 
BRANCH  17  18
ATOM     18  C   UNL     1       6.739   4.413  14.025  0.00  0.00    +0.000 C 
BRANCH  18  19
ATOM     19  C   UNL     1       6.066   3.663  12.883  0.00  0.00    +0.000 A 
ATOM     20  C   UNL     1       6.699   2.581  12.242  0.00  0.00    +0.000 A 
ATOM     21  C   UNL     1       6.062   1.872  11.221  0.00  0.00    +0.000 A 
ATOM     22  C   UNL     1       4.765   2.205  10.845  0.00  0.00    +0.000 A 
ATOM     23  C   UNL     1       4.103   3.240  11.497  0.00  0.00    +0.000 A 
ATOM     24  C   UNL     1       4.745   3.959  12.508  0.00  0.00    +0.000 A 
ENDBRANCH  18  19
BRANCH  18  25
ATOM     25  O   UNL     1       7.531   5.524  13.583  0.00  0.00    +0.000 OA
ATOM     26  H   UNL     1       8.434   5.405  13.923  0.00  0.00    +0.000 HD
ENDBRANCH  18  25
ENDBRANCH  17  18
ENDBRANCH   1  17
TORSDOF 6
ENDMDL
MODEL 9
REMARK VINA RESULT:      -7.5      3.112      8.074
REMARK  Name = 
REMARK  6 active torsions:
REMARK  status: ('A' for Active; 'I' for Inactive)
REMARK    1  A    between atoms: O_1  and  C_2
REMARK    2  A    between atoms: C_2  and  C_3
REMARK    3  A    between atoms: C_2  and  C_20
REMARK    4  A    between atoms: C_3  and  N_4
REMARK    5  A    between atoms: C_8  and  C_9
REMARK    6  A    between atoms: C_14  and  C_15
REMARK                            x       y       z     vdW  Elec       q    Type
REMARK                         _______ _______ _______ _____ _____    ______ ____
ROOT
ATOM      1  N   UNL     1       1.923   7.758  19.753  0.00  0.00    +0.000 N 
ATOM      2  C   UNL     1       2.053   8.702  18.766  0.00  0.00    +0.000 A 
ATOM      3  C   UNL     1       2.660   8.072  17.716  0.00  0.00    +0.000 A 
ATOM      4  N   UNL     1       2.844   6.758  18.002  0.00  0.00    +0.000 NA
ATOM      5  C   UNL     1       2.420   6.554  19.240  0.00  0.00    +0.000 A 
ENDROOT
BRANCH   5   6
ATOM      6  C   UNL     1       2.451   5.209  19.870  0.00  0.00    +0.000 A 
ATOM      7  C   UNL     1       1.312   4.705  20.533  0.00  0.00    +0.000 A 
ATOM      8  C   UNL     1       1.261   3.397  21.026  0.00  0.00    +0.000 A 
ATOM      9  C   UNL     1       2.335   2.541  20.839  0.00  0.00    +0.000 A 
ATOM     10  C   UNL     1       3.468   3.003  20.177  0.00  0.00    +0.000 A 
ATOM     11  C   UNL     1       3.555   4.328  19.696  0.00  0.00    +0.000 A 
BRANCH  11  12
ATOM     12  C   UNL     1       4.805   4.680  19.022  0.00  0.00    +0.000 A 
ATOM     13  C   UNL     1       5.349   4.333  17.798  0.00  0.00    +0.000 A 
ATOM     14  C   UNL     1       6.637   4.914  17.749  0.00  0.00    +0.000 A 
ATOM     15  C   UNL     1       6.795   5.580  18.939  0.00  0.00    +0.000 A 
ATOM     16  O   UNL     1       5.704   5.420  19.732  0.00  0.00    +0.000 OA
ENDBRANCH  11  12
ENDBRANCH   5   6
BRANCH   1  17
ATOM     17  C   UNL     1       1.304   7.983  21.053  0.00  0.00    +0.000 C 
BRANCH  17  18
ATOM     18  C   UNL     1       1.476   9.367  21.743  0.00  0.00    +0.000 C 
BRANCH  18  19
ATOM     19  C   UNL     1       0.243  10.255  21.843  0.00  0.00    +0.000 A 
ATOM     20  C   UNL     1      -0.495  10.352  23.038  0.00  0.00    +0.000 A 
ATOM     21  C   UNL     1      -1.603  11.198  23.137  0.00  0.00    +0.000 A 
ATOM     22  C   UNL     1      -1.973  11.992  22.056  0.00  0.00    +0.000 A 
ATOM     23  C   UNL     1      -1.229  11.946  20.881  0.00  0.00    +0.000 A 
ATOM     24  C   UNL     1      -0.130  11.090  20.777  0.00  0.00    +0.000 A 
ENDBRANCH  18  19
BRANCH  18  25
ATOM     25  O   UNL     1       2.152   9.194  22.996  0.00  0.00    +0.000 OA
ATOM     26  H   UNL     1       1.512   9.352  23.709  0.00  0.00    +0.000 HD
ENDBRANCH  18  25
ENDBRANCH  17  18
ENDBRANCH   1  17
TORSDOF 6
ENDMDL
