MODEL 1
REMARK VINA RESULT:      -7.7      0.000      0.000
REMARK  Name = 
REMARK  6 active torsions:
REMARK  status: ('A' for Active; 'I' for Inactive)
REMARK    1  A    between atoms: C_1  and  N_2
REMARK    2  A    between atoms: N_2  and  C_3
REMARK    3  A    between atoms: C_4  and  C_6
REMARK    4  A    between atoms: C_8  and  C_9
REMARK    5  A    between atoms: N_13  and  C_14
REMARK    6  A    between atoms: C_23  and  N_24
REMARK                            x       y       z     vdW  Elec       q    Type
REMARK                         _______ _______ _______ _____ _____    ______ ____
ROOT
ATOM      1  C   UNL     1       0.352   9.903  19.127  0.00  0.00    +0.000 A 
ATOM      2  C   UNL     1      -0.646  10.346  18.251  0.00  0.00    +0.000 A 
ATOM      3  C   UNL     1      -1.732  11.166  18.675  0.00  0.00    +0.000 A 
ATOM      4  C   UNL     1      -1.809  11.487  20.053  0.00  0.00    +0.000 A 
ATOM      5  O   UNL     1      -2.887  12.178  20.565  0.00  0.00    +0.000 OA
ATOM      6  C   UNL     1      -2.901  12.574  21.923  0.00  0.00    +0.000 A 
ATOM      7  C   UNL     1      -1.906  12.243  22.767  0.00  0.00    +0.000 A 
ATOM      8  C   UNL     1      -0.784  11.442  22.316  0.00  0.00    +0.000 A 
ATOM      9  O   UNL     1       0.081  11.076  23.095  0.00  0.00    +0.000 OA
ATOM     10  C   UNL     1      -0.764  11.097  20.890  0.00  0.00    +0.000 A 
ATOM     11  C   UNL     1       0.325  10.371  20.425  0.00  0.00    +0.000 A 
ENDROOT
BRANCH   6  12
ATOM     12  N   UNL     1      -3.990  13.338  22.343  0.00  0.00    +0.000 N 
ATOM     13  C   UNL     1      -3.897  14.792  22.583  0.00  0.00    +0.000 C 
ATOM     14  C   UNL     1      -4.636  15.150  23.881  0.00  0.00    +0.000 C 
ATOM     15  O   UNL     1      -6.009  14.724  23.855  0.00  0.00    +0.000 OA
ATOM     16  C   UNL     1      -6.096  13.306  23.640  0.00  0.00    +0.000 C 
ATOM     17  C   UNL     1      -5.409  12.900  22.329  0.00  0.00    +0.000 C 
ENDBRANCH   6  12
BRANCH   1  21
ATOM     18  C   UNL     1       2.966   7.122  18.919  0.00  0.00    +0.000 C 
ATOM     19  N   UNL     1       1.916   7.962  19.465  0.00  0.00    +0.000 N 
ATOM     20  C   UNL     1       1.330   7.538  20.733  0.00  0.00    +0.000 C 
ATOM     21  C   UNL     1       1.431   8.993  18.637  0.00  0.00    +0.000 C 
ATOM     22  O   UNL     1       1.859   9.175  17.498  0.00  0.00    +0.000 OA
ENDBRANCH   1  21
BRANCH   3  23
ATOM     23  C   UNL     1      -2.749  11.661  17.631  0.00  0.00    +0.000 C 
ATOM     24  C   UNL     1      -2.332  11.342  16.184  0.00  0.00    +0.000 C 
ATOM     25  C   UNL     1      -2.689   9.870  16.024  0.00  0.00    +0.000 C 
ATOM     26  C   UNL     1      -3.959   9.705  16.859  0.00  0.00    +0.000 C 
ATOM     27  N   UNL     1      -4.030  10.915  17.696  0.00  0.00    +0.000 N 
BRANCH  27  28
ATOM     28  C   UNL     1      -5.193  11.339  18.298  0.00  0.00    +0.000 A 
ATOM     29  C   UNL     1      -5.687  12.652  18.178  0.00  0.00    +0.000 A 
ATOM     30  C   UNL     1      -6.878  13.067  18.809  0.00  0.00    +0.000 A 
ATOM     31  C   UNL     1      -7.614  12.179  19.576  0.00  0.00    +0.000 A 
ATOM     32  C   UNL     1      -7.153  10.879  19.703  0.00  0.00    +0.000 A 
ATOM     33  F   UNL     1      -7.859   9.997  20.425  0.00  0.00    +0.000 F 
ATOM     34  C   UNL     1      -5.967  10.478  19.093  0.00  0.00    +0.000 A 
ENDBRANCH  27  28
ENDBRANCH   3  23
TORSDOF 4
ENDMDL
MODEL 2
REMARK VINA RESULT:      -7.6      0.834      1.163
REMARK  Name = 
REMARK  6 active torsions:
REMARK  status: ('A' for Active; 'I' for Inactive)
REMARK    1  A    between atoms: C_1  and  N_2
REMARK    2  A    between atoms: N_2  and  C_3
REMARK    3  A    between atoms: C_4  and  C_6
REMARK    4  A    between atoms: C_8  and  C_9
REMARK    5  A    between atoms: N_13  and  C_14
REMARK    6  A    between atoms: C_23  and  N_24
REMARK                            x       y       z     vdW  Elec       q    Type
REMARK                         _______ _______ _______ _____ _____    ______ ____
ROOT
ATOM      1  C   UNL     1       0.392   9.886  19.070  0.00  0.00    +0.000 A 
ATOM      2  C   UNL     1      -0.606  10.331  18.195  0.00  0.00    +0.000 A 
ATOM      3  C   UNL     1      -1.697  11.144  18.623  0.00  0.00    +0.000 A 
ATOM      4  C   UNL     1      -1.777  11.456  20.003  0.00  0.00    +0.000 A 
ATOM      5  O   UNL     1      -2.859  12.138  20.518  0.00  0.00    +0.000 OA
ATOM      6  C   UNL     1      -2.877  12.525  21.879  0.00  0.00    +0.000 A 
ATOM      7  C   UNL     1      -1.883  12.192  22.723  0.00  0.00    +0.000 A 
ATOM      8  C   UNL     1      -0.757  11.398  22.268  0.00  0.00    +0.000 A 
ATOM      9  O   UNL     1       0.109  11.031  23.045  0.00  0.00    +0.000 OA
ATOM     10  C   UNL     1      -0.732  11.064  20.839  0.00  0.00    +0.000 A 
ATOM     11  C   UNL     1       0.360  10.346  20.371  0.00  0.00    +0.000 A 
ENDROOT
BRANCH   6  12
ATOM     12  N   UNL     1      -3.971  13.281  22.302  0.00  0.00    +0.000 N 
ATOM     13  C   UNL     1      -3.899  14.743  22.495  0.00  0.00    +0.000 C 
ATOM     14  C   UNL     1      -4.614  15.128  23.799  0.00  0.00    +0.000 C 
ATOM     15  O   UNL     1      -5.978  14.676  23.821  0.00  0.00    +0.000 OA
ATOM     16  C   UNL     1      -6.043  13.251  23.652  0.00  0.00    +0.000 C 
ATOM     17  C   UNL     1      -5.381  12.817  22.337  0.00  0.00    +0.000 C 
ENDBRANCH   6  12
BRANCH   1  21
ATOM     18  C   UNL     1       3.028   7.127  18.853  0.00  0.00    +0.000 C 
ATOM     19  N   UNL     1       1.974   7.960  19.404  0.00  0.00    +0.000 N 
ATOM     20  C   UNL     1       1.399   7.534  20.676  0.00  0.00    +0.000 C 
ATOM     21  C   UNL     1       1.476   8.985  18.575  0.00  0.00    +0.000 C 
ATOM     22  O   UNL     1       1.895   9.168  17.434  0.00  0.00    +0.000 OA
ENDBRANCH   1  21
BRANCH   3  23
ATOM     23  C   UNL     1      -2.714  11.642  17.581  0.00  0.00    +0.000 C 
ATOM     24  C   UNL     1      -2.304  11.313  16.134  0.00  0.00    +0.000 C 
ATOM     25  C   UNL     1      -2.673   9.844  15.981  0.00  0.00    +0.000 C 
ATOM     26  C   UNL     1      -3.941   9.691  16.822  0.00  0.00    +0.000 C 
ATOM     27  N   UNL     1      -4.000  10.906  17.654  0.00  0.00    +0.000 N 
BRANCH  27  28
ATOM     28  C   UNL     1      -5.158  11.341  18.258  0.00  0.00    +0.000 A 
ATOM     29  C   UNL     1      -6.053  10.476  18.917  0.00  0.00    +0.000 A 
ATOM     30  C   UNL     1      -7.237  10.942  19.525  0.00  0.00    +0.000 A 
ATOM     31  C   UNL     1      -7.559  12.289  19.496  0.00  0.00    +0.000 A 
ATOM     32  C   UNL     1      -6.691  13.161  18.861  0.00  0.00    +0.000 A 
ATOM     33  F   UNL     1      -6.973  14.471  18.837  0.00  0.00    +0.000 F 
ATOM     34  C   UNL     1      -5.531  12.694  18.247  0.00  0.00    +0.000 A 
ENDBRANCH  27  28
ENDBRANCH   3  23
TORSDOF 4
ENDMDL
MODEL 3
REMARK VINA RESULT:      -7.4      4.102      6.879
REMARK  Name = 
REMARK  6 active torsions:
REMARK  status: ('A' for Active; 'I' for Inactive)
REMARK    1  A    between atoms: C_1  and  N_2
REMARK    2  A    between atoms: N_2  and  C_3
REMARK    3  A    between atoms: C_4  and  C_6
REMARK    4  A    between atoms: C_8  and  C_9
REMARK    5  A    between atoms: N_13  and  C_14
REMARK    6  A    between atoms: C_23  and  N_24
REMARK                            x       y       z     vdW  Elec       q    Type
REMARK                         _______ _______ _______ _____ _____    ______ ____
ROOT
ATOM      1  C   UNL     1      -2.032  13.115  22.366  0.00  0.00    +0.000 A 
ATOM      2  C   UNL     1      -1.656  12.468  21.183  0.00  0.00    +0.000 A 
ATOM      3  C   UNL     1      -0.480  12.817  20.456  0.00  0.00    +0.000 A 
ATOM      4  C   UNL     1       0.290  13.902  20.943  0.00  0.00    +0.000 A 
ATOM      5  O   UNL     1       1.376  14.379  20.238  0.00  0.00    +0.000 OA
ATOM      6  C   UNL     1       2.191  15.397  20.786  0.00  0.00    +0.000 A 
ATOM      7  C   UNL     1       1.905  15.973  21.969  0.00  0.00    +0.000 A 
ATOM      8  C   UNL     1       0.728  15.582  22.721  0.00  0.00    +0.000 A 
ATOM      9  O   UNL     1       0.424  16.152  23.756  0.00  0.00    +0.000 OA
ATOM     10  C   UNL     1      -0.065  14.481  22.161  0.00  0.00    +0.000 A 
ATOM     11  C   UNL     1      -1.169  14.057  22.888  0.00  0.00    +0.000 A 
ENDROOT
BRANCH   6  12
ATOM     12  N   UNL     1       3.314  15.768  20.047  0.00  0.00    +0.000 N 
ATOM     13  C   UNL     1       3.267  15.996  18.589  0.00  0.00    +0.000 C 
ATOM     14  C   UNL     1       4.489  15.346  17.924  0.00  0.00    +0.000 C 
ATOM     15  O   UNL     1       5.726  15.828  18.477  0.00  0.00    +0.000 OA
ATOM     16  C   UNL     1       5.777  15.588  19.892  0.00  0.00    +0.000 C 
ATOM     17  C   UNL     1       4.598  16.257  20.612  0.00  0.00    +0.000 C 
ENDBRANCH   6  12
BRANCH   1  21
ATOM     18  C   UNL     1      -5.676  13.082  23.521  0.00  0.00    +0.000 C 
ATOM     19  N   UNL     1      -4.476  13.501  22.819  0.00  0.00    +0.000 N 
ATOM     20  C   UNL     1      -4.640  14.531  21.799  0.00  0.00    +0.000 C 
ATOM     21  C   UNL     1      -3.309  12.746  23.049  0.00  0.00    +0.000 C 
ATOM     22  O   UNL     1      -3.296  11.770  23.796  0.00  0.00    +0.000 OA
ENDBRANCH   1  21
BRANCH   3  23
ATOM     23  C   UNL     1      -0.107  12.009  19.201  0.00  0.00    +0.000 C 
ATOM     24  C   UNL     1       1.191  11.198  19.370  0.00  0.00    +0.000 C 
ATOM     25  C   UNL     1       0.753   9.985  20.179  0.00  0.00    +0.000 C 
ATOM     26  C   UNL     1      -0.661   9.695  19.676  0.00  0.00    +0.000 C 
ATOM     27  N   UNL     1      -1.063  10.905  18.938  0.00  0.00    +0.000 N 
BRANCH  27  28
ATOM     28  C   UNL     1      -2.088  10.913  18.019  0.00  0.00    +0.000 A 
ATOM     29  C   UNL     1      -3.338  11.512  18.267  0.00  0.00    +0.000 A 
ATOM     30  C   UNL     1      -4.377  11.504  17.314  0.00  0.00    +0.000 A 
ATOM     31  C   UNL     1      -4.195  10.899  16.081  0.00  0.00    +0.000 A 
ATOM     32  C   UNL     1      -2.972  10.309  15.810  0.00  0.00    +0.000 A 
ATOM     33  F   UNL     1      -2.767   9.735  14.616  0.00  0.00    +0.000 F 
ATOM     34  C   UNL     1      -1.954  10.305  16.761  0.00  0.00    +0.000 A 
ENDBRANCH  27  28
ENDBRANCH   3  23
TORSDOF 4
ENDMDL
MODEL 4
REMARK VINA RESULT:      -7.4      4.221      6.797
REMARK  Name = 
REMARK  6 active torsions:
REMARK  status: ('A' for Active; 'I' for Inactive)
REMARK    1  A    between atoms: C_1  and  N_2
REMARK    2  A    between atoms: N_2  and  C_3
REMARK    3  A    between atoms: C_4  and  C_6
REMARK    4  A    between atoms: C_8  and  C_9
REMARK    5  A    between atoms: N_13  and  C_14
REMARK    6  A    between atoms: C_23  and  N_24
REMARK                            x       y       z     vdW  Elec       q    Type
REMARK                         _______ _______ _______ _____ _____    ______ ____
ROOT
ATOM      1  C   UNL     1      -2.263  13.138  22.495  0.00  0.00    +0.000 A 
ATOM      2  C   UNL     1      -1.830  12.527  21.312  0.00  0.00    +0.000 A 
ATOM      3  C   UNL     1      -0.625  12.902  20.649  0.00  0.00    +0.000 A 
ATOM      4  C   UNL     1       0.118  13.974  21.202  0.00  0.00    +0.000 A 
ATOM      5  O   UNL     1       1.231  14.476  20.561  0.00  0.00    +0.000 OA
ATOM      6  C   UNL     1       2.016  15.481  21.175  0.00  0.00    +0.000 A 
ATOM      7  C   UNL     1       1.675  16.020  22.360  0.00  0.00    +0.000 A 
ATOM      8  C   UNL     1       0.467  15.602  23.046  0.00  0.00    +0.000 A 
ATOM      9  O   UNL     1       0.114  16.141  24.083  0.00  0.00    +0.000 OA
ATOM     10  C   UNL     1      -0.295  14.516  22.420  0.00  0.00    +0.000 A 
ATOM     11  C   UNL     1      -1.428  14.066  23.083  0.00  0.00    +0.000 A 
ENDROOT
BRANCH   6  12
ATOM     12  N   UNL     1       3.170  15.877  20.498  0.00  0.00    +0.000 N 
ATOM     13  C   UNL     1       4.291  16.560  21.172  0.00  0.00    +0.000 C 
ATOM     14  C   UNL     1       4.788  17.723  20.299  0.00  0.00    +0.000 C 
ATOM     15  O   UNL     1       5.172  17.285  18.985  0.00  0.00    +0.000 OA
ATOM     16  C   UNL     1       4.073  16.637  18.324  0.00  0.00    +0.000 C 
ATOM     17  C   UNL     1       3.566  15.437  19.136  0.00  0.00    +0.000 C 
ENDBRANCH   6  12
BRANCH   1  21
ATOM     18  C   UNL     1      -5.970  13.004  23.416  0.00  0.00    +0.000 C 
ATOM     19  N   UNL     1      -4.744  13.444  22.776  0.00  0.00    +0.000 N 
ATOM     20  C   UNL     1      -4.878  14.429  21.708  0.00  0.00    +0.000 C 
ATOM     21  C   UNL     1      -3.567  12.744  23.109  0.00  0.00    +0.000 C 
ATOM     22  O   UNL     1      -3.567  11.797  23.893  0.00  0.00    +0.000 OA
ENDBRANCH   1  21
BRANCH   3  23
ATOM     23  C   UNL     1      -0.192  12.132  19.389  0.00  0.00    +0.000 C 
ATOM     24  C   UNL     1       1.127  11.360  19.577  0.00  0.00    +0.000 C 
ATOM     25  C   UNL     1       0.707  10.117  20.350  0.00  0.00    +0.000 C 
ATOM     26  C   UNL     1      -0.683   9.792  19.802  0.00  0.00    +0.000 C 
ATOM     27  N   UNL     1      -1.104  11.004  19.078  0.00  0.00    +0.000 N 
BRANCH  27  28
ATOM     28  C   UNL     1      -2.104  10.998  18.131  0.00  0.00    +0.000 A 
ATOM     29  C   UNL     1      -3.383  11.540  18.361  0.00  0.00    +0.000 A 
ATOM     30  C   UNL     1      -4.396  11.518  17.379  0.00  0.00    +0.000 A 
ATOM     31  C   UNL     1      -4.156  10.958  16.135  0.00  0.00    +0.000 A 
ATOM     32  C   UNL     1      -2.903  10.425  15.882  0.00  0.00    +0.000 A 
ATOM     33  F   UNL     1      -2.643   9.895  14.679  0.00  0.00    +0.000 F 
ATOM     34  C   UNL     1      -1.912  10.433  16.860  0.00  0.00    +0.000 A 
ENDBRANCH  27  28
ENDBRANCH   3  23
TORSDOF 4
ENDMDL
MODEL 5
REMARK VINA RESULT:      -7.3      4.155      6.847
REMARK  Name = 
REMARK  6 active torsions:
REMARK  status: ('A' for Active; 'I' for Inactive)
REMARK    1  A    between atoms: C_1  and  N_2
REMARK    2  A    between atoms: N_2  and  C_3
REMARK    3  A    between atoms: C_4  and  C_6
REMARK    4  A    between atoms: C_8  and  C_9
REMARK    5  A    between atoms: N_13  and  C_14
REMARK    6  A    between atoms: C_23  and  N_24
REMARK                            x       y       z     vdW  Elec       q    Type
REMARK                         _______ _______ _______ _____ _____    ______ ____
ROOT
ATOM      1  C   UNL     1      -2.456  13.354  22.539  0.00  0.00    +0.000 A 
ATOM      2  C   UNL     1      -1.900  12.686  21.441  0.00  0.00    +0.000 A 
ATOM      3  C   UNL     1      -0.775  13.190  20.724  0.00  0.00    +0.000 A 
ATOM      4  C   UNL     1      -0.252  14.443  21.127  0.00  0.00    +0.000 A 
ATOM      5  O   UNL     1       0.760  15.055  20.417  0.00  0.00    +0.000 OA
ATOM      6  C   UNL     1       1.336  16.259  20.888  0.00  0.00    +0.000 A 
ATOM      7  C   UNL     1       0.883  16.874  21.996  0.00  0.00    +0.000 A 
ATOM      8  C   UNL     1      -0.238  16.332  22.742  0.00  0.00    +0.000 A 
ATOM      9  O   UNL     1      -0.700  16.925  23.703  0.00  0.00    +0.000 OA
ATOM     10  C   UNL     1      -0.775  15.051  22.268  0.00  0.00    +0.000 A 
ATOM     11  C   UNL     1      -1.816  14.489  22.994  0.00  0.00    +0.000 A 
ENDROOT
BRANCH   6  12
ATOM     12  N   UNL     1       2.407  16.771  20.155  0.00  0.00    +0.000 N 
ATOM     13  C   UNL     1       2.587  16.499  18.715  0.00  0.00    +0.000 C 
ATOM     14  C   UNL     1       4.063  16.178  18.430  0.00  0.00    +0.000 C 
ATOM     15  O   UNL     1       4.938  17.233  18.865  0.00  0.00    +0.000 OA
ATOM     16  C   UNL     1       4.773  17.482  20.270  0.00  0.00    +0.000 C 
ATOM     17  C   UNL     1       3.321  17.852  20.603  0.00  0.00    +0.000 C 
ENDBRANCH   6  12
BRANCH   1  21
ATOM     18  C   UNL     1      -6.069  12.806  23.658  0.00  0.00    +0.000 C 
ATOM     19  N   UNL     1      -4.934  13.390  22.967  0.00  0.00    +0.000 N 
ATOM     20  C   UNL     1      -5.232  14.386  21.943  0.00  0.00    +0.000 C 
ATOM     21  C   UNL     1      -3.674  12.809  23.210  0.00  0.00    +0.000 C 
ATOM     22  O   UNL     1      -3.530  11.844  23.959  0.00  0.00    +0.000 OA
ENDBRANCH   1  21
BRANCH   3  23
ATOM     23  C   UNL     1      -0.188  12.357  19.571  0.00  0.00    +0.000 C 
ATOM     24  C   UNL     1       1.173  11.724  19.916  0.00  0.00    +0.000 C 
ATOM     25  C   UNL     1       0.802  10.518  20.769  0.00  0.00    +0.000 C 
ATOM     26  C   UNL     1      -0.512  10.026  20.161  0.00  0.00    +0.000 C 
ATOM     27  N   UNL     1      -0.977  11.130  19.304  0.00  0.00    +0.000 N 
BRANCH  27  28
ATOM     28  C   UNL     1      -1.901  10.955  18.297  0.00  0.00    +0.000 A 
ATOM     29  C   UNL     1      -1.731  10.029  17.250  0.00  0.00    +0.000 A 
ATOM     30  C   UNL     1      -2.687   9.870  16.226  0.00  0.00    +0.000 A 
ATOM     31  C   UNL     1      -3.845  10.631  16.221  0.00  0.00    +0.000 A 
ATOM     32  C   UNL     1      -4.038  11.544  17.244  0.00  0.00    +0.000 A 
ATOM     33  F   UNL     1      -5.160  12.278  17.269  0.00  0.00    +0.000 F 
ATOM     34  C   UNL     1      -3.084  11.710  18.244  0.00  0.00    +0.000 A 
ENDBRANCH  27  28
ENDBRANCH   3  23
TORSDOF 4
ENDMDL
MODEL 6
REMARK VINA RESULT:      -7.3      4.246      7.829
REMARK  Name = 
REMARK  6 active torsions:
REMARK  status: ('A' for Active; 'I' for Inactive)
REMARK    1  A    between atoms: C_1  and  N_2
REMARK    2  A    between atoms: N_2  and  C_3
REMARK    3  A    between atoms: C_4  and  C_6
REMARK    4  A    between atoms: C_8  and  C_9
REMARK    5  A    between atoms: N_13  and  C_14
REMARK    6  A    between atoms: C_23  and  N_24
REMARK                            x       y       z     vdW  Elec       q    Type
REMARK                         _______ _______ _______ _____ _____    ______ ____
ROOT
ATOM      1  C   UNL     1      -1.413  11.762  18.684  0.00  0.00    +0.000 A 
ATOM      2  C   UNL     1      -0.651  10.866  19.444  0.00  0.00    +0.000 A 
ATOM      3  C   UNL     1       0.552  11.250  20.107  0.00  0.00    +0.000 A 
ATOM      4  C   UNL     1       0.998  12.583  19.930  0.00  0.00    +0.000 A 
ATOM      5  O   UNL     1       2.208  13.004  20.441  0.00  0.00    +0.000 OA
ATOM      6  C   UNL     1       2.592  14.362  20.339  0.00  0.00    +0.000 A 
ATOM      7  C   UNL     1       1.832  15.266  19.694  0.00  0.00    +0.000 A 
ATOM      8  C   UNL     1       0.589  14.873  19.056  0.00  0.00    +0.000 A 
ATOM      9  O   UNL     1      -0.066  15.673  18.408  0.00  0.00    +0.000 OA
ATOM     10  C   UNL     1       0.183  13.474  19.231  0.00  0.00    +0.000 A 
ATOM     11  C   UNL     1      -1.026  13.086  18.670  0.00  0.00    +0.000 A 
ENDROOT
BRANCH   6  12
ATOM     12  N   UNL     1       3.793  14.722  20.951  0.00  0.00    +0.000 N 
ATOM     13  C   UNL     1       4.801  15.570  20.285  0.00  0.00    +0.000 C 
ATOM     14  C   UNL     1       6.204  14.993  20.526  0.00  0.00    +0.000 C 
ATOM     15  O   UNL     1       6.497  14.854  21.927  0.00  0.00    +0.000 OA
ATOM     16  C   UNL     1       5.526  14.013  22.568  0.00  0.00    +0.000 C 
ATOM     17  C   UNL     1       4.106  14.571  22.394  0.00  0.00    +0.000 C 
ENDBRANCH   6  12
BRANCH   1  21
ATOM     18  C   UNL     1      -5.042  11.016  17.744  0.00  0.00    +0.000 C 
ATOM     19  N   UNL     1      -3.909  11.512  18.504  0.00  0.00    +0.000 N 
ATOM     20  C   UNL     1      -4.211  12.366  19.649  0.00  0.00    +0.000 C 
ATOM     21  C   UNL     1      -2.629  11.284  17.960  0.00  0.00    +0.000 C 
ATOM     22  O   UNL     1      -2.467  10.706  16.887  0.00  0.00    +0.000 OA
ENDBRANCH   1  21
BRANCH   3  23
ATOM     23  C   UNL     1       1.291  10.217  20.976  0.00  0.00    +0.000 C 
ATOM     24  C   UNL     1       0.825  10.218  22.443  0.00  0.00    +0.000 C 
ATOM     25  C   UNL     1      -0.484   9.440  22.404  0.00  0.00    +0.000 C 
ATOM     26  C   UNL     1      -0.251   8.377  21.330  0.00  0.00    +0.000 C 
ATOM     27  N   UNL     1       0.951   8.822  20.603  0.00  0.00    +0.000 N 
BRANCH  27  28
ATOM     28  C   UNL     1       1.710   7.975  19.828  0.00  0.00    +0.000 A 
ATOM     29  C   UNL     1       2.180   8.319  18.546  0.00  0.00    +0.000 A 
ATOM     30  C   UNL     1       2.951   7.433  17.766  0.00  0.00    +0.000 A 
ATOM     31  C   UNL     1       3.281   6.177  18.248  0.00  0.00    +0.000 A 
ATOM     32  C   UNL     1       2.838   5.818  19.509  0.00  0.00    +0.000 A 
ATOM     33  F   UNL     1       3.161   4.614  20.004  0.00  0.00    +0.000 F 
ATOM     34  C   UNL     1       2.062   6.689  20.269  0.00  0.00    +0.000 A 
ENDBRANCH  27  28
ENDBRANCH   3  23
TORSDOF 4
ENDMDL
MODEL 7
REMARK VINA RESULT:      -7.3      4.150      7.670
REMARK  Name = 
REMARK  6 active torsions:
REMARK  status: ('A' for Active; 'I' for Inactive)
REMARK    1  A    between atoms: C_1  and  N_2
REMARK    2  A    between atoms: N_2  and  C_3
REMARK    3  A    between atoms: C_4  and  C_6
REMARK    4  A    between atoms: C_8  and  C_9
REMARK    5  A    between atoms: N_13  and  C_14
REMARK    6  A    between atoms: C_23  and  N_24
REMARK                            x       y       z     vdW  Elec       q    Type
REMARK                         _______ _______ _______ _____ _____    ______ ____
ROOT
ATOM      1  C   UNL     1      -1.198  11.422  18.559  0.00  0.00    +0.000 A 
ATOM      2  C   UNL     1      -0.505  10.540  19.397  0.00  0.00    +0.000 A 
ATOM      3  C   UNL     1       0.563  10.962  20.243  0.00  0.00    +0.000 A 
ATOM      4  C   UNL     1       0.951  12.323  20.174  0.00  0.00    +0.000 A 
ATOM      5  O   UNL     1       2.047  12.788  20.871  0.00  0.00    +0.000 OA
ATOM      6  C   UNL     1       2.362  14.167  20.867  0.00  0.00    +0.000 A 
ATOM      7  C   UNL     1       1.653  15.054  20.144  0.00  0.00    +0.000 A 
ATOM      8  C   UNL     1       0.542  14.619  19.318  0.00  0.00    +0.000 A 
ATOM      9  O   UNL     1      -0.056  15.407  18.603  0.00  0.00    +0.000 OA
ATOM     10  C   UNL     1       0.198  13.195  19.388  0.00  0.00    +0.000 A 
ATOM     11  C   UNL     1      -0.892  12.765  18.643  0.00  0.00    +0.000 A 
ENDROOT
BRANCH   6  12
ATOM     12  N   UNL     1       3.437  14.567  21.661  0.00  0.00    +0.000 N 
ATOM     13  C   UNL     1       3.373  15.741  22.554  0.00  0.00    +0.000 C 
ATOM     14  C   UNL     1       4.670  16.555  22.433  0.00  0.00    +0.000 C 
ATOM     15  O   UNL     1       5.834  15.761  22.717  0.00  0.00    +0.000 OA
ATOM     16  C   UNL     1       5.904  14.630  21.834  0.00  0.00    +0.000 C 
ATOM     17  C   UNL     1       4.648  13.756  21.949  0.00  0.00    +0.000 C 
ENDBRANCH   6  12
BRANCH   1  21
ATOM     18  C   UNL     1      -4.601  10.600  17.025  0.00  0.00    +0.000 C 
ATOM     19  N   UNL     1      -3.623  11.132  17.956  0.00  0.00    +0.000 N 
ATOM     20  C   UNL     1      -4.127  12.012  19.006  0.00  0.00    +0.000 C 
ATOM     21  C   UNL     1      -2.266  10.908  17.649  0.00  0.00    +0.000 C 
ATOM     22  O   UNL     1      -1.913  10.304  16.638  0.00  0.00    +0.000 OA
ENDBRANCH   1  21
BRANCH   3  23
ATOM     23  C   UNL     1       1.226   9.938  21.180  0.00  0.00    +0.000 C 
ATOM     24  C   UNL     1       0.721  10.033  22.632  0.00  0.00    +0.000 C 
ATOM     25  C   UNL     1      -0.624   9.318  22.591  0.00  0.00    +0.000 C 
ATOM     26  C   UNL     1      -0.415   8.194  21.576  0.00  0.00    +0.000 C 
ATOM     27  N   UNL     1       0.827   8.545  20.864  0.00  0.00    +0.000 N 
BRANCH  27  28
ATOM     28  C   UNL     1       1.564   7.625  20.152  0.00  0.00    +0.000 A 
ATOM     29  C   UNL     1       1.725   6.287  20.561  0.00  0.00    +0.000 A 
ATOM     30  C   UNL     1       2.490   5.362  19.820  0.00  0.00    +0.000 A 
ATOM     31  C   UNL     1       3.113   5.748  18.644  0.00  0.00    +0.000 A 
ATOM     32  C   UNL     1       2.963   7.057  18.218  0.00  0.00    +0.000 A 
ATOM     33  F   UNL     1       3.542   7.447  17.073  0.00  0.00    +0.000 F 
ATOM     34  C   UNL     1       2.222   7.971  18.961  0.00  0.00    +0.000 A 
ENDBRANCH  27  28
ENDBRANCH   3  23
TORSDOF 4
ENDMDL
MODEL 8
REMARK VINA RESULT:      -7.2      1.655      1.839
REMARK  Name = 
REMARK  6 active torsions:
REMARK  status: ('A' for Active; 'I' for Inactive)
REMARK    1  A    between atoms: C_1  and  N_2
REMARK    2  A    between atoms: N_2  and  C_3
REMARK    3  A    between atoms: C_4  and  C_6
REMARK    4  A    between atoms: C_8  and  C_9
REMARK    5  A    between atoms: N_13  and  C_14
REMARK    6  A    between atoms: C_23  and  N_24
REMARK                            x       y       z     vdW  Elec       q    Type
REMARK                         _______ _______ _______ _____ _____    ______ ____
ROOT
ATOM      1  C   UNL     1      -0.193  10.258  20.168  0.00  0.00    +0.000 A 
ATOM      2  C   UNL     1      -1.044  10.457  19.075  0.00  0.00    +0.000 A 
ATOM      3  C   UNL     1      -1.976  11.534  19.012  0.00  0.00    +0.000 A 
ATOM      4  C   UNL     1      -2.060  12.391  20.137  0.00  0.00    +0.000 A 
ATOM      5  O   UNL     1      -3.013  13.385  20.207  0.00  0.00    +0.000 OA
ATOM      6  C   UNL     1      -3.020  14.293  21.293  0.00  0.00    +0.000 A 
ATOM      7  C   UNL     1      -2.150  14.182  22.313  0.00  0.00    +0.000 A 
ATOM      8  C   UNL     1      -1.178  13.105  22.348  0.00  0.00    +0.000 A 
ATOM      9  O   UNL     1      -0.437  12.956  23.306  0.00  0.00    +0.000 OA
ATOM     10  C   UNL     1      -1.151  12.216  21.181  0.00  0.00    +0.000 A 
ATOM     11  C   UNL     1      -0.197  11.208  21.170  0.00  0.00    +0.000 A 
ENDROOT
BRANCH   6  12
ATOM     12  N   UNL     1      -3.966  15.317  21.248  0.00  0.00    +0.000 N 
ATOM     13  C   UNL     1      -3.632  16.721  21.560  0.00  0.00    +0.000 C 
ATOM     14  C   UNL     1      -4.731  17.331  22.443  0.00  0.00    +0.000 C 
ATOM     15  O   UNL     1      -6.028  17.238  21.831  0.00  0.00    +0.000 OA
ATOM     16  C   UNL     1      -6.359  15.869  21.546  0.00  0.00    +0.000 C 
ATOM     17  C   UNL     1      -5.311  15.225  20.627  0.00  0.00    +0.000 C 
ENDBRANCH   6  12
BRANCH   1  21
ATOM     18  C   UNL     1       2.418   7.632  19.219  0.00  0.00    +0.000 C 
ATOM     19  N   UNL     1       1.564   8.802  19.111  0.00  0.00    +0.000 N 
ATOM     20  C   UNL     1       1.806   9.687  17.976  0.00  0.00    +0.000 C 
ATOM     21  C   UNL     1       0.718   9.074  20.204  0.00  0.00    +0.000 C 
ATOM     22  O   UNL     1       0.703   8.370  21.212  0.00  0.00    +0.000 OA
ENDBRANCH   1  21
BRANCH   3  23
ATOM     23  C   UNL     1      -2.828  11.716  17.743  0.00  0.00    +0.000 C 
ATOM     24  C   UNL     1      -2.295  10.915  16.540  0.00  0.00    +0.000 C 
ATOM     25  C   UNL     1      -2.773   9.496  16.814  0.00  0.00    +0.000 C 
ATOM     26  C   UNL     1      -4.133   9.686  17.486  0.00  0.00    +0.000 C 
ATOM     27  N   UNL     1      -4.174  11.106  17.877  0.00  0.00    +0.000 N 
BRANCH  27  28
ATOM     28  C   UNL     1      -5.347  11.770  18.157  0.00  0.00    +0.000 A 
ATOM     29  C   UNL     1      -5.947  12.680  17.265  0.00  0.00    +0.000 A 
ATOM     30  C   UNL     1      -7.147  13.354  17.575  0.00  0.00    +0.000 A 
ATOM     31  C   UNL     1      -7.785  13.133  18.785  0.00  0.00    +0.000 A 
ATOM     32  C   UNL     1      -7.218  12.237  19.675  0.00  0.00    +0.000 A 
ATOM     33  F   UNL     1      -7.829  11.994  20.844  0.00  0.00    +0.000 F 
ATOM     34  C   UNL     1      -6.025  11.587  19.373  0.00  0.00    +0.000 A 
ENDBRANCH  27  28
ENDBRANCH   3  23
TORSDOF 4
ENDMDL
MODEL 9
REMARK VINA RESULT:      -7.2      4.156      7.654
REMARK  Name = 
REMARK  6 active torsions:
REMARK  status: ('A' for Active; 'I' for Inactive)
REMARK    1  A    between atoms: C_1  and  N_2
REMARK    2  A    between atoms: N_2  and  C_3
REMARK    3  A    between atoms: C_4  and  C_6
REMARK    4  A    between atoms: C_8  and  C_9
REMARK    5  A    between atoms: N_13  and  C_14
REMARK    6  A    between atoms: C_23  and  N_24
REMARK                            x       y       z     vdW  Elec       q    Type
REMARK                         _______ _______ _______ _____ _____    ______ ____
ROOT
ATOM      1  C   UNL     1      -1.316  11.832  18.934  0.00  0.00    +0.000 A 
ATOM      2  C   UNL     1      -0.574  10.881  19.644  0.00  0.00    +0.000 A 
ATOM      3  C   UNL     1       0.567  11.224  20.428  0.00  0.00    +0.000 A 
ATOM      4  C   UNL     1       0.975  12.580  20.428  0.00  0.00    +0.000 A 
ATOM      5  O   UNL     1       2.132  12.977  21.065  0.00  0.00    +0.000 OA
ATOM      6  C   UNL     1       2.473  14.348  21.138  0.00  0.00    +0.000 A 
ATOM      7  C   UNL     1       1.724  15.296  20.544  0.00  0.00    +0.000 A 
ATOM      8  C   UNL     1       0.542  14.940  19.782  0.00  0.00    +0.000 A 
ATOM      9  O   UNL     1      -0.097  15.788  19.180  0.00  0.00    +0.000 OA
ATOM     10  C   UNL     1       0.177  13.519  19.775  0.00  0.00    +0.000 A 
ATOM     11  C   UNL     1      -0.978  13.161  19.092  0.00  0.00    +0.000 A 
ENDROOT
BRANCH   6  12
ATOM     12  N   UNL     1       3.616  14.673  21.868  0.00  0.00    +0.000 N 
ATOM     13  C   UNL     1       4.807  13.801  21.909  0.00  0.00    +0.000 C 
ATOM     14  C   UNL     1       5.333  13.712  23.350  0.00  0.00    +0.000 C 
ATOM     15  O   UNL     1       5.630  15.008  23.897  0.00  0.00    +0.000 OA
ATOM     16  C   UNL     1       4.464  15.848  23.873  0.00  0.00    +0.000 C 
ATOM     17  C   UNL     1       3.923  16.006  22.445  0.00  0.00    +0.000 C 
ENDBRANCH   6  12
BRANCH   1  21
ATOM     18  C   UNL     1      -4.845  11.099  17.663  0.00  0.00    +0.000 C 
ATOM     19  N   UNL     1      -3.785  11.541  18.550  0.00  0.00    +0.000 N 
ATOM     20  C   UNL     1      -4.192  12.263  19.751  0.00  0.00    +0.000 C 
ATOM     21  C   UNL     1      -2.464  11.403  18.079  0.00  0.00    +0.000 C 
ATOM     22  O   UNL     1      -2.208  10.944  16.967  0.00  0.00    +0.000 OA
ENDBRANCH   1  21
BRANCH   3  23
ATOM     23  C   UNL     1       1.285  10.122  21.228  0.00  0.00    +0.000 C 
ATOM     24  C   UNL     1       0.787  10.012  22.681  0.00  0.00    +0.000 C 
ATOM     25  C   UNL     1      -0.523   9.246  22.554  0.00  0.00    +0.000 C 
ATOM     26  C   UNL     1      -0.270   8.268  21.406  0.00  0.00    +0.000 C 
ATOM     27  N   UNL     1       0.948   8.762  20.741  0.00  0.00    +0.000 N 
BRANCH  27  28
ATOM     28  C   UNL     1       1.721   7.974  19.918  0.00  0.00    +0.000 A 
ATOM     29  C   UNL     1       2.177   8.397  18.655  0.00  0.00    +0.000 A 
ATOM     30  C   UNL     1       2.963   7.571  17.825  0.00  0.00    +0.000 A 
ATOM     31  C   UNL     1       3.321   6.298  18.237  0.00  0.00    +0.000 A 
ATOM     32  C   UNL     1       2.891   5.862  19.479  0.00  0.00    +0.000 A 
ATOM     33  F   UNL     1       3.241   4.640  19.906  0.00  0.00    +0.000 F 
ATOM     34  C   UNL     1       2.101   6.674  20.288  0.00  0.00    +0.000 A 
ENDBRANCH  27  28
ENDBRANCH   3  23
TORSDOF 4
ENDMDL
