MODEL 1
REMARK VINA RESULT:      -8.0      0.000      0.000
REMARK  Name = 
REMARK  10 active torsions:
REMARK  status: ('A' for Active; 'I' for Inactive)
REMARK    1  A    between atoms: C_4  and  C_5
REMARK    2  A    between atoms: C_5  and  C_6
REMARK    3  A    between atoms: C_6  and  C_7
REMARK    4  A    between atoms: C_7  and  N_8
REMARK    5  A    between atoms: N_11  and  C_12
REMARK    6  A    between atoms: C_12  and  C_13
REMARK    7  A    between atoms: C_13  and  O_14
REMARK    8  A    between atoms: O_14  and  C_15
REMARK    9  A    between atoms: C_15  and  C_16
REMARK   10  A    between atoms: C_15  and  C_22
REMARK                            x       y       z     vdW  Elec       q    Type
REMARK                         _______ _______ _______ _____ _____    ______ ____
ROOT
ATOM      1  C   UNL     1       5.436   4.136  17.933  0.00  0.00    +0.000 C 
ENDROOT
BRANCH   1   5
ATOM      2  N   UNL     1       6.895   7.518  17.989  0.00  0.00    +0.000 NA
ATOM      3  C   UNL     1       5.832   7.142  17.021  0.00  0.00    +0.000 C 
ATOM      4  C   UNL     1       6.145   5.845  16.235  0.00  0.00    +0.000 C 
ATOM      5  N   UNL     1       6.533   4.719  17.119  0.00  0.00    +0.000 NA
ATOM      6  C   UNL     1       7.654   5.143  17.981  0.00  0.00    +0.000 C 
ATOM      7  C   UNL     1       7.261   6.366  18.838  0.00  0.00    +0.000 C 
BRANCH   2   8
ATOM      8  C   UNL     1       8.113   8.156  17.436  0.00  0.00    +0.000 C 
BRANCH   8   9
ATOM      9  C   UNL     1       8.396   9.557  17.982  0.00  0.00    +0.000 C 
BRANCH   9  10
ATOM     10  C   UNL     1       9.174   9.548  19.307  0.00  0.00    +0.000 C 
BRANCH  10  14
ATOM     11  C   UNL     1      11.081  13.366  19.985  0.00  0.00    +0.000 A 
ATOM     12  C   UNL     1      11.569  12.504  19.003  0.00  0.00    +0.000 A 
ATOM     13  C   UNL     1      10.943  11.277  18.773  0.00  0.00    +0.000 A 
ATOM     14  C   UNL     1       9.825  10.892  19.539  0.00  0.00    +0.000 A 
ATOM     15  C   UNL     1       9.336  11.768  20.520  0.00  0.00    +0.000 A 
ATOM     16  C   UNL     1       9.962  13.001  20.742  0.00  0.00    +0.000 A 
ENDBRANCH  10  14
ENDBRANCH   9  10
ENDBRANCH   8   9
ENDBRANCH   2   8
ENDBRANCH   1   5
BRANCH   1  17
ATOM     17  C   UNL     1       4.110   3.986  17.170  0.00  0.00    +0.000 C 
BRANCH  17  18
ATOM     18  O   UNL     1       3.188   5.047  17.370  0.00  0.00    +0.000 OA
BRANCH  18  19
ATOM     19  C   UNL     1       3.141   5.539  18.705  0.00  0.00    +0.000 C 
BRANCH  19  20
ATOM     20  C   UNL     1       2.477   6.910  18.802  0.00  0.00    +0.000 A 
ATOM     21  C   UNL     1       2.331   7.752  17.681  0.00  0.00    +0.000 A 
ATOM     22  C   UNL     1       1.725   9.008  17.820  0.00  0.00    +0.000 A 
ATOM     23  C   UNL     1       1.263   9.436  19.069  0.00  0.00    +0.000 A 
ATOM     24  C   UNL     1       1.400   8.607  20.187  0.00  0.00    +0.000 A 
ATOM     25  C   UNL     1       2.001   7.353  20.051  0.00  0.00    +0.000 A 
ENDBRANCH  19  20
BRANCH  19  26
ATOM     26  C   UNL     1       2.454   4.521  19.601  0.00  0.00    +0.000 A 
ATOM     27  C   UNL     1       2.975   4.180  20.870  0.00  0.00    +0.000 A 
ATOM     28  C   UNL     1       2.299   3.279  21.696  0.00  0.00    +0.000 A 
ATOM     29  C   UNL     1       1.105   2.696  21.270  0.00  0.00    +0.000 A 
ATOM     30  C   UNL     1       0.582   3.015  20.015  0.00  0.00    +0.000 A 
ATOM     31  C   UNL     1       1.248   3.925  19.187  0.00  0.00    +0.000 A 
ENDBRANCH  19  26
ENDBRANCH  18  19
ENDBRANCH  17  18
ENDBRANCH   1  17
TORSDOF 10
ENDMDL
MODEL 2
REMARK VINA RESULT:      -7.9      5.013      9.722
REMARK  Name = 
REMARK  10 active torsions:
REMARK  status: ('A' for Active; 'I' for Inactive)
REMARK    1  A    between atoms: C_4  and  C_5
REMARK    2  A    between atoms: C_5  and  C_6
REMARK    3  A    between atoms: C_6  and  C_7
REMARK    4  A    between atoms: C_7  and  N_8
REMARK    5  A    between atoms: N_11  and  C_12
REMARK    6  A    between atoms: C_12  and  C_13
REMARK    7  A    between atoms: C_13  and  O_14
REMARK    8  A    between atoms: O_14  and  C_15
REMARK    9  A    between atoms: C_15  and  C_16
REMARK   10  A    between atoms: C_15  and  C_22
REMARK                            x       y       z     vdW  Elec       q    Type
REMARK                         _______ _______ _______ _____ _____    ______ ____
ROOT
ATOM      1  C   UNL     1       1.480   8.477  20.607  0.00  0.00    +0.000 C 
ENDROOT
BRANCH   1   5
ATOM      2  N   UNL     1      -0.129  11.359  22.244  0.00  0.00    +0.000 NA
ATOM      3  C   UNL     1      -0.153  10.002  22.851  0.00  0.00    +0.000 C 
ATOM      4  C   UNL     1      -0.643   8.901  21.880  0.00  0.00    +0.000 C 
ATOM      5  N   UNL     1       0.066   8.929  20.577  0.00  0.00    +0.000 NA
ATOM      6  C   UNL     1      -0.038  10.282  19.997  0.00  0.00    +0.000 C 
ATOM      7  C   UNL     1       0.572  11.338  20.945  0.00  0.00    +0.000 C 
BRANCH   2   8
ATOM      8  C   UNL     1      -1.428  12.060  22.117  0.00  0.00    +0.000 C 
BRANCH   8   9
ATOM      9  C   UNL     1      -2.358  11.893  23.320  0.00  0.00    +0.000 C 
BRANCH   9  10
ATOM     10  C   UNL     1      -3.201  13.144  23.617  0.00  0.00    +0.000 C 
BRANCH  10  14
ATOM     11  C   UNL     1      -7.334  12.489  22.539  0.00  0.00    +0.000 A 
ATOM     12  C   UNL     1      -6.362  12.612  21.546  0.00  0.00    +0.000 A 
ATOM     13  C   UNL     1      -5.025  12.808  21.895  0.00  0.00    +0.000 A 
ATOM     14  C   UNL     1      -4.646  12.898  23.249  0.00  0.00    +0.000 A 
ATOM     15  C   UNL     1      -5.628  12.765  24.241  0.00  0.00    +0.000 A 
ATOM     16  C   UNL     1      -6.968  12.562  23.889  0.00  0.00    +0.000 A 
ENDBRANCH  10  14
ENDBRANCH   9  10
ENDBRANCH   8   9
ENDBRANCH   2   8
ENDBRANCH   1   5
BRANCH   1  17
ATOM     17  C   UNL     1       2.014   8.019  19.241  0.00  0.00    +0.000 C 
BRANCH  17  18
ATOM     18  O   UNL     1       3.120   7.130  19.304  0.00  0.00    +0.000 OA
BRANCH  18  19
ATOM     19  C   UNL     1       3.088   6.083  18.340  0.00  0.00    +0.000 C 
BRANCH  19  20
ATOM     20  C   UNL     1       4.480   5.688  17.857  0.00  0.00    +0.000 A 
ATOM     21  C   UNL     1       5.480   5.235  18.742  0.00  0.00    +0.000 A 
ATOM     22  C   UNL     1       6.749   4.894  18.255  0.00  0.00    +0.000 A 
ATOM     23  C   UNL     1       7.034   5.002  16.890  0.00  0.00    +0.000 A 
ATOM     24  C   UNL     1       6.049   5.446  16.002  0.00  0.00    +0.000 A 
ATOM     25  C   UNL     1       4.782   5.784  16.485  0.00  0.00    +0.000 A 
ENDBRANCH  19  20
BRANCH  19  26
ATOM     26  C   UNL     1       2.332   4.891  18.903  0.00  0.00    +0.000 A 
ATOM     27  C   UNL     1       2.099   4.749  20.289  0.00  0.00    +0.000 A 
ATOM     28  C   UNL     1       1.359   3.669  20.778  0.00  0.00    +0.000 A 
ATOM     29  C   UNL     1       0.851   2.712  19.899  0.00  0.00    +0.000 A 
ATOM     30  C   UNL     1       1.082   2.832  18.527  0.00  0.00    +0.000 A 
ATOM     31  C   UNL     1       1.813   3.916  18.030  0.00  0.00    +0.000 A 
ENDBRANCH  19  26
ENDBRANCH  18  19
ENDBRANCH  17  18
ENDBRANCH   1  17
TORSDOF 10
ENDMDL
MODEL 3
REMARK VINA RESULT:      -7.8      4.397      8.940
REMARK  Name = 
REMARK  10 active torsions:
REMARK  status: ('A' for Active; 'I' for Inactive)
REMARK    1  A    between atoms: C_4  and  C_5
REMARK    2  A    between atoms: C_5  and  C_6
REMARK    3  A    between atoms: C_6  and  C_7
REMARK    4  A    between atoms: C_7  and  N_8
REMARK    5  A    between atoms: N_11  and  C_12
REMARK    6  A    between atoms: C_12  and  C_13
REMARK    7  A    between atoms: C_13  and  O_14
REMARK    8  A    between atoms: O_14  and  C_15
REMARK    9  A    between atoms: C_15  and  C_16
REMARK   10  A    between atoms: C_15  and  C_22
REMARK                            x       y       z     vdW  Elec       q    Type
REMARK                         _______ _______ _______ _____ _____    ______ ____
ROOT
ATOM      1  C   UNL     1       2.047   9.703  18.220  0.00  0.00    +0.000 C 
ENDROOT
BRANCH   1   5
ATOM      2  N   UNL     1       1.248  11.885  21.078  0.00  0.00    +0.000 NA
ATOM      3  C   UNL     1       0.825  10.461  21.041  0.00  0.00    +0.000 C 
ATOM      4  C   UNL     1       0.082  10.073  19.739  0.00  0.00    +0.000 C 
ATOM      5  N   UNL     1       0.817  10.480  18.517  0.00  0.00    +0.000 NA
ATOM      6  C   UNL     1       1.116  11.923  18.588  0.00  0.00    +0.000 C 
ATOM      7  C   UNL     1       1.962  12.251  19.838  0.00  0.00    +0.000 C 
BRANCH   2   8
ATOM      8  C   UNL     1       0.202  12.889  21.385  0.00  0.00    +0.000 C 
BRANCH   8   9
ATOM      9  C   UNL     1      -0.988  12.341  22.175  0.00  0.00    +0.000 C 
BRANCH   9  10
ATOM     10  C   UNL     1      -2.313  12.402  21.398  0.00  0.00    +0.000 C 
BRANCH  10  14
ATOM     11  C   UNL     1      -5.623  12.803  24.147  0.00  0.00    +0.000 A 
ATOM     12  C   UNL     1      -4.362  12.437  24.618  0.00  0.00    +0.000 A 
ATOM     13  C   UNL     1      -3.289  12.322  23.732  0.00  0.00    +0.000 A 
ATOM     14  C   UNL     1      -3.472  12.560  22.355  0.00  0.00    +0.000 A 
ATOM     15  C   UNL     1      -4.741  12.935  21.891  0.00  0.00    +0.000 A 
ATOM     16  C   UNL     1      -5.814  13.056  22.783  0.00  0.00    +0.000 A 
ENDBRANCH  10  14
ENDBRANCH   9  10
ENDBRANCH   8   9
ENDBRANCH   2   8
ENDBRANCH   1   5
BRANCH   1  17
ATOM     17  C   UNL     1       1.836   8.180  18.229  0.00  0.00    +0.000 C 
BRANCH  17  18
ATOM     18  O   UNL     1       2.995   7.423  18.544  0.00  0.00    +0.000 OA
BRANCH  18  19
ATOM     19  C   UNL     1       3.093   6.183  17.852  0.00  0.00    +0.000 C 
BRANCH  19  20
ATOM     20  C   UNL     1       4.538   5.758  17.610  0.00  0.00    +0.000 A 
ATOM     21  C   UNL     1       5.001   5.366  16.338  0.00  0.00    +0.000 A 
ATOM     22  C   UNL     1       6.335   4.973  16.165  0.00  0.00    +0.000 A 
ATOM     23  C   UNL     1       7.216   4.965  17.252  0.00  0.00    +0.000 A 
ATOM     24  C   UNL     1       6.768   5.356  18.518  0.00  0.00    +0.000 A 
ATOM     25  C   UNL     1       5.439   5.752  18.692  0.00  0.00    +0.000 A 
ENDBRANCH  19  20
BRANCH  19  26
ATOM     26  C   UNL     1       2.315   5.115  18.603  0.00  0.00    +0.000 A 
ATOM     27  C   UNL     1       2.088   5.204  19.994  0.00  0.00    +0.000 A 
ATOM     28  C   UNL     1       1.327   4.235  20.654  0.00  0.00    +0.000 A 
ATOM     29  C   UNL     1       0.792   3.161  19.943  0.00  0.00    +0.000 A 
ATOM     30  C   UNL     1       1.015   3.052  18.569  0.00  0.00    +0.000 A 
ATOM     31  C   UNL     1       1.767   4.024  17.901  0.00  0.00    +0.000 A 
ENDBRANCH  19  26
ENDBRANCH  18  19
ENDBRANCH  17  18
ENDBRANCH   1  17
TORSDOF 10
ENDMDL
MODEL 4
REMARK VINA RESULT:      -7.8      4.553      9.555
REMARK  Name = 
REMARK  10 active torsions:
REMARK  status: ('A' for Active; 'I' for Inactive)
REMARK    1  A    between atoms: C_4  and  C_5
REMARK    2  A    between atoms: C_5  and  C_6
REMARK    3  A    between atoms: C_6  and  C_7
REMARK    4  A    between atoms: C_7  and  N_8
REMARK    5  A    between atoms: N_11  and  C_12
REMARK    6  A    between atoms: C_12  and  C_13
REMARK    7  A    between atoms: C_13  and  O_14
REMARK    8  A    between atoms: O_14  and  C_15
REMARK    9  A    between atoms: C_15  and  C_16
REMARK   10  A    between atoms: C_15  and  C_22
REMARK                            x       y       z     vdW  Elec       q    Type
REMARK                         _______ _______ _______ _____ _____    ______ ____
ROOT
ATOM      1  C   UNL     1       1.945   9.534  18.345  0.00  0.00    +0.000 C 
ENDROOT
BRANCH   1   5
ATOM      2  N   UNL     1      -0.095  12.001  20.170  0.00  0.00    +0.000 NA
ATOM      3  C   UNL     1       0.925  11.168  20.859  0.00  0.00    +0.000 C 
ATOM      4  C   UNL     1       0.783   9.654  20.568  0.00  0.00    +0.000 C 
ATOM      5  N   UNL     1       0.690   9.355  19.118  0.00  0.00    +0.000 NA
ATOM      6  C   UNL     1      -0.405  10.149  18.528  0.00  0.00    +0.000 C 
ATOM      7  C   UNL     1      -0.164  11.661  18.734  0.00  0.00    +0.000 C 
BRANCH   2   8
ATOM      8  C   UNL     1      -1.454  12.023  20.759  0.00  0.00    +0.000 C 
BRANCH   8   9
ATOM      9  C   UNL     1      -2.436  12.958  20.050  0.00  0.00    +0.000 C 
BRANCH   9  10
ATOM     10  C   UNL     1      -3.504  13.543  20.988  0.00  0.00    +0.000 C 
BRANCH  10  14
ATOM     11  C   UNL     1      -7.299  11.586  20.325  0.00  0.00    +0.000 A 
ATOM     12  C   UNL     1      -6.322  11.575  19.330  0.00  0.00    +0.000 A 
ATOM     13  C   UNL     1      -5.090  12.193  19.550  0.00  0.00    +0.000 A 
ATOM     14  C   UNL     1      -4.828  12.846  20.771  0.00  0.00    +0.000 A 
ATOM     15  C   UNL     1      -5.813  12.846  21.769  0.00  0.00    +0.000 A 
ATOM     16  C   UNL     1      -7.045  12.218  21.548  0.00  0.00    +0.000 A 
ENDBRANCH  10  14
ENDBRANCH   9  10
ENDBRANCH   8   9
ENDBRANCH   2   8
ENDBRANCH   1   5
BRANCH   1  17
ATOM     17  C   UNL     1       2.375   8.284  17.562  0.00  0.00    +0.000 C 
BRANCH  17  18
ATOM     18  O   UNL     1       3.091   7.324  18.325  0.00  0.00    +0.000 OA
BRANCH  18  19
ATOM     19  C   UNL     1       3.162   6.033  17.727  0.00  0.00    +0.000 C 
BRANCH  19  20
ATOM     20  C   UNL     1       4.598   5.545  17.555  0.00  0.00    +0.000 A 
ATOM     21  C   UNL     1       5.548   5.631  18.593  0.00  0.00    +0.000 A 
ATOM     22  C   UNL     1       6.858   5.180  18.386  0.00  0.00    +0.000 A 
ATOM     23  C   UNL     1       7.234   4.644  17.149  0.00  0.00    +0.000 A 
ATOM     24  C   UNL     1       6.298   4.550  16.114  0.00  0.00    +0.000 A 
ATOM     25  C   UNL     1       4.990   4.996  16.319  0.00  0.00    +0.000 A 
ENDBRANCH  19  20
BRANCH  19  26
ATOM     26  C   UNL     1       2.330   5.050  18.533  0.00  0.00    +0.000 A 
ATOM     27  C   UNL     1       1.770   3.895  17.943  0.00  0.00    +0.000 A 
ATOM     28  C   UNL     1       1.050   2.980  18.716  0.00  0.00    +0.000 A 
ATOM     29  C   UNL     1       0.868   3.205  20.081  0.00  0.00    +0.000 A 
ATOM     30  C   UNL     1       1.406   4.347  20.678  0.00  0.00    +0.000 A 
ATOM     31  C   UNL     1       2.137   5.261  19.912  0.00  0.00    +0.000 A 
ENDBRANCH  19  26
ENDBRANCH  18  19
ENDBRANCH  17  18
ENDBRANCH   1  17
TORSDOF 10
ENDMDL
MODEL 5
REMARK VINA RESULT:      -7.8      4.821      9.563
REMARK  Name = 
REMARK  10 active torsions:
REMARK  status: ('A' for Active; 'I' for Inactive)
REMARK    1  A    between atoms: C_4  and  C_5
REMARK    2  A    between atoms: C_5  and  C_6
REMARK    3  A    between atoms: C_6  and  C_7
REMARK    4  A    between atoms: C_7  and  N_8
REMARK    5  A    between atoms: N_11  and  C_12
REMARK    6  A    between atoms: C_12  and  C_13
REMARK    7  A    between atoms: C_13  and  O_14
REMARK    8  A    between atoms: O_14  and  C_15
REMARK    9  A    between atoms: C_15  and  C_16
REMARK   10  A    between atoms: C_15  and  C_22
REMARK                            x       y       z     vdW  Elec       q    Type
REMARK                         _______ _______ _______ _____ _____    ______ ____
ROOT
ATOM      1  C   UNL     1       1.500   9.071  18.841  0.00  0.00    +0.000 C 
ENDROOT
BRANCH   1   5
ATOM      2  N   UNL     1      -0.880  11.480  20.293  0.00  0.00    +0.000 NA
ATOM      3  C   UNL     1      -1.331  10.372  19.411  0.00  0.00    +0.000 C 
ATOM      4  C   UNL     1      -0.555  10.294  18.073  0.00  0.00    +0.000 C 
ATOM      5  N   UNL     1       0.916  10.308  18.263  0.00  0.00    +0.000 NA
ATOM      6  C   UNL     1       1.291  11.488  19.066  0.00  0.00    +0.000 C 
ATOM      7  C   UNL     1       0.590  11.465  20.442  0.00  0.00    +0.000 C 
BRANCH   2   8
ATOM      8  C   UNL     1      -1.349  12.843  19.951  0.00  0.00    +0.000 C 
BRANCH   8   9
ATOM      9  C   UNL     1      -2.738  13.189  20.491  0.00  0.00    +0.000 C 
BRANCH   9  10
ATOM     10  C   UNL     1      -3.014  12.596  21.882  0.00  0.00    +0.000 C 
BRANCH  10  14
ATOM     11  C   UNL     1      -7.192  12.986  22.916  0.00  0.00    +0.000 A 
ATOM     12  C   UNL     1      -6.210  13.141  23.895  0.00  0.00    +0.000 A 
ATOM     13  C   UNL     1      -4.860  13.030  23.558  0.00  0.00    +0.000 A 
ATOM     14  C   UNL     1      -4.477  12.747  22.232  0.00  0.00    +0.000 A 
ATOM     15  C   UNL     1      -5.469  12.601  21.252  0.00  0.00    +0.000 A 
ATOM     16  C   UNL     1      -6.823  12.719  21.592  0.00  0.00    +0.000 A 
ENDBRANCH  10  14
ENDBRANCH   9  10
ENDBRANCH   8   9
ENDBRANCH   2   8
ENDBRANCH   1   5
BRANCH   1  17
ATOM     17  C   UNL     1       2.391   8.290  17.862  0.00  0.00    +0.000 C 
BRANCH  17  18
ATOM     18  O   UNL     1       3.189   7.280  18.464  0.00  0.00    +0.000 OA
BRANCH  18  19
ATOM     19  C   UNL     1       3.189   6.039  17.768  0.00  0.00    +0.000 C 
BRANCH  19  20
ATOM     20  C   UNL     1       4.597   5.520  17.494  0.00  0.00    +0.000 A 
ATOM     21  C   UNL     1       4.937   4.878  16.285  0.00  0.00    +0.000 A 
ATOM     22  C   UNL     1       6.241   4.408  16.082  0.00  0.00    +0.000 A 
ATOM     23  C   UNL     1       7.214   4.569  17.075  0.00  0.00    +0.000 A 
ATOM     24  C   UNL     1       6.888   5.207  18.276  0.00  0.00    +0.000 A 
ATOM     25  C   UNL     1       5.589   5.680  18.480  0.00  0.00    +0.000 A 
ENDBRANCH  19  20
BRANCH  19  26
ATOM     26  C   UNL     1       2.358   5.023  18.535  0.00  0.00    +0.000 A 
ATOM     27  C   UNL     1       1.805   3.888  17.900  0.00  0.00    +0.000 A 
ATOM     28  C   UNL     1       1.086   2.942  18.637  0.00  0.00    +0.000 A 
ATOM     29  C   UNL     1       0.898   3.117  20.008  0.00  0.00    +0.000 A 
ATOM     30  C   UNL     1       1.429   4.238  20.648  0.00  0.00    +0.000 A 
ATOM     31  C   UNL     1       2.159   5.183  19.919  0.00  0.00    +0.000 A 
ENDBRANCH  19  26
ENDBRANCH  18  19
ENDBRANCH  17  18
ENDBRANCH   1  17
TORSDOF 10
ENDMDL
MODEL 6
REMARK VINA RESULT:      -7.7      4.702      9.179
REMARK  Name = 
REMARK  10 active torsions:
REMARK  status: ('A' for Active; 'I' for Inactive)
REMARK    1  A    between atoms: C_4  and  C_5
REMARK    2  A    between atoms: C_5  and  C_6
REMARK    3  A    between atoms: C_6  and  C_7
REMARK    4  A    between atoms: C_7  and  N_8
REMARK    5  A    between atoms: N_11  and  C_12
REMARK    6  A    between atoms: C_12  and  C_13
REMARK    7  A    between atoms: C_13  and  O_14
REMARK    8  A    between atoms: O_14  and  C_15
REMARK    9  A    between atoms: C_15  and  C_16
REMARK   10  A    between atoms: C_15  and  C_22
REMARK                            x       y       z     vdW  Elec       q    Type
REMARK                         _______ _______ _______ _____ _____    ______ ____
ROOT
ATOM      1  C   UNL     1       1.685   8.158  20.395  0.00  0.00    +0.000 C 
ENDROOT
BRANCH   1   5
ATOM      2  N   UNL     1       0.232  10.898  22.384  0.00  0.00    +0.000 NA
ATOM      3  C   UNL     1       0.228   9.493  22.870  0.00  0.00    +0.000 C 
ATOM      4  C   UNL     1      -0.342   8.487  21.841  0.00  0.00    +0.000 C 
ATOM      5  N   UNL     1       0.279   8.624  20.501  0.00  0.00    +0.000 NA
ATOM      6  C   UNL     1       0.157  10.023  20.050  0.00  0.00    +0.000 C 
ATOM      7  C   UNL     1       0.845  10.986  21.043  0.00  0.00    +0.000 C 
BRANCH   2   8
ATOM      8  C   UNL     1      -1.062  11.620  22.407  0.00  0.00    +0.000 C 
BRANCH   8   9
ATOM      9  C   UNL     1      -0.937  13.140  22.523  0.00  0.00    +0.000 C 
BRANCH   9  10
ATOM     10  C   UNL     1      -1.691  13.722  23.729  0.00  0.00    +0.000 C 
BRANCH  10  14
ATOM     11  C   UNL     1      -5.940  13.117  23.229  0.00  0.00    +0.000 A 
ATOM     12  C   UNL     1      -5.279  12.568  24.328  0.00  0.00    +0.000 A 
ATOM     13  C   UNL     1      -3.909  12.776  24.497  0.00  0.00    +0.000 A 
ATOM     14  C   UNL     1      -3.180  13.529  23.556  0.00  0.00    +0.000 A 
ATOM     15  C   UNL     1      -3.854  14.084  22.458  0.00  0.00    +0.000 A 
ATOM     16  C   UNL     1      -5.229  13.879  22.294  0.00  0.00    +0.000 A 
ENDBRANCH  10  14
ENDBRANCH   9  10
ENDBRANCH   8   9
ENDBRANCH   2   8
ENDBRANCH   1   5
BRANCH   1  17
ATOM     17  C   UNL     1       2.121   7.819  18.961  0.00  0.00    +0.000 C 
BRANCH  17  18
ATOM     18  O   UNL     1       3.258   6.973  18.871  0.00  0.00    +0.000 OA
BRANCH  18  19
ATOM     19  C   UNL     1       3.097   5.862  17.997  0.00  0.00    +0.000 C 
BRANCH  19  20
ATOM     20  C   UNL     1       4.396   5.470  17.300  0.00  0.00    +0.000 A 
ATOM     21  C   UNL     1       4.505   4.300  16.521  0.00  0.00    +0.000 A 
ATOM     22  C   UNL     1       5.722   3.974  15.908  0.00  0.00    +0.000 A 
ATOM     23  C   UNL     1       6.838   4.803  16.066  0.00  0.00    +0.000 A 
ATOM     24  C   UNL     1       6.740   5.969  16.834  0.00  0.00    +0.000 A 
ATOM     25  C   UNL     1       5.526   6.298  17.443  0.00  0.00    +0.000 A 
ENDBRANCH  19  20
BRANCH  19  26
ATOM     26  C   UNL     1       2.497   4.693  18.761  0.00  0.00    +0.000 A 
ATOM     27  C   UNL     1       1.436   3.926  18.230  0.00  0.00    +0.000 A 
ATOM     28  C   UNL     1       0.935   2.825  18.930  0.00  0.00    +0.000 A 
ATOM     29  C   UNL     1       1.473   2.479  20.170  0.00  0.00    +0.000 A 
ATOM     30  C   UNL     1       2.515   3.233  20.714  0.00  0.00    +0.000 A 
ATOM     31  C   UNL     1       3.028   4.329  20.013  0.00  0.00    +0.000 A 
ENDBRANCH  19  26
ENDBRANCH  18  19
ENDBRANCH  17  18
ENDBRANCH   1  17
TORSDOF 10
ENDMDL
MODEL 7
REMARK VINA RESULT:      -7.7      4.538      9.380
REMARK  Name = 
REMARK  10 active torsions:
REMARK  status: ('A' for Active; 'I' for Inactive)
REMARK    1  A    between atoms: C_4  and  C_5
REMARK    2  A    between atoms: C_5  and  C_6
REMARK    3  A    between atoms: C_6  and  C_7
REMARK    4  A    between atoms: C_7  and  N_8
REMARK    5  A    between atoms: N_11  and  C_12
REMARK    6  A    between atoms: C_12  and  C_13
REMARK    7  A    between atoms: C_13  and  O_14
REMARK    8  A    between atoms: O_14  and  C_15
REMARK    9  A    between atoms: C_15  and  C_16
REMARK   10  A    between atoms: C_15  and  C_22
REMARK                            x       y       z     vdW  Elec       q    Type
REMARK                         _______ _______ _______ _____ _____    ______ ____
ROOT
ATOM      1  C   UNL     1       2.176   9.659  18.463  0.00  0.00    +0.000 C 
ENDROOT
BRANCH   1   5
ATOM      2  N   UNL     1       0.809  11.721  21.193  0.00  0.00    +0.000 NA
ATOM      3  C   UNL     1       0.368  10.318  20.978  0.00  0.00    +0.000 C 
ATOM      4  C   UNL     1      -0.071  10.027  19.522  0.00  0.00    +0.000 C 
ATOM      5  N   UNL     1       0.932  10.467  18.522  0.00  0.00    +0.000 NA
ATOM      6  C   UNL     1       1.245  11.892  18.744  0.00  0.00    +0.000 C 
ATOM      7  C   UNL     1       1.795  12.122  20.169  0.00  0.00    +0.000 C 
BRANCH   2   8
ATOM      8  C   UNL     1      -0.252  12.747  21.317  0.00  0.00    +0.000 C 
BRANCH   8   9
ATOM      9  C   UNL     1      -1.641  12.187  21.631  0.00  0.00    +0.000 C 
BRANCH   9  10
ATOM     10  C   UNL     1      -2.047  12.356  23.104  0.00  0.00    +0.000 C 
BRANCH  10  14
ATOM     11  C   UNL     1      -6.325  12.882  23.409  0.00  0.00    +0.000 A 
ATOM     12  C   UNL     1      -5.695  12.965  22.166  0.00  0.00    +0.000 A 
ATOM     13  C   UNL     1      -4.315  12.780  22.066  0.00  0.00    +0.000 A 
ATOM     14  C   UNL     1      -3.544  12.522  23.217  0.00  0.00    +0.000 A 
ATOM     15  C   UNL     1      -4.186  12.432  24.461  0.00  0.00    +0.000 A 
ATOM     16  C   UNL     1      -5.571  12.611  24.557  0.00  0.00    +0.000 A 
ENDBRANCH  10  14
ENDBRANCH   9  10
ENDBRANCH   8   9
ENDBRANCH   2   8
ENDBRANCH   1   5
BRANCH   1  17
ATOM     17  C   UNL     1       1.930   8.142  18.466  0.00  0.00    +0.000 C 
BRANCH  17  18
ATOM     18  O   UNL     1       2.922   7.380  17.792  0.00  0.00    +0.000 OA
BRANCH  18  19
ATOM     19  C   UNL     1       3.562   6.401  18.603  0.00  0.00    +0.000 C 
BRANCH  19  20
ATOM     20  C   UNL     1       2.613   5.287  19.036  0.00  0.00    +0.000 A 
ATOM     21  C   UNL     1       2.262   5.085  20.386  0.00  0.00    +0.000 A 
ATOM     22  C   UNL     1       1.395   4.042  20.739  0.00  0.00    +0.000 A 
ATOM     23  C   UNL     1       0.875   3.192  19.756  0.00  0.00    +0.000 A 
ATOM     24  C   UNL     1       1.214   3.386  18.413  0.00  0.00    +0.000 A 
ATOM     25  C   UNL     1       2.075   4.428  18.059  0.00  0.00    +0.000 A 
ENDBRANCH  19  20
BRANCH  19  26
ATOM     26  C   UNL     1       4.777   5.849  17.876  0.00  0.00    +0.000 A 
ATOM     27  C   UNL     1       4.954   6.029  16.486  0.00  0.00    +0.000 A 
ATOM     28  C   UNL     1       6.104   5.556  15.848  0.00  0.00    +0.000 A 
ATOM     29  C   UNL     1       7.086   4.888  16.580  0.00  0.00    +0.000 A 
ATOM     30  C   UNL     1       6.922   4.692  17.953  0.00  0.00    +0.000 A 
ATOM     31  C   UNL     1       5.778   5.173  18.599  0.00  0.00    +0.000 A 
ENDBRANCH  19  26
ENDBRANCH  18  19
ENDBRANCH  17  18
ENDBRANCH   1  17
TORSDOF 10
ENDMDL
MODEL 8
REMARK VINA RESULT:      -7.7      4.689      9.256
REMARK  Name = 
REMARK  10 active torsions:
REMARK  status: ('A' for Active; 'I' for Inactive)
REMARK    1  A    between atoms: C_4  and  C_5
REMARK    2  A    between atoms: C_5  and  C_6
REMARK    3  A    between atoms: C_6  and  C_7
REMARK    4  A    between atoms: C_7  and  N_8
REMARK    5  A    between atoms: N_11  and  C_12
REMARK    6  A    between atoms: C_12  and  C_13
REMARK    7  A    between atoms: C_13  and  O_14
REMARK    8  A    between atoms: O_14  and  C_15
REMARK    9  A    between atoms: C_15  and  C_16
REMARK   10  A    between atoms: C_15  and  C_22
REMARK                            x       y       z     vdW  Elec       q    Type
REMARK                         _______ _______ _______ _____ _____    ______ ____
ROOT
ATOM      1  C   UNL     1       1.585   9.630  17.972  0.00  0.00    +0.000 C 
ENDROOT
BRANCH   1   5
ATOM      2  N   UNL     1      -0.273  12.040  20.048  0.00  0.00    +0.000 NA
ATOM      3  C   UNL     1       0.982  11.403  20.525  0.00  0.00    +0.000 C 
ATOM      4  C   UNL     1       0.977   9.860  20.397  0.00  0.00    +0.000 C 
ATOM      5  N   UNL     1       0.584   9.399  19.044  0.00  0.00    +0.000 NA
ATOM      6  C   UNL     1      -0.715  10.000  18.684  0.00  0.00    +0.000 C 
ATOM      7  C   UNL     1      -0.635  11.542  18.705  0.00  0.00    +0.000 C 
BRANCH   2   8
ATOM      8  C   UNL     1      -1.445  11.977  20.953  0.00  0.00    +0.000 C 
BRANCH   8   9
ATOM      9  C   UNL     1      -2.639  12.821  20.502  0.00  0.00    +0.000 C 
BRANCH   9  10
ATOM     10  C   UNL     1      -3.015  13.925  21.503  0.00  0.00    +0.000 C 
BRANCH  10  14
ATOM     11  C   UNL     1      -5.850  12.457  24.415  0.00  0.00    +0.000 A 
ATOM     12  C   UNL     1      -6.297  12.947  23.187  0.00  0.00    +0.000 A 
ATOM     13  C   UNL     1      -5.380  13.407  22.240  0.00  0.00    +0.000 A 
ATOM     14  C   UNL     1      -3.999  13.395  22.520  0.00  0.00    +0.000 A 
ATOM     15  C   UNL     1      -3.557  12.894  23.753  0.00  0.00    +0.000 A 
ATOM     16  C   UNL     1      -4.479  12.426  24.698  0.00  0.00    +0.000 A 
ENDBRANCH  10  14
ENDBRANCH   9  10
ENDBRANCH   8   9
ENDBRANCH   2   8
ENDBRANCH   1   5
BRANCH   1  17
ATOM     17  C   UNL     1       2.734   8.609  17.966  0.00  0.00    +0.000 C 
BRANCH  17  18
ATOM     18  O   UNL     1       2.468   7.413  18.686  0.00  0.00    +0.000 OA
BRANCH  18  19
ATOM     19  C   UNL     1       2.786   6.219  17.979  0.00  0.00    +0.000 C 
BRANCH  19  20
ATOM     20  C   UNL     1       4.290   5.982  17.874  0.00  0.00    +0.000 A 
ATOM     21  C   UNL     1       4.986   6.111  16.655  0.00  0.00    +0.000 A 
ATOM     22  C   UNL     1       6.366   5.873  16.604  0.00  0.00    +0.000 A 
ATOM     23  C   UNL     1       7.062   5.504  17.760  0.00  0.00    +0.000 A 
ATOM     24  C   UNL     1       6.383   5.378  18.976  0.00  0.00    +0.000 A 
ATOM     25  C   UNL     1       5.007   5.618  19.030  0.00  0.00    +0.000 A 
ENDBRANCH  19  20
BRANCH  19  26
ATOM     26  C   UNL     1       2.078   5.039  18.624  0.00  0.00    +0.000 A 
ATOM     27  C   UNL     1       1.784   3.864  17.896  0.00  0.00    +0.000 A 
ATOM     28  C   UNL     1       1.177   2.773  18.524  0.00  0.00    +0.000 A 
ATOM     29  C   UNL     1       0.843   2.839  19.878  0.00  0.00    +0.000 A 
ATOM     30  C   UNL     1       1.117   3.997  20.608  0.00  0.00    +0.000 A 
ATOM     31  C   UNL     1       1.735   5.089  19.988  0.00  0.00    +0.000 A 
ENDBRANCH  19  26
ENDBRANCH  18  19
ENDBRANCH  17  18
ENDBRANCH   1  17
TORSDOF 10
ENDMDL
MODEL 9
REMARK VINA RESULT:      -7.7      4.858      9.200
REMARK  Name = 
REMARK  10 active torsions:
REMARK  status: ('A' for Active; 'I' for Inactive)
REMARK    1  A    between atoms: C_4  and  C_5
REMARK    2  A    between atoms: C_5  and  C_6
REMARK    3  A    between atoms: C_6  and  C_7
REMARK    4  A    between atoms: C_7  and  N_8
REMARK    5  A    between atoms: N_11  and  C_12
REMARK    6  A    between atoms: C_12  and  C_13
REMARK    7  A    between atoms: C_13  and  O_14
REMARK    8  A    between atoms: O_14  and  C_15
REMARK    9  A    between atoms: C_15  and  C_16
REMARK   10  A    between atoms: C_15  and  C_22
REMARK                            x       y       z     vdW  Elec       q    Type
REMARK                         _______ _______ _______ _____ _____    ______ ____
ROOT
ATOM      1  C   UNL     1       1.985   9.912  18.740  0.00  0.00    +0.000 C 
ENDROOT
BRANCH   1   5
ATOM      2  N   UNL     1       0.411  11.703  21.548  0.00  0.00    +0.000 NA
ATOM      3  C   UNL     1       0.115  10.274  21.270  0.00  0.00    +0.000 C 
ATOM      4  C   UNL     1      -0.290  10.003  19.800  0.00  0.00    +0.000 C 
ATOM      5  N   UNL     1       0.665  10.586  18.826  0.00  0.00    +0.000 NA
ATOM      6  C   UNL     1       0.831  12.025  19.111  0.00  0.00    +0.000 C 
ATOM      7  C   UNL     1       1.352  12.247  20.548  0.00  0.00    +0.000 C 
BRANCH   2   8
ATOM      8  C   UNL     1      -0.750  12.610  21.709  0.00  0.00    +0.000 C 
BRANCH   8   9
ATOM      9  C   UNL     1      -1.326  12.655  23.125  0.00  0.00    +0.000 C 
BRANCH   9  10
ATOM     10  C   UNL     1      -2.735  12.048  23.229  0.00  0.00    +0.000 C 
BRANCH  10  14
ATOM     11  C   UNL     1      -5.728  15.163  23.195  0.00  0.00    +0.000 A 
ATOM     12  C   UNL     1      -4.618  15.268  24.033  0.00  0.00    +0.000 A 
ATOM     13  C   UNL     1      -3.643  14.269  24.032  0.00  0.00    +0.000 A 
ATOM     14  C   UNL     1      -3.778  13.141  23.199  0.00  0.00    +0.000 A 
ATOM     15  C   UNL     1      -4.893  13.047  22.353  0.00  0.00    +0.000 A 
ATOM     16  C   UNL     1      -5.866  14.055  22.351  0.00  0.00    +0.000 A 
ENDBRANCH  10  14
ENDBRANCH   9  10
ENDBRANCH   8   9
ENDBRANCH   2   8
ENDBRANCH   1   5
BRANCH   1  17
ATOM     17  C   UNL     1       1.929   8.520  18.089  0.00  0.00    +0.000 C 
BRANCH  17  18
ATOM     18  O   UNL     1       2.618   7.504  18.804  0.00  0.00    +0.000 OA
BRANCH  18  19
ATOM     19  C   UNL     1       2.894   6.334  18.042  0.00  0.00    +0.000 C 
BRANCH  19  20
ATOM     20  C   UNL     1       4.389   6.066  17.900  0.00  0.00    +0.000 A 
ATOM     21  C   UNL     1       5.078   6.286  16.690  0.00  0.00    +0.000 A 
ATOM     22  C   UNL     1       6.450   6.015  16.602  0.00  0.00    +0.000 A 
ATOM     23  C   UNL     1       7.145   5.523  17.712  0.00  0.00    +0.000 A 
ATOM     24  C   UNL     1       6.472   5.304  18.919  0.00  0.00    +0.000 A 
ATOM     25  C   UNL     1       5.105   5.577  19.009  0.00  0.00    +0.000 A 
ENDBRANCH  19  20
BRANCH  19  26
ATOM     26  C   UNL     1       2.167   5.145  18.648  0.00  0.00    +0.000 A 
ATOM     27  C   UNL     1       1.868   3.993  17.888  0.00  0.00    +0.000 A 
ATOM     28  C   UNL     1       1.244   2.892  18.481  0.00  0.00    +0.000 A 
ATOM     29  C   UNL     1       0.899   2.926  19.832  0.00  0.00    +0.000 A 
ATOM     30  C   UNL     1       1.178   4.061  20.596  0.00  0.00    +0.000 A 
ATOM     31  C   UNL     1       1.812   5.162  20.011  0.00  0.00    +0.000 A 
ENDBRANCH  19  26
ENDBRANCH  18  19
ENDBRANCH  17  18
ENDBRANCH   1  17
TORSDOF 10
ENDMDL
