MODEL 1
REMARK VINA RESULT:      -7.1      0.000      0.000
REMARK  Name = 
REMARK  4 active torsions:
REMARK  status: ('A' for Active; 'I' for Inactive)
REMARK    1  A    between atoms: C_2  and  C_4
REMARK    2  A    between atoms: C_4  and  S_5
REMARK    3  A    between atoms: S_5  and  C_6
REMARK    4  A    between atoms: C_7  and  C_8
REMARK                            x       y       z     vdW  Elec       q    Type
REMARK                         _______ _______ _______ _____ _____    ______ ____
ROOT
ATOM      1  C   UNL     1       5.955   4.399  17.730  0.00  0.00    +0.000 A 
ATOM      2  C   UNL     1       5.457   4.795  19.010  0.00  0.00    +0.000 A 
ATOM      3  N   UNL     1       6.483   5.103  19.823  0.00  0.00    +0.000 NA
ATOM      4  O   UNL     1       7.648   4.940  19.102  0.00  0.00    +0.000 OA
ATOM      5  N   UNL     1       7.290   4.505  17.793  0.00  0.00    +0.000 N 
ATOM      6  O   UNL     1       8.239   4.318  16.994  0.00  0.00    +0.000 OA
ENDROOT
BRANCH   2   7
ATOM      7  C   UNL     1       4.084   4.887  19.526  0.00  0.00    +0.000 A 
ATOM      8  C   UNL     1       3.402   6.116  19.475  0.00  0.00    +0.000 A 
ATOM      9  C   UNL     1       2.090   6.233  19.944  0.00  0.00    +0.000 A 
ATOM     10  C   UNL     1       1.440   5.123  20.476  0.00  0.00    +0.000 A 
ATOM     11  C   UNL     1       2.098   3.896  20.527  0.00  0.00    +0.000 A 
ATOM     12  C   UNL     1       3.405   3.777  20.045  0.00  0.00    +0.000 A 
ENDBRANCH   2   7
BRANCH   1  13
ATOM     13  S   UNL     1       5.026   3.895  16.323  0.00  0.00    +0.000 S 
BRANCH  13  14
ATOM     14  C   UNL     1       5.393   5.174  15.087  0.00  0.00    +0.000 C 
BRANCH  14  16
ATOM     15  N   UNL     1       7.672   5.366  14.238  0.00  0.00    +0.000 N 
ATOM     16  C   UNL     1       6.493   4.675  14.174  0.00  0.00    +0.000 C 
ATOM     17  O   UNL     1       6.365   3.724  13.410  0.00  0.00    +0.000 OA
ATOM     18  H   UNL     1       8.403   5.097  13.592  0.00  0.00    +0.000 HD
ATOM     19  H   UNL     1       7.757   6.255  14.713  0.00  0.00    +0.000 HD
ENDBRANCH  14  16
ENDBRANCH  13  14
ENDBRANCH   1  13
TORSDOF 4
ENDMDL
MODEL 2
REMARK VINA RESULT:      -6.9      1.763      1.971
REMARK  Name = 
REMARK  4 active torsions:
REMARK  status: ('A' for Active; 'I' for Inactive)
REMARK    1  A    between atoms: C_2  and  C_4
REMARK    2  A    between atoms: C_4  and  S_5
REMARK    3  A    between atoms: S_5  and  C_6
REMARK    4  A    between atoms: C_7  and  C_8
REMARK                            x       y       z     vdW  Elec       q    Type
REMARK                         _______ _______ _______ _____ _____    ______ ____
ROOT
ATOM      1  C   UNL     1       5.821   5.689  17.874  0.00  0.00    +0.000 A 
ATOM      2  C   UNL     1       5.150   4.796  18.764  0.00  0.00    +0.000 A 
ATOM      3  N   UNL     1       5.884   4.622  19.878  0.00  0.00    +0.000 NA
ATOM      4  O   UNL     1       7.018   5.400  19.752  0.00  0.00    +0.000 OA
ATOM      5  N   UNL     1       6.951   6.063  18.492  0.00  0.00    +0.000 N 
ATOM      6  O   UNL     1       7.907   6.827  18.219  0.00  0.00    +0.000 OA
ENDROOT
BRANCH   2   7
ATOM      7  C   UNL     1       3.873   4.079  18.634  0.00  0.00    +0.000 A 
ATOM      8  C   UNL     1       2.687   4.682  19.088  0.00  0.00    +0.000 A 
ATOM      9  C   UNL     1       1.454   4.034  18.964  0.00  0.00    +0.000 A 
ATOM     10  C   UNL     1       1.389   2.769  18.387  0.00  0.00    +0.000 A 
ATOM     11  C   UNL     1       2.553   2.160  17.924  0.00  0.00    +0.000 A 
ATOM     12  C   UNL     1       3.784   2.815  18.036  0.00  0.00    +0.000 A 
ENDBRANCH   2   7
BRANCH   1  13
ATOM     13  S   UNL     1       5.285   6.233  16.289  0.00  0.00    +0.000 S 
BRANCH  13  14
ATOM     14  C   UNL     1       5.262   4.711  15.299  0.00  0.00    +0.000 C 
BRANCH  14  16
ATOM     15  N   UNL     1       6.583   3.658  13.539  0.00  0.00    +0.000 N 
ATOM     16  C   UNL     1       6.560   4.606  14.525  0.00  0.00    +0.000 C 
ATOM     17  O   UNL     1       7.544   5.302  14.749  0.00  0.00    +0.000 OA
ATOM     18  H   UNL     1       7.458   3.521  13.049  0.00  0.00    +0.000 HD
ATOM     19  H   UNL     1       5.867   2.950  13.445  0.00  0.00    +0.000 HD
ENDBRANCH  14  16
ENDBRANCH  13  14
ENDBRANCH   1  13
TORSDOF 4
ENDMDL
MODEL 3
REMARK VINA RESULT:      -6.9      1.759      2.180
REMARK  Name = 
REMARK  4 active torsions:
REMARK  status: ('A' for Active; 'I' for Inactive)
REMARK    1  A    between atoms: C_2  and  C_4
REMARK    2  A    between atoms: C_4  and  S_5
REMARK    3  A    between atoms: S_5  and  C_6
REMARK    4  A    between atoms: C_7  and  C_8
REMARK                            x       y       z     vdW  Elec       q    Type
REMARK                         _______ _______ _______ _____ _____    ______ ____
ROOT
ATOM      1  C   UNL     1       5.873   5.723  17.868  0.00  0.00    +0.000 A 
ATOM      2  C   UNL     1       5.173   4.853  18.760  0.00  0.00    +0.000 A 
ATOM      3  N   UNL     1       5.893   4.672  19.881  0.00  0.00    +0.000 NA
ATOM      4  O   UNL     1       7.047   5.421  19.759  0.00  0.00    +0.000 OA
ATOM      5  N   UNL     1       7.007   6.074  18.493  0.00  0.00    +0.000 N 
ATOM      6  O   UNL     1       7.983   6.813  18.222  0.00  0.00    +0.000 OA
ENDROOT
BRANCH   2   7
ATOM      7  C   UNL     1       3.881   4.166  18.623  0.00  0.00    +0.000 A 
ATOM      8  C   UNL     1       3.836   2.869  18.080  0.00  0.00    +0.000 A 
ATOM      9  C   UNL     1       2.625   2.183  17.952  0.00  0.00    +0.000 A 
ATOM     10  C   UNL     1       1.438   2.784  18.360  0.00  0.00    +0.000 A 
ATOM     11  C   UNL     1       1.465   4.065  18.907  0.00  0.00    +0.000 A 
ATOM     12  C   UNL     1       2.678   4.745  19.049  0.00  0.00    +0.000 A 
ENDBRANCH   2   7
BRANCH   1  13
ATOM     13  S   UNL     1       5.364   6.267  16.274  0.00  0.00    +0.000 S 
BRANCH  13  14
ATOM     14  C   UNL     1       5.299   4.736  15.300  0.00  0.00    +0.000 C 
BRANCH  14  16
ATOM     15  N   UNL     1       6.584   3.600  13.565  0.00  0.00    +0.000 N 
ATOM     16  C   UNL     1       6.563   4.624  14.473  0.00  0.00    +0.000 C 
ATOM     17  O   UNL     1       7.523   5.376  14.591  0.00  0.00    +0.000 OA
ATOM     18  H   UNL     1       7.440   3.460  13.044  0.00  0.00    +0.000 HD
ATOM     19  H   UNL     1       5.898   2.857  13.564  0.00  0.00    +0.000 HD
ENDBRANCH  14  16
ENDBRANCH  13  14
ENDBRANCH   1  13
TORSDOF 4
ENDMDL
MODEL 4
REMARK VINA RESULT:      -6.8      2.442      2.688
REMARK  Name = 
REMARK  4 active torsions:
REMARK  status: ('A' for Active; 'I' for Inactive)
REMARK    1  A    between atoms: C_2  and  C_4
REMARK    2  A    between atoms: C_4  and  S_5
REMARK    3  A    between atoms: S_5  and  C_6
REMARK    4  A    between atoms: C_7  and  C_8
REMARK                            x       y       z     vdW  Elec       q    Type
REMARK                         _______ _______ _______ _____ _____    ______ ____
ROOT
ATOM      1  C   UNL     1       4.131   5.454  17.236  0.00  0.00    +0.000 A 
ATOM      2  C   UNL     1       3.140   5.657  18.245  0.00  0.00    +0.000 A 
ATOM      3  N   UNL     1       2.867   6.969  18.361  0.00  0.00    +0.000 NA
ATOM      4  O   UNL     1       3.641   7.637  17.433  0.00  0.00    +0.000 OA
ATOM      5  N   UNL     1       4.419   6.665  16.738  0.00  0.00    +0.000 N 
ATOM      6  O   UNL     1       5.178   7.105  15.841  0.00  0.00    +0.000 OA
ENDROOT
BRANCH   2   7
ATOM      7  C   UNL     1       2.444   4.704  19.122  0.00  0.00    +0.000 A 
ATOM      8  C   UNL     1       2.709   4.709  20.504  0.00  0.00    +0.000 A 
ATOM      9  C   UNL     1       2.053   3.827  21.367  0.00  0.00    +0.000 A 
ATOM     10  C   UNL     1       1.124   2.922  20.862  0.00  0.00    +0.000 A 
ATOM     11  C   UNL     1       0.844   2.908  19.497  0.00  0.00    +0.000 A 
ATOM     12  C   UNL     1       1.490   3.801  18.637  0.00  0.00    +0.000 A 
ENDBRANCH   2   7
BRANCH   1  13
ATOM     13  S   UNL     1       4.834   3.929  16.709  0.00  0.00    +0.000 S 
BRANCH  13  14
ATOM     14  C   UNL     1       6.585   4.331  16.449  0.00  0.00    +0.000 C 
BRANCH  14  16
ATOM     15  N   UNL     1       7.674   5.505  14.609  0.00  0.00    +0.000 N 
ATOM     16  C   UNL     1       6.841   4.480  14.964  0.00  0.00    +0.000 C 
ATOM     17  O   UNL     1       6.343   3.754  14.111  0.00  0.00    +0.000 OA
ATOM     18  H   UNL     1       7.812   5.669  13.620  0.00  0.00    +0.000 HD
ATOM     19  H   UNL     1       7.956   6.229  15.257  0.00  0.00    +0.000 HD
ENDBRANCH  14  16
ENDBRANCH  13  14
ENDBRANCH   1  13
TORSDOF 4
ENDMDL
MODEL 5
REMARK VINA RESULT:      -6.8      1.031      1.074
REMARK  Name = 
REMARK  4 active torsions:
REMARK  status: ('A' for Active; 'I' for Inactive)
REMARK    1  A    between atoms: C_2  and  C_4
REMARK    2  A    between atoms: C_4  and  S_5
REMARK    3  A    between atoms: S_5  and  C_6
REMARK    4  A    between atoms: C_7  and  C_8
REMARK                            x       y       z     vdW  Elec       q    Type
REMARK                         _______ _______ _______ _____ _____    ______ ____
ROOT
ATOM      1  C   UNL     1       5.681   4.355  17.774  0.00  0.00    +0.000 A 
ATOM      2  C   UNL     1       5.052   4.458  19.053  0.00  0.00    +0.000 A 
ATOM      3  N   UNL     1       5.970   4.748  19.992  0.00  0.00    +0.000 NA
ATOM      4  O   UNL     1       7.191   4.861  19.358  0.00  0.00    +0.000 OA
ATOM      5  N   UNL     1       6.982   4.617  17.970  0.00  0.00    +0.000 N 
ATOM      6  O   UNL     1       7.998   4.692  17.237  0.00  0.00    +0.000 OA
ENDROOT
BRANCH   2   7
ATOM      7  C   UNL     1       3.649   4.284  19.456  0.00  0.00    +0.000 A 
ATOM      8  C   UNL     1       2.966   5.347  20.073  0.00  0.00    +0.000 A 
ATOM      9  C   UNL     1       1.627   5.220  20.454  0.00  0.00    +0.000 A 
ATOM     10  C   UNL     1       0.951   4.024  20.229  0.00  0.00    +0.000 A 
ATOM     11  C   UNL     1       1.610   2.963  19.613  0.00  0.00    +0.000 A 
ATOM     12  C   UNL     1       2.945   3.097  19.218  0.00  0.00    +0.000 A 
ENDBRANCH   2   7
BRANCH   1  13
ATOM     13  S   UNL     1       4.925   3.987  16.229  0.00  0.00    +0.000 S 
BRANCH  13  14
ATOM     14  C   UNL     1       5.503   5.321  15.141  0.00  0.00    +0.000 C 
BRANCH  14  16
ATOM     15  N   UNL     1       6.382   3.557  13.703  0.00  0.00    +0.000 N 
ATOM     16  C   UNL     1       6.609   4.789  14.254  0.00  0.00    +0.000 C 
ATOM     17  O   UNL     1       7.654   5.391  14.032  0.00  0.00    +0.000 OA
ATOM     18  H   UNL     1       7.130   3.147  13.159  0.00  0.00    +0.000 HD
ATOM     19  H   UNL     1       5.625   2.956  14.003  0.00  0.00    +0.000 HD
ENDBRANCH  14  16
ENDBRANCH  13  14
ENDBRANCH   1  13
TORSDOF 4
ENDMDL
MODEL 6
REMARK VINA RESULT:      -6.7      2.460      2.844
REMARK  Name = 
REMARK  4 active torsions:
REMARK  status: ('A' for Active; 'I' for Inactive)
REMARK    1  A    between atoms: C_2  and  C_4
REMARK    2  A    between atoms: C_4  and  S_5
REMARK    3  A    between atoms: S_5  and  C_6
REMARK    4  A    between atoms: C_7  and  C_8
REMARK                            x       y       z     vdW  Elec       q    Type
REMARK                         _______ _______ _______ _____ _____    ______ ____
ROOT
ATOM      1  C   UNL     1       4.196   5.464  17.332  0.00  0.00    +0.000 A 
ATOM      2  C   UNL     1       3.117   5.672  18.246  0.00  0.00    +0.000 A 
ATOM      3  N   UNL     1       2.761   6.968  18.247  0.00  0.00    +0.000 NA
ATOM      4  O   UNL     1       3.568   7.620  17.336  0.00  0.00    +0.000 OA
ATOM      5  N   UNL     1       4.453   6.655  16.772  0.00  0.00    +0.000 N 
ATOM      6  O   UNL     1       5.255   7.080  15.907  0.00  0.00    +0.000 OA
ENDROOT
BRANCH   2   7
ATOM      7  C   UNL     1       2.409   4.737  19.133  0.00  0.00    +0.000 A 
ATOM      8  C   UNL     1       1.515   3.800  18.585  0.00  0.00    +0.000 A 
ATOM      9  C   UNL     1       0.838   2.887  19.399  0.00  0.00    +0.000 A 
ATOM     10  C   UNL     1       1.040   2.901  20.776  0.00  0.00    +0.000 A 
ATOM     11  C   UNL     1       1.927   3.818  21.335  0.00  0.00    +0.000 A 
ATOM     12  C   UNL     1       2.615   4.720  20.519  0.00  0.00    +0.000 A 
ENDBRANCH   2   7
BRANCH   1  13
ATOM     13  S   UNL     1       5.024   3.954  16.970  0.00  0.00    +0.000 S 
BRANCH  13  14
ATOM     14  C   UNL     1       5.679   4.216  15.297  0.00  0.00    +0.000 C 
BRANCH  14  16
ATOM     15  N   UNL     1       7.581   5.403  14.335  0.00  0.00    +0.000 N 
ATOM     16  C   UNL     1       7.118   4.677  15.398  0.00  0.00    +0.000 C 
ATOM     17  O   UNL     1       7.849   4.426  16.350  0.00  0.00    +0.000 OA
ATOM     18  H   UNL     1       8.557   5.669  14.344  0.00  0.00    +0.000 HD
ATOM     19  H   UNL     1       7.074   5.475  13.462  0.00  0.00    +0.000 HD
ENDBRANCH  14  16
ENDBRANCH  13  14
ENDBRANCH   1  13
TORSDOF 4
ENDMDL
MODEL 7
REMARK VINA RESULT:      -6.7      1.282      1.456
REMARK  Name = 
REMARK  4 active torsions:
REMARK  status: ('A' for Active; 'I' for Inactive)
REMARK    1  A    between atoms: C_2  and  C_4
REMARK    2  A    between atoms: C_4  and  S_5
REMARK    3  A    between atoms: S_5  and  C_6
REMARK    4  A    between atoms: C_7  and  C_8
REMARK                            x       y       z     vdW  Elec       q    Type
REMARK                         _______ _______ _______ _____ _____    ______ ____
ROOT
ATOM      1  C   UNL     1       6.067   5.806  17.579  0.00  0.00    +0.000 A 
ATOM      2  C   UNL     1       5.759   5.267  18.866  0.00  0.00    +0.000 A 
ATOM      3  N   UNL     1       6.768   5.515  19.719  0.00  0.00    +0.000 NA
ATOM      4  O   UNL     1       7.729   6.226  19.029  0.00  0.00    +0.000 OA
ATOM      5  N   UNL     1       7.263   6.401  17.694  0.00  0.00    +0.000 N 
ATOM      6  O   UNL     1       8.018   7.044  16.926  0.00  0.00    +0.000 OA
ENDROOT
BRANCH   2   7
ATOM      7  C   UNL     1       4.588   4.518  19.345  0.00  0.00    +0.000 A 
ATOM      8  C   UNL     1       3.468   5.215  19.833  0.00  0.00    +0.000 A 
ATOM      9  C   UNL     1       2.333   4.534  20.281  0.00  0.00    +0.000 A 
ATOM     10  C   UNL     1       2.300   3.143  20.252  0.00  0.00    +0.000 A 
ATOM     11  C   UNL     1       3.397   2.436  19.764  0.00  0.00    +0.000 A 
ATOM     12  C   UNL     1       4.527   3.119  19.303  0.00  0.00    +0.000 A 
ENDBRANCH   2   7
BRANCH   1  13
ATOM     13  S   UNL     1       5.082   5.743  16.122  0.00  0.00    +0.000 S 
BRANCH  13  14
ATOM     14  C   UNL     1       5.512   4.143  15.382  0.00  0.00    +0.000 C 
BRANCH  14  16
ATOM     15  N   UNL     1       7.436   5.298  14.426  0.00  0.00    +0.000 N 
ATOM     16  C   UNL     1       6.449   4.375  14.215  0.00  0.00    +0.000 C 
ATOM     17  O   UNL     1       6.350   3.799  13.137  0.00  0.00    +0.000 OA
ATOM     18  H   UNL     1       8.037   5.522  13.642  0.00  0.00    +0.000 HD
ATOM     19  H   UNL     1       7.441   5.919  15.224  0.00  0.00    +0.000 HD
ENDBRANCH  14  16
ENDBRANCH  13  14
ENDBRANCH   1  13
TORSDOF 4
ENDMDL
MODEL 8
REMARK VINA RESULT:      -6.7      1.216      1.696
REMARK  Name = 
REMARK  4 active torsions:
REMARK  status: ('A' for Active; 'I' for Inactive)
REMARK    1  A    between atoms: C_2  and  C_4
REMARK    2  A    between atoms: C_4  and  S_5
REMARK    3  A    between atoms: S_5  and  C_6
REMARK    4  A    between atoms: C_7  and  C_8
REMARK                            x       y       z     vdW  Elec       q    Type
REMARK                         _______ _______ _______ _____ _____    ______ ____
ROOT
ATOM      1  C   UNL     1       5.532   4.925  17.834  0.00  0.00    +0.000 A 
ATOM      2  C   UNL     1       4.852   4.531  19.028  0.00  0.00    +0.000 A 
ATOM      3  N   UNL     1       5.670   4.668  20.087  0.00  0.00    +0.000 NA
ATOM      4  O   UNL     1       6.871   5.165  19.621  0.00  0.00    +0.000 OA
ATOM      5  N   UNL     1       6.756   5.323  18.209  0.00  0.00    +0.000 N 
ATOM      6  O   UNL     1       7.765   5.781  17.622  0.00  0.00    +0.000 OA
ENDROOT
BRANCH   2   7
ATOM      7  C   UNL     1       3.491   4.018  19.240  0.00  0.00    +0.000 A 
ATOM      8  C   UNL     1       3.110   2.795  18.659  0.00  0.00    +0.000 A 
ATOM      9  C   UNL     1       1.829   2.271  18.855  0.00  0.00    +0.000 A 
ATOM     10  C   UNL     1       0.905   2.965  19.631  0.00  0.00    +0.000 A 
ATOM     11  C   UNL     1       1.267   4.174  20.220  0.00  0.00    +0.000 A 
ATOM     12  C   UNL     1       2.554   4.690  20.036  0.00  0.00    +0.000 A 
ENDBRANCH   2   7
BRANCH   1  13
ATOM     13  S   UNL     1       4.906   4.927  16.190  0.00  0.00    +0.000 S 
BRANCH  13  14
ATOM     14  C   UNL     1       5.916   3.676  15.346  0.00  0.00    +0.000 C 
BRANCH  14  16
ATOM     15  N   UNL     1       7.533   5.350  14.615  0.00  0.00    +0.000 N 
ATOM     16  C   UNL     1       6.692   4.341  14.229  0.00  0.00    +0.000 C 
ATOM     17  O   UNL     1       6.591   4.028  13.048  0.00  0.00    +0.000 OA
ATOM     18  H   UNL     1       8.015   5.856  13.884  0.00  0.00    +0.000 HD
ATOM     19  H   UNL     1       7.509   5.755  15.541  0.00  0.00    +0.000 HD
ENDBRANCH  14  16
ENDBRANCH  13  14
ENDBRANCH   1  13
TORSDOF 4
ENDMDL
MODEL 9
REMARK VINA RESULT:      -6.7      2.501      3.560
REMARK  Name = 
REMARK  4 active torsions:
REMARK  status: ('A' for Active; 'I' for Inactive)
REMARK    1  A    between atoms: C_2  and  C_4
REMARK    2  A    between atoms: C_4  and  S_5
REMARK    3  A    between atoms: S_5  and  C_6
REMARK    4  A    between atoms: C_7  and  C_8
REMARK                            x       y       z     vdW  Elec       q    Type
REMARK                         _______ _______ _______ _____ _____    ______ ____
ROOT
ATOM      1  C   UNL     1       4.746   5.557  17.711  0.00  0.00    +0.000 A 
ATOM      2  C   UNL     1       3.436   5.693  18.266  0.00  0.00    +0.000 A 
ATOM      3  N   UNL     1       2.951   6.918  17.999  0.00  0.00    +0.000 NA
ATOM      4  O   UNL     1       3.903   7.589  17.259  0.00  0.00    +0.000 OA
ATOM      5  N   UNL     1       5.015   6.713  17.086  0.00  0.00    +0.000 N 
ATOM      6  O   UNL     1       5.976   7.166  16.420  0.00  0.00    +0.000 OA
ENDROOT
BRANCH   2   7
ATOM      7  C   UNL     1       2.616   4.755  19.047  0.00  0.00    +0.000 A 
ATOM      8  C   UNL     1       2.679   4.780  20.452  0.00  0.00    +0.000 A 
ATOM      9  C   UNL     1       1.901   3.912  21.224  0.00  0.00    +0.000 A 
ATOM     10  C   UNL     1       1.049   3.003  20.603  0.00  0.00    +0.000 A 
ATOM     11  C   UNL     1       0.968   2.971  19.213  0.00  0.00    +0.000 A 
ATOM     12  C   UNL     1       1.737   3.849  18.441  0.00  0.00    +0.000 A 
ENDBRANCH   2   7
BRANCH   1  13
ATOM     13  S   UNL     1       5.808   4.157  17.788  0.00  0.00    +0.000 S 
BRANCH  13  14
ATOM     14  C   UNL     1       7.473   4.879  17.761  0.00  0.00    +0.000 C 
BRANCH  14  16
ATOM     15  N   UNL     1       8.196   6.958  18.814  0.00  0.00    +0.000 N 
ATOM     16  C   UNL     1       7.670   5.710  19.012  0.00  0.00    +0.000 C 
ATOM     17  O   UNL     1       7.396   5.318  20.140  0.00  0.00    +0.000 OA
ATOM     18  H   UNL     1       8.399   7.511  19.637  0.00  0.00    +0.000 HD
ATOM     19  H   UNL     1       8.600   7.246  17.933  0.00  0.00    +0.000 HD
ENDBRANCH  14  16
ENDBRANCH  13  14
ENDBRANCH   1  13
TORSDOF 4
ENDMDL
