MODEL 1
REMARK VINA RESULT:      -7.5      0.000      0.000
REMARK  Name = 
REMARK  4 active torsions:
REMARK  status: ('A' for Active; 'I' for Inactive)
REMARK    1  A    between atoms: C_1  and  C_2
REMARK    2  A    between atoms: C_2  and  C_3
REMARK    3  A    between atoms: C_2  and  O_4
REMARK    4  A    between atoms: C_2  and  C_5
REMARK                            x       y       z     vdW  Elec       q    Type
REMARK                         _______ _______ _______ _____ _____    ______ ____
ROOT
ATOM      1  C   UNL     1       5.600   5.322  15.985  0.00  0.00    +0.000 C 
ATOM      2  C   UNL     1       4.659   6.268  16.756  0.00  0.00    +0.000 C 
ATOM      3  C   UNL     1       3.947   5.309  17.612  0.00  0.00    +0.000 C 
ATOM      4  C   UNL     1       4.244   4.067  17.267  0.00  0.00    +0.000 C 
ATOM      5  O   UNL     1       5.230   3.946  16.293  0.00  0.00    +0.000 OA
ATOM      6  C   UNL     1       3.557   2.903  17.882  0.00  0.00    +0.000 C 
ATOM      7  O   UNL     1       3.751   1.754  17.512  0.00  0.00    +0.000 OA
ATOM      8  C   UNL     1       2.597   3.215  18.977  0.00  0.00    +0.000 A 
ATOM      9  C   UNL     1       1.885   2.180  19.601  0.00  0.00    +0.000 A 
ATOM     10  C   UNL     1       1.031   2.465  20.672  0.00  0.00    +0.000 A 
ATOM     11  C   UNL     1       0.889   3.774  21.131  0.00  0.00    +0.000 A 
ATOM     12  C   UNL     1       1.574   4.810  20.502  0.00  0.00    +0.000 A 
ATOM     13  C   UNL     1       2.409   4.532  19.411  0.00  0.00    +0.000 A 
ATOM     14  C   UNL     1       3.065   5.656  18.718  0.00  0.00    +0.000 C 
ATOM     15  O   UNL     1       2.899   6.821  19.056  0.00  0.00    +0.000 OA
ENDROOT
BRANCH   1  17
ATOM     16  C   UNL     1       7.741   4.543  17.128  0.00  0.00    +0.000 C 
ATOM     17  C   UNL     1       7.103   5.622  16.249  0.00  0.00    +0.000 C 
ATOM     18  C   UNL     1       7.352   6.998  16.881  0.00  0.00    +0.000 C 
BRANCH  17  19
ATOM     19  O   UNL     1       7.771   5.600  14.976  0.00  0.00    +0.000 OA
ATOM     20  H   UNL     1       8.722   5.469  15.132  0.00  0.00    +0.000 HD
ENDBRANCH  17  19
ENDBRANCH   1  17
TORSDOF 2
ENDMDL
MODEL 2
REMARK VINA RESULT:      -7.1      2.275      3.237
REMARK  Name = 
REMARK  4 active torsions:
REMARK  status: ('A' for Active; 'I' for Inactive)
REMARK    1  A    between atoms: C_1  and  C_2
REMARK    2  A    between atoms: C_2  and  C_3
REMARK    3  A    between atoms: C_2  and  O_4
REMARK    4  A    between atoms: C_2  and  C_5
REMARK                            x       y       z     vdW  Elec       q    Type
REMARK                         _______ _______ _______ _____ _____    ______ ____
ROOT
ATOM      1  C   UNL     1       5.380   5.463  16.864  0.00  0.00    +0.000 C 
ATOM      2  C   UNL     1       4.570   6.695  16.414  0.00  0.00    +0.000 C 
ATOM      3  C   UNL     1       3.737   6.923  17.603  0.00  0.00    +0.000 C 
ATOM      4  C   UNL     1       3.869   5.928  18.463  0.00  0.00    +0.000 C 
ATOM      5  O   UNL     1       4.833   4.982  18.126  0.00  0.00    +0.000 OA
ATOM      6  C   UNL     1       3.034   5.841  19.688  0.00  0.00    +0.000 C 
ATOM      7  O   UNL     1       3.078   4.884  20.447  0.00  0.00    +0.000 OA
ATOM      8  C   UNL     1       2.121   6.990  19.938  0.00  0.00    +0.000 A 
ATOM      9  C   UNL     1       1.278   6.985  21.060  0.00  0.00    +0.000 A 
ATOM     10  C   UNL     1       0.467   8.092  21.331  0.00  0.00    +0.000 A 
ATOM     11  C   UNL     1       0.496   9.209  20.496  0.00  0.00    +0.000 A 
ATOM     12  C   UNL     1       1.313   9.212  19.368  0.00  0.00    +0.000 A 
ATOM     13  C   UNL     1       2.106   8.094  19.078  0.00  0.00    +0.000 A 
ATOM     14  C   UNL     1       2.905   8.096  17.838  0.00  0.00    +0.000 C 
ATOM     15  O   UNL     1       2.893   9.034  17.052  0.00  0.00    +0.000 OA
ENDROOT
BRANCH   1  17
ATOM     16  C   UNL     1       7.631   4.690  17.778  0.00  0.00    +0.000 C 
ATOM     17  C   UNL     1       6.909   5.741  16.929  0.00  0.00    +0.000 C 
ATOM     18  C   UNL     1       7.257   7.139  17.458  0.00  0.00    +0.000 C 
BRANCH  17  19
ATOM     19  O   UNL     1       7.418   5.643  15.588  0.00  0.00    +0.000 OA
ATOM     20  H   UNL     1       7.786   4.752  15.464  0.00  0.00    +0.000 HD
ENDBRANCH  17  19
ENDBRANCH   1  17
TORSDOF 2
ENDMDL
MODEL 3
REMARK VINA RESULT:      -7.1      0.754      1.040
REMARK  Name = 
REMARK  4 active torsions:
REMARK  status: ('A' for Active; 'I' for Inactive)
REMARK    1  A    between atoms: C_1  and  C_2
REMARK    2  A    between atoms: C_2  and  C_3
REMARK    3  A    between atoms: C_2  and  O_4
REMARK    4  A    between atoms: C_2  and  C_5
REMARK                            x       y       z     vdW  Elec       q    Type
REMARK                         _______ _______ _______ _____ _____    ______ ____
ROOT
ATOM      1  C   UNL     1       5.290   5.172  15.911  0.00  0.00    +0.000 C 
ATOM      2  C   UNL     1       4.555   6.130  16.869  0.00  0.00    +0.000 C 
ATOM      3  C   UNL     1       3.935   5.170  17.794  0.00  0.00    +0.000 C 
ATOM      4  C   UNL     1       4.089   3.933  17.352  0.00  0.00    +0.000 C 
ATOM      5  O   UNL     1       4.888   3.806  16.220  0.00  0.00    +0.000 OA
ATOM      6  C   UNL     1       3.440   2.779  18.026  0.00  0.00    +0.000 C 
ATOM      7  O   UNL     1       3.495   1.642  17.581  0.00  0.00    +0.000 OA
ATOM      8  C   UNL     1       2.698   3.089  19.280  0.00  0.00    +0.000 A 
ATOM      9  C   UNL     1       2.035   2.065  19.973  0.00  0.00    +0.000 A 
ATOM     10  C   UNL     1       1.392   2.343  21.184  0.00  0.00    +0.000 A 
ATOM     11  C   UNL     1       1.414   3.632  21.715  0.00  0.00    +0.000 A 
ATOM     12  C   UNL     1       2.051   4.658  21.021  0.00  0.00    +0.000 A 
ATOM     13  C   UNL     1       2.672   4.390  19.794  0.00  0.00    +0.000 A 
ATOM     14  C   UNL     1       3.274   5.510  19.046  0.00  0.00    +0.000 C 
ATOM     15  O   UNL     1       3.244   6.663  19.456  0.00  0.00    +0.000 OA
ENDROOT
BRANCH   1  17
ATOM     16  C   UNL     1       7.437   5.162  14.537  0.00  0.00    +0.000 C 
ATOM     17  C   UNL     1       6.833   5.372  15.928  0.00  0.00    +0.000 C 
ATOM     18  C   UNL     1       7.558   4.467  16.933  0.00  0.00    +0.000 C 
BRANCH  17  19
ATOM     19  O   UNL     1       7.081   6.736  16.310  0.00  0.00    +0.000 OA
ATOM     20  H   UNL     1       7.804   6.744  16.961  0.00  0.00    +0.000 HD
ENDBRANCH  17  19
ENDBRANCH   1  17
TORSDOF 2
ENDMDL
MODEL 4
REMARK VINA RESULT:      -7.1      1.742      2.147
REMARK  Name = 
REMARK  4 active torsions:
REMARK  status: ('A' for Active; 'I' for Inactive)
REMARK    1  A    between atoms: C_1  and  C_2
REMARK    2  A    between atoms: C_2  and  C_3
REMARK    3  A    between atoms: C_2  and  O_4
REMARK    4  A    between atoms: C_2  and  C_5
REMARK                            x       y       z     vdW  Elec       q    Type
REMARK                         _______ _______ _______ _____ _____    ______ ____
ROOT
ATOM      1  C   UNL     1       6.272   4.391  16.489  0.00  0.00    +0.000 C 
ATOM      2  C   UNL     1       4.886   3.924  16.003  0.00  0.00    +0.000 C 
ATOM      3  C   UNL     1       4.195   3.738  17.287  0.00  0.00    +0.000 C 
ATOM      4  C   UNL     1       5.044   3.856  18.294  0.00  0.00    +0.000 C 
ATOM      5  O   UNL     1       6.331   4.246  17.938  0.00  0.00    +0.000 OA
ATOM      6  C   UNL     1       4.633   3.578  19.695  0.00  0.00    +0.000 C 
ATOM      7  O   UNL     1       5.425   3.593  20.627  0.00  0.00    +0.000 OA
ATOM      8  C   UNL     1       3.193   3.265  19.903  0.00  0.00    +0.000 A 
ATOM      9  C   UNL     1       2.719   2.968  21.190  0.00  0.00    +0.000 A 
ATOM     10  C   UNL     1       1.355   2.737  21.397  0.00  0.00    +0.000 A 
ATOM     11  C   UNL     1       0.458   2.808  20.331  0.00  0.00    +0.000 A 
ATOM     12  C   UNL     1       0.924   3.080  19.047  0.00  0.00    +0.000 A 
ATOM     13  C   UNL     1       2.293   3.284  18.831  0.00  0.00    +0.000 A 
ATOM     14  C   UNL     1       2.768   3.497  17.451  0.00  0.00    +0.000 C 
ATOM     15  O   UNL     1       2.010   3.492  16.490  0.00  0.00    +0.000 OA
ENDROOT
BRANCH   1  17
ATOM     16  C   UNL     1       7.266   6.650  17.125  0.00  0.00    +0.000 C 
ATOM     17  C   UNL     1       6.626   5.826  16.004  0.00  0.00    +0.000 C 
ATOM     18  C   UNL     1       5.426   6.596  15.437  0.00  0.00    +0.000 C 
BRANCH  17  19
ATOM     19  O   UNL     1       7.596   5.693  14.951  0.00  0.00    +0.000 OA
ATOM     20  H   UNL     1       8.340   5.163  15.286  0.00  0.00    +0.000 HD
ENDBRANCH  17  19
ENDBRANCH   1  17
TORSDOF 2
ENDMDL
MODEL 5
REMARK VINA RESULT:      -7.0      0.785      1.035
REMARK  Name = 
REMARK  4 active torsions:
REMARK  status: ('A' for Active; 'I' for Inactive)
REMARK    1  A    between atoms: C_1  and  C_2
REMARK    2  A    between atoms: C_2  and  C_3
REMARK    3  A    between atoms: C_2  and  O_4
REMARK    4  A    between atoms: C_2  and  C_5
REMARK                            x       y       z     vdW  Elec       q    Type
REMARK                         _______ _______ _______ _____ _____    ______ ____
ROOT
ATOM      1  C   UNL     1       5.471   4.902  15.786  0.00  0.00    +0.000 C 
ATOM      2  C   UNL     1       4.648   5.922  16.596  0.00  0.00    +0.000 C 
ATOM      3  C   UNL     1       4.023   5.040  17.592  0.00  0.00    +0.000 C 
ATOM      4  C   UNL     1       4.251   3.771  17.298  0.00  0.00    +0.000 C 
ATOM      5  O   UNL     1       5.113   3.560  16.226  0.00  0.00    +0.000 OA
ATOM      6  C   UNL     1       3.618   2.668  18.066  0.00  0.00    +0.000 C 
ATOM      7  O   UNL     1       3.744   1.493  17.754  0.00  0.00    +0.000 OA
ATOM      8  C   UNL     1       2.800   3.077  19.242  0.00  0.00    +0.000 A 
ATOM      9  C   UNL     1       2.146   2.104  20.013  0.00  0.00    +0.000 A 
ATOM     10  C   UNL     1       1.431   2.481  21.154  0.00  0.00    +0.000 A 
ATOM     11  C   UNL     1       1.371   3.820  21.539  0.00  0.00    +0.000 A 
ATOM     12  C   UNL     1       1.998   4.794  20.766  0.00  0.00    +0.000 A 
ATOM     13  C   UNL     1       2.692   4.424  19.606  0.00  0.00    +0.000 A 
ATOM     14  C   UNL     1       3.285   5.482  18.767  0.00  0.00    +0.000 C 
ATOM     15  O   UNL     1       3.184   6.671  19.044  0.00  0.00    +0.000 OA
ENDROOT
BRANCH   1  17
ATOM     16  C   UNL     1       7.309   6.418  16.694  0.00  0.00    +0.000 C 
ATOM     17  C   UNL     1       7.001   5.177  15.852  0.00  0.00    +0.000 C 
ATOM     18  C   UNL     1       7.657   5.329  14.473  0.00  0.00    +0.000 C 
BRANCH  17  19
ATOM     19  O   UNL     1       7.609   4.047  16.502  0.00  0.00    +0.000 OA
ATOM     20  H   UNL     1       6.993   3.715  17.178  0.00  0.00    +0.000 HD
ENDBRANCH  17  19
ENDBRANCH   1  17
TORSDOF 2
ENDMDL
MODEL 6
REMARK VINA RESULT:      -6.8      1.605      1.642
REMARK  Name = 
REMARK  4 active torsions:
REMARK  status: ('A' for Active; 'I' for Inactive)
REMARK    1  A    between atoms: C_1  and  C_2
REMARK    2  A    between atoms: C_2  and  C_3
REMARK    3  A    between atoms: C_2  and  O_4
REMARK    4  A    between atoms: C_2  and  C_5
REMARK                            x       y       z     vdW  Elec       q    Type
REMARK                         _______ _______ _______ _____ _____    ______ ____
ROOT
ATOM      1  C   UNL     1       6.109   4.766  16.899  0.00  0.00    +0.000 C 
ATOM      2  C   UNL     1       4.608   4.986  16.629  0.00  0.00    +0.000 C 
ATOM      3  C   UNL     1       4.024   4.408  17.847  0.00  0.00    +0.000 C 
ATOM      4  C   UNL     1       4.952   3.795  18.563  0.00  0.00    +0.000 C 
ATOM      5  O   UNL     1       6.253   3.940  18.091  0.00  0.00    +0.000 OA
ATOM      6  C   UNL     1       4.607   3.009  19.775  0.00  0.00    +0.000 C 
ATOM      7  O   UNL     1       5.437   2.361  20.397  0.00  0.00    +0.000 OA
ATOM      8  C   UNL     1       3.177   3.041  20.189  0.00  0.00    +0.000 A 
ATOM      9  C   UNL     1       2.755   2.310  21.310  0.00  0.00    +0.000 A 
ATOM     10  C   UNL     1       1.425   2.390  21.737  0.00  0.00    +0.000 A 
ATOM     11  C   UNL     1       0.515   3.202  21.061  0.00  0.00    +0.000 A 
ATOM     12  C   UNL     1       0.921   3.913  19.935  0.00  0.00    +0.000 A 
ATOM     13  C   UNL     1       2.245   3.813  19.487  0.00  0.00    +0.000 A 
ATOM     14  C   UNL     1       2.628   4.518  18.249  0.00  0.00    +0.000 C 
ATOM     15  O   UNL     1       1.830   5.179  17.598  0.00  0.00    +0.000 OA
ENDROOT
BRANCH   1  17
ATOM     16  C   UNL     1       7.827   6.122  18.206  0.00  0.00    +0.000 C 
ATOM     17  C   UNL     1       6.906   6.100  16.983  0.00  0.00    +0.000 C 
ATOM     18  C   UNL     1       6.013   7.348  17.003  0.00  0.00    +0.000 C 
BRANCH  17  19
ATOM     19  O   UNL     1       7.735   6.176  15.811  0.00  0.00    +0.000 OA
ATOM     20  H   UNL     1       7.318   5.651  15.106  0.00  0.00    +0.000 HD
ENDBRANCH  17  19
ENDBRANCH   1  17
TORSDOF 2
ENDMDL
MODEL 7
REMARK VINA RESULT:      -6.7      2.715      3.830
REMARK  Name = 
REMARK  4 active torsions:
REMARK  status: ('A' for Active; 'I' for Inactive)
REMARK    1  A    between atoms: C_1  and  C_2
REMARK    2  A    between atoms: C_2  and  C_3
REMARK    3  A    between atoms: C_2  and  O_4
REMARK    4  A    between atoms: C_2  and  C_5
REMARK                            x       y       z     vdW  Elec       q    Type
REMARK                         _______ _______ _______ _____ _____    ______ ____
ROOT
ATOM      1  C   UNL     1       4.787   5.175  17.675  0.00  0.00    +0.000 C 
ATOM      2  C   UNL     1       4.135   6.403  17.012  0.00  0.00    +0.000 C 
ATOM      3  C   UNL     1       3.268   6.875  18.101  0.00  0.00    +0.000 C 
ATOM      4  C   UNL     1       3.250   6.000  19.093  0.00  0.00    +0.000 C 
ATOM      5  O   UNL     1       4.126   4.929  18.950  0.00  0.00    +0.000 OA
ATOM      6  C   UNL     1       2.347   6.166  20.261  0.00  0.00    +0.000 C 
ATOM      7  O   UNL     1       2.250   5.323  21.142  0.00  0.00    +0.000 OA
ATOM      8  C   UNL     1       1.547   7.421  20.294  0.00  0.00    +0.000 A 
ATOM      9  C   UNL     1       0.650   7.652  21.348  0.00  0.00    +0.000 A 
ATOM     10  C   UNL     1      -0.055   8.859  21.414  0.00  0.00    +0.000 A 
ATOM     11  C   UNL     1       0.135   9.841  20.442  0.00  0.00    +0.000 A 
ATOM     12  C   UNL     1       1.006   9.609  19.381  0.00  0.00    +0.000 A 
ATOM     13  C   UNL     1       1.693   8.390  19.295  0.00  0.00    +0.000 A 
ATOM     14  C   UNL     1       2.552   8.142  18.123  0.00  0.00    +0.000 C 
ATOM     15  O   UNL     1       2.679   8.959  17.220  0.00  0.00    +0.000 OA
ENDROOT
BRANCH   1  17
ATOM     16  C   UNL     1       6.761   5.409  19.271  0.00  0.00    +0.000 C 
ATOM     17  C   UNL     1       6.331   5.311  17.804  0.00  0.00    +0.000 C 
ATOM     18  C   UNL     1       6.909   6.503  17.030  0.00  0.00    +0.000 C 
BRANCH  17  19
ATOM     19  O   UNL     1       6.912   4.114  17.259  0.00  0.00    +0.000 OA
ATOM     20  H   UNL     1       6.305   3.374  17.431  0.00  0.00    +0.000 HD
ENDBRANCH  17  19
ENDBRANCH   1  17
TORSDOF 2
ENDMDL
MODEL 8
REMARK VINA RESULT:      -6.7      1.578      2.774
REMARK  Name = 
REMARK  4 active torsions:
REMARK  status: ('A' for Active; 'I' for Inactive)
REMARK    1  A    between atoms: C_1  and  C_2
REMARK    2  A    between atoms: C_2  and  C_3
REMARK    3  A    between atoms: C_2  and  O_4
REMARK    4  A    between atoms: C_2  and  C_5
REMARK                            x       y       z     vdW  Elec       q    Type
REMARK                         _______ _______ _______ _____ _____    ______ ____
ROOT
ATOM      1  C   UNL     1       6.438   3.984  15.960  0.00  0.00    +0.000 C 
ATOM      2  C   UNL     1       5.239   3.018  15.906  0.00  0.00    +0.000 C 
ATOM      3  C   UNL     1       4.472   3.467  17.076  0.00  0.00    +0.000 C 
ATOM      4  C   UNL     1       5.168   4.345  17.779  0.00  0.00    +0.000 C 
ATOM      5  O   UNL     1       6.374   4.736  17.207  0.00  0.00    +0.000 OA
ATOM      6  C   UNL     1       4.680   4.857  19.086  0.00  0.00    +0.000 C 
ATOM      7  O   UNL     1       5.349   5.598  19.792  0.00  0.00    +0.000 OA
ATOM      8  C   UNL     1       3.324   4.404  19.499  0.00  0.00    +0.000 A 
ATOM      9  C   UNL     1       2.791   4.820  20.729  0.00  0.00    +0.000 A 
ATOM     10  C   UNL     1       1.491   4.447  21.090  0.00  0.00    +0.000 A 
ATOM     11  C   UNL     1       0.716   3.670  20.230  0.00  0.00    +0.000 A 
ATOM     12  C   UNL     1       1.246   3.235  19.018  0.00  0.00    +0.000 A 
ATOM     13  C   UNL     1       2.557   3.583  18.665  0.00  0.00    +0.000 A 
ATOM     14  C   UNL     1       3.118   3.047  17.410  0.00  0.00    +0.000 C 
ATOM     15  O   UNL     1       2.483   2.305  16.673  0.00  0.00    +0.000 OA
ENDROOT
BRANCH   1  17
ATOM     16  C   UNL     1       5.504   6.030  14.758  0.00  0.00    +0.000 C 
ATOM     17  C   UNL     1       6.532   4.896  14.703  0.00  0.00    +0.000 C 
ATOM     18  C   UNL     1       6.370   4.136  13.379  0.00  0.00    +0.000 C 
BRANCH  17  19
ATOM     19  O   UNL     1       7.841   5.492  14.706  0.00  0.00    +0.000 OA
ATOM     20  H   UNL     1       8.172   5.498  15.620  0.00  0.00    +0.000 HD
ENDBRANCH  17  19
ENDBRANCH   1  17
TORSDOF 2
ENDMDL
MODEL 9
REMARK VINA RESULT:      -6.7      1.385      2.737
REMARK  Name = 
REMARK  4 active torsions:
REMARK  status: ('A' for Active; 'I' for Inactive)
REMARK    1  A    between atoms: C_1  and  C_2
REMARK    2  A    between atoms: C_2  and  C_3
REMARK    3  A    between atoms: C_2  and  O_4
REMARK    4  A    between atoms: C_2  and  C_5
REMARK                            x       y       z     vdW  Elec       q    Type
REMARK                         _______ _______ _______ _____ _____    ______ ____
ROOT
ATOM      1  C   UNL     1       6.302   5.655  16.860  0.00  0.00    +0.000 C 
ATOM      2  C   UNL     1       6.473   4.508  17.874  0.00  0.00    +0.000 C 
ATOM      3  C   UNL     1       5.128   4.462  18.464  0.00  0.00    +0.000 C 
ATOM      4  C   UNL     1       4.402   5.486  18.049  0.00  0.00    +0.000 C 
ATOM      5  O   UNL     1       5.004   6.281  17.078  0.00  0.00    +0.000 OA
ATOM      6  C   UNL     1       3.048   5.754  18.599  0.00  0.00    +0.000 C 
ATOM      7  O   UNL     1       2.400   6.746  18.295  0.00  0.00    +0.000 OA
ATOM      8  C   UNL     1       2.523   4.746  19.560  0.00  0.00    +0.000 A 
ATOM      9  C   UNL     1       1.261   4.929  20.147  0.00  0.00    +0.000 A 
ATOM     10  C   UNL     1       0.739   3.951  21.001  0.00  0.00    +0.000 A 
ATOM     11  C   UNL     1       1.462   2.788  21.267  0.00  0.00    +0.000 A 
ATOM     12  C   UNL     1       2.724   2.611  20.706  0.00  0.00    +0.000 A 
ATOM     13  C   UNL     1       3.262   3.600  19.872  0.00  0.00    +0.000 A 
ATOM     14  C   UNL     1       4.630   3.420  19.352  0.00  0.00    +0.000 C 
ATOM     15  O   UNL     1       5.313   2.442  19.629  0.00  0.00    +0.000 OA
ENDROOT
BRANCH   1  17
ATOM     16  C   UNL     1       5.439   5.766  14.463  0.00  0.00    +0.000 C 
ATOM     17  C   UNL     1       6.516   5.194  15.389  0.00  0.00    +0.000 C 
ATOM     18  C   UNL     1       6.561   3.668  15.225  0.00  0.00    +0.000 C 
BRANCH  17  19
ATOM     19  O   UNL     1       7.785   5.716  14.959  0.00  0.00    +0.000 OA
ATOM     20  H   UNL     1       8.194   5.070  14.359  0.00  0.00    +0.000 HD
ENDBRANCH  17  19
ENDBRANCH   1  17
TORSDOF 2
ENDMDL
