MODEL 1
REMARK VINA RESULT:      -7.5      0.000      0.000
REMARK  Name = 
REMARK  6 active torsions:
REMARK  status: ('A' for Active; 'I' for Inactive)
REMARK    1  A    between atoms: C_1  and  C_2
REMARK    2  A    between atoms: C_6  and  C_7
REMARK    3  A    between atoms: N_14  and  C_15
REMARK    4  A    between atoms: C_15  and  C_16
REMARK    5  A    between atoms: C_16  and  N_17
REMARK    6  A    between atoms: C_24  and  C_25
REMARK                            x       y       z     vdW  Elec       q    Type
REMARK                         _______ _______ _______ _____ _____    ______ ____
ROOT
ATOM      1  C   UNL     1       1.467   2.550  21.580  0.00  0.00    +0.000 C 
ATOM      2  C   UNL     1       2.169   3.186  20.422  0.00  0.00    +0.000 A 
ATOM      3  S   UNL     1       3.089   2.237  19.341  0.00  0.00    +0.000 S 
ATOM      4  C   UNL     1       3.520   3.595  18.401  0.00  0.00    +0.000 A 
ATOM      5  N   UNL     1       4.313   3.452  17.324  0.00  0.00    +0.000 NA
ATOM      6  C   UNL     1       4.564   4.620  16.726  0.00  0.00    +0.000 A 
ATOM      7  N   UNL     1       4.110   5.826  17.107  0.00  0.00    +0.000 NA
ATOM      8  C   UNL     1       3.296   5.931  18.175  0.00  0.00    +0.000 A 
ATOM      9  N   UNL     1       2.892   7.205  18.609  0.00  0.00    +0.000 N 
ATOM     10  C   UNL     1       2.972   4.769  18.896  0.00  0.00    +0.000 A 
ATOM     11  C   UNL     1       2.175   4.530  20.083  0.00  0.00    +0.000 A 
ATOM     12  C   UNL     1       1.433   5.568  20.870  0.00  0.00    +0.000 C 
ATOM     13  H   UNL     1       3.656   7.539  19.192  0.00  0.00    +0.000 HD
ENDROOT
BRANCH   6  14
ATOM     14  C   UNL     1       5.456   4.594  15.551  0.00  0.00    +0.000 A 
ATOM     15  C   UNL     1       5.215   4.094  14.281  0.00  0.00    +0.000 A 
ATOM     16  C   UNL     1       6.333   4.230  13.401  0.00  0.00    +0.000 A 
ATOM     17  C   UNL     1       7.400   4.838  14.018  0.00  0.00    +0.000 A 
ATOM     18  S   UNL     1       7.056   5.237  15.643  0.00  0.00    +0.000 S 
ENDBRANCH   6  14
BRANCH   9  19
ATOM     19  C   UNL     1       2.645   8.145  17.509  0.00  0.00    +0.000 C 
BRANCH  19  20
ATOM     20  C   UNL     1       2.113   9.495  18.052  0.00  0.00    +0.000 C 
BRANCH  20  21
ATOM     21  N   UNL     1       0.841   9.342  18.767  0.00  0.00    +0.000 NA
ATOM     22  C   UNL     1      -0.275  10.125  18.200  0.00  0.00    +0.000 C 
ATOM     23  C   UNL     1      -0.376  11.569  18.704  0.00  0.00    +0.000 C 
ATOM     24  O   UNL     1      -0.465  11.595  20.131  0.00  0.00    +0.000 OA
ATOM     25  C   UNL     1       0.715  11.020  20.700  0.00  0.00    +0.000 C 
ATOM     26  C   UNL     1       0.949   9.576  20.220  0.00  0.00    +0.000 C 
ENDBRANCH  20  21
ENDBRANCH  19  20
ENDBRANCH   9  19
TORSDOF 4
ENDMDL
MODEL 2
REMARK VINA RESULT:      -7.1      0.888      1.235
REMARK  Name = 
REMARK  6 active torsions:
REMARK  status: ('A' for Active; 'I' for Inactive)
REMARK    1  A    between atoms: C_1  and  C_2
REMARK    2  A    between atoms: C_6  and  C_7
REMARK    3  A    between atoms: N_14  and  C_15
REMARK    4  A    between atoms: C_15  and  C_16
REMARK    5  A    between atoms: C_16  and  N_17
REMARK    6  A    between atoms: C_24  and  C_25
REMARK                            x       y       z     vdW  Elec       q    Type
REMARK                         _______ _______ _______ _____ _____    ______ ____
ROOT
ATOM      1  C   UNL     1       1.512   2.611  21.584  0.00  0.00    +0.000 C 
ATOM      2  C   UNL     1       2.236   3.257  20.448  0.00  0.00    +0.000 A 
ATOM      3  S   UNL     1       3.209   2.324  19.398  0.00  0.00    +0.000 S 
ATOM      4  C   UNL     1       3.642   3.689  18.469  0.00  0.00    +0.000 A 
ATOM      5  N   UNL     1       4.471   3.560  17.418  0.00  0.00    +0.000 NA
ATOM      6  C   UNL     1       4.718   4.731  16.824  0.00  0.00    +0.000 A 
ATOM      7  N   UNL     1       4.228   5.928  17.187  0.00  0.00    +0.000 NA
ATOM      8  C   UNL     1       3.378   6.020  18.229  0.00  0.00    +0.000 A 
ATOM      9  N   UNL     1       2.937   7.287  18.646  0.00  0.00    +0.000 N 
ATOM     10  C   UNL     1       3.056   4.853  18.943  0.00  0.00    +0.000 A 
ATOM     11  C   UNL     1       2.226   4.600  20.105  0.00  0.00    +0.000 A 
ATOM     12  C   UNL     1       1.440   5.625  20.865  0.00  0.00    +0.000 C 
ATOM     13  H   UNL     1       3.674   7.637  19.253  0.00  0.00    +0.000 HD
ENDROOT
BRANCH   6  14
ATOM     14  C   UNL     1       5.646   4.720  15.677  0.00  0.00    +0.000 A 
ATOM     15  C   UNL     1       6.913   5.271  15.572  0.00  0.00    +0.000 A 
ATOM     16  C   UNL     1       7.508   5.072  14.288  0.00  0.00    +0.000 A 
ATOM     17  C   UNL     1       6.683   4.367  13.444  0.00  0.00    +0.000 A 
ATOM     18  S   UNL     1       5.206   3.953  14.194  0.00  0.00    +0.000 S 
ENDBRANCH   6  14
BRANCH   9  19
ATOM     19  C   UNL     1       2.706   8.219  17.537  0.00  0.00    +0.000 C 
BRANCH  19  20
ATOM     20  C   UNL     1       1.450   9.086  17.803  0.00  0.00    +0.000 C 
BRANCH  20  21
ATOM     21  N   UNL     1       1.596   9.920  19.001  0.00  0.00    +0.000 NA
ATOM     22  C   UNL     1       0.645   9.603  20.085  0.00  0.00    +0.000 C 
ATOM     23  C   UNL     1      -0.712  10.308  19.984  0.00  0.00    +0.000 C 
ATOM     24  O   UNL     1      -0.535  11.725  19.918  0.00  0.00    +0.000 OA
ATOM     25  C   UNL     1       0.216  12.065  18.749  0.00  0.00    +0.000 C 
ATOM     26  C   UNL     1       1.589  11.369  18.716  0.00  0.00    +0.000 C 
ENDBRANCH  20  21
ENDBRANCH  19  20
ENDBRANCH   9  19
TORSDOF 4
ENDMDL
MODEL 3
REMARK VINA RESULT:      -6.9      2.991      6.939
REMARK  Name = 
REMARK  6 active torsions:
REMARK  status: ('A' for Active; 'I' for Inactive)
REMARK    1  A    between atoms: C_1  and  C_2
REMARK    2  A    between atoms: C_6  and  C_7
REMARK    3  A    between atoms: N_14  and  C_15
REMARK    4  A    between atoms: C_15  and  C_16
REMARK    5  A    between atoms: C_16  and  N_17
REMARK    6  A    between atoms: C_24  and  C_25
REMARK                            x       y       z     vdW  Elec       q    Type
REMARK                         _______ _______ _______ _____ _____    ______ ____
ROOT
ATOM      1  C   UNL     1       6.866   5.120  15.747  0.00  0.00    +0.000 C 
ATOM      2  C   UNL     1       5.749   5.709  16.548  0.00  0.00    +0.000 A 
ATOM      3  S   UNL     1       4.952   7.123  16.013  0.00  0.00    +0.000 S 
ATOM      4  C   UNL     1       3.912   7.136  17.366  0.00  0.00    +0.000 A 
ATOM      5  N   UNL     1       2.992   8.107  17.507  0.00  0.00    +0.000 NA
ATOM      6  C   UNL     1       2.285   7.972  18.632  0.00  0.00    +0.000 A 
ATOM      7  N   UNL     1       2.429   7.004  19.553  0.00  0.00    +0.000 NA
ATOM      8  C   UNL     1       3.341   6.030  19.369  0.00  0.00    +0.000 A 
ATOM      9  N   UNL     1       3.535   5.070  20.377  0.00  0.00    +0.000 N 
ATOM     10  C   UNL     1       4.158   6.075  18.225  0.00  0.00    +0.000 A 
ATOM     11  C   UNL     1       5.236   5.234  17.744  0.00  0.00    +0.000 A 
ATOM     12  C   UNL     1       5.757   4.000  18.417  0.00  0.00    +0.000 C 
ATOM     13  H   UNL     1       4.174   5.506  21.037  0.00  0.00    +0.000 HD
ENDROOT
BRANCH   6  14
ATOM     14  C   UNL     1       1.268   9.003  18.914  0.00  0.00    +0.000 A 
ATOM     15  C   UNL     1       0.583   9.821  18.030  0.00  0.00    +0.000 A 
ATOM     16  C   UNL     1      -0.321  10.717  18.678  0.00  0.00    +0.000 A 
ATOM     17  C   UNL     1      -0.311  10.559  20.043  0.00  0.00    +0.000 A 
ATOM     18  S   UNL     1       0.781   9.342  20.536  0.00  0.00    +0.000 S 
ENDBRANCH   6  14
BRANCH   9  19
ATOM     19  C   UNL     1       2.294   4.677  21.054  0.00  0.00    +0.000 C 
BRANCH  19  20
ATOM     20  C   UNL     1       2.279   3.152  21.328  0.00  0.00    +0.000 C 
BRANCH  20  21
ATOM     21  N   UNL     1       1.477   2.420  20.341  0.00  0.00    +0.000 NA
ATOM     22  C   UNL     1       2.250   1.490  19.494  0.00  0.00    +0.000 C 
ATOM     23  C   UNL     1       2.875   2.120  18.245  0.00  0.00    +0.000 C 
ATOM     24  O   UNL     1       1.871   2.752  17.447  0.00  0.00    +0.000 OA
ATOM     25  C   UNL     1       1.249   3.802  18.196  0.00  0.00    +0.000 C 
ATOM     26  C   UNL     1       0.626   3.292  19.508  0.00  0.00    +0.000 C 
ENDBRANCH  20  21
ENDBRANCH  19  20
ENDBRANCH   9  19
TORSDOF 4
ENDMDL
MODEL 4
REMARK VINA RESULT:      -6.7      3.016      5.891
REMARK  Name = 
REMARK  6 active torsions:
REMARK  status: ('A' for Active; 'I' for Inactive)
REMARK    1  A    between atoms: C_1  and  C_2
REMARK    2  A    between atoms: C_6  and  C_7
REMARK    3  A    between atoms: N_14  and  C_15
REMARK    4  A    between atoms: C_15  and  C_16
REMARK    5  A    between atoms: C_16  and  N_17
REMARK    6  A    between atoms: C_24  and  C_25
REMARK                            x       y       z     vdW  Elec       q    Type
REMARK                         _______ _______ _______ _____ _____    ______ ____
ROOT
ATOM      1  C   UNL     1       0.094  11.107  19.728  0.00  0.00    +0.000 C 
ATOM      2  C   UNL     1       0.983   9.964  19.354  0.00  0.00    +0.000 A 
ATOM      3  S   UNL     1       2.072  10.107  18.045  0.00  0.00    +0.000 S 
ATOM      4  C   UNL     1       2.651   8.516  18.259  0.00  0.00    +0.000 A 
ATOM      5  N   UNL     1       3.598   8.022  17.442  0.00  0.00    +0.000 NA
ATOM      6  C   UNL     1       3.912   6.758  17.741  0.00  0.00    +0.000 A 
ATOM      7  N   UNL     1       3.380   6.016  18.726  0.00  0.00    +0.000 NA
ATOM      8  C   UNL     1       2.452   6.549  19.544  0.00  0.00    +0.000 A 
ATOM      9  N   UNL     1       1.847   5.738  20.519  0.00  0.00    +0.000 N 
ATOM     10  C   UNL     1       2.029   7.870  19.317  0.00  0.00    +0.000 A 
ATOM     11  C   UNL     1       1.049   8.722  19.964  0.00  0.00    +0.000 A 
ATOM     12  C   UNL     1       0.202   8.351  21.143  0.00  0.00    +0.000 C 
ATOM     13  H   UNL     1       1.098   5.252  20.031  0.00  0.00    +0.000 HD
ENDROOT
BRANCH   6  14
ATOM     14  C   UNL     1       4.917   6.096  16.887  0.00  0.00    +0.000 A 
ATOM     15  C   UNL     1       4.963   5.998  15.506  0.00  0.00    +0.000 A 
ATOM     16  C   UNL     1       6.090   5.258  15.032  0.00  0.00    +0.000 A 
ATOM     17  C   UNL     1       6.884   4.815  16.063  0.00  0.00    +0.000 A 
ATOM     18  S   UNL     1       6.272   5.285  17.586  0.00  0.00    +0.000 S 
ENDBRANCH   6  14
BRANCH   9  19
ATOM     19  C   UNL     1       2.768   4.770  21.126  0.00  0.00    +0.000 C 
BRANCH  19  20
ATOM     20  C   UNL     1       1.999   3.522  21.626  0.00  0.00    +0.000 C 
BRANCH  20  21
ATOM     21  N   UNL     1       2.368   2.310  20.884  0.00  0.00    +0.000 NA
ATOM     22  C   UNL     1       3.813   2.179  20.610  0.00  0.00    +0.000 C 
ATOM     23  C   UNL     1       4.298   2.883  19.339  0.00  0.00    +0.000 C 
ATOM     24  O   UNL     1       3.564   2.422  18.201  0.00  0.00    +0.000 OA
ATOM     25  C   UNL     1       2.177   2.732  18.364  0.00  0.00    +0.000 C 
ATOM     26  C   UNL     1       1.589   2.116  19.646  0.00  0.00    +0.000 C 
ENDBRANCH  20  21
ENDBRANCH  19  20
ENDBRANCH   9  19
TORSDOF 4
ENDMDL
MODEL 5
REMARK VINA RESULT:      -6.5      3.436      6.500
REMARK  Name = 
REMARK  6 active torsions:
REMARK  status: ('A' for Active; 'I' for Inactive)
REMARK    1  A    between atoms: C_1  and  C_2
REMARK    2  A    between atoms: C_6  and  C_7
REMARK    3  A    between atoms: N_14  and  C_15
REMARK    4  A    between atoms: C_15  and  C_16
REMARK    5  A    between atoms: C_16  and  N_17
REMARK    6  A    between atoms: C_24  and  C_25
REMARK                            x       y       z     vdW  Elec       q    Type
REMARK                         _______ _______ _______ _____ _____    ______ ____
ROOT
ATOM      1  C   UNL     1       2.977   2.005  20.961  0.00  0.00    +0.000 C 
ATOM      2  C   UNL     1       2.872   3.377  20.377  0.00  0.00    +0.000 A 
ATOM      3  S   UNL     1       2.023   4.607  21.204  0.00  0.00    +0.000 S 
ATOM      4  C   UNL     1       2.342   5.752  19.978  0.00  0.00    +0.000 A 
ATOM      5  N   UNL     1       1.875   7.008  20.083  0.00  0.00    +0.000 NA
ATOM      6  C   UNL     1       2.199   7.756  19.025  0.00  0.00    +0.000 A 
ATOM      7  N   UNL     1       2.905   7.359  17.953  0.00  0.00    +0.000 NA
ATOM      8  C   UNL     1       3.382   6.100  17.891  0.00  0.00    +0.000 A 
ATOM      9  N   UNL     1       4.050   5.675  16.730  0.00  0.00    +0.000 N 
ATOM     10  C   UNL     1       3.091   5.213  18.942  0.00  0.00    +0.000 A 
ATOM     11  C   UNL     1       3.405   3.817  19.176  0.00  0.00    +0.000 A 
ATOM     12  C   UNL     1       4.204   2.930  18.269  0.00  0.00    +0.000 C 
ATOM     13  H   UNL     1       3.312   5.397  16.087  0.00  0.00    +0.000 HD
ENDROOT
BRANCH   6  14
ATOM     14  C   UNL     1       1.709   9.147  19.011  0.00  0.00    +0.000 A 
ATOM     15  C   UNL     1       1.939  10.147  18.080  0.00  0.00    +0.000 A 
ATOM     16  C   UNL     1       1.306  11.384  18.414  0.00  0.00    +0.000 A 
ATOM     17  C   UNL     1       0.600  11.298  19.589  0.00  0.00    +0.000 A 
ATOM     18  S   UNL     1       0.703   9.741  20.283  0.00  0.00    +0.000 S 
ENDBRANCH   6  14
BRANCH   9  19
ATOM     19  C   UNL     1       4.886   6.717  16.123  0.00  0.00    +0.000 C 
BRANCH  19  20
ATOM     20  C   UNL     1       5.801   7.372  17.187  0.00  0.00    +0.000 C 
BRANCH  20  21
ATOM     21  N   UNL     1       7.196   6.934  17.065  0.00  0.00    +0.000 NA
ATOM     22  C   UNL     1       7.367   5.611  16.432  0.00  0.00    +0.000 C 
ATOM     23  C   UNL     1       7.269   4.418  17.388  0.00  0.00    +0.000 C 
ATOM     24  O   UNL     1       8.214   4.551  18.452  0.00  0.00    +0.000 OA
ATOM     25  C   UNL     1       7.929   5.733  19.206  0.00  0.00    +0.000 C 
ATOM     26  C   UNL     1       7.949   7.000  18.333  0.00  0.00    +0.000 C 
ENDBRANCH  20  21
ENDBRANCH  19  20
ENDBRANCH   9  19
TORSDOF 4
ENDMDL
MODEL 6
REMARK VINA RESULT:      -6.2      3.252      7.147
REMARK  Name = 
REMARK  6 active torsions:
REMARK  status: ('A' for Active; 'I' for Inactive)
REMARK    1  A    between atoms: C_1  and  C_2
REMARK    2  A    between atoms: C_6  and  C_7
REMARK    3  A    between atoms: N_14  and  C_15
REMARK    4  A    between atoms: C_15  and  C_16
REMARK    5  A    between atoms: C_16  and  N_17
REMARK    6  A    between atoms: C_24  and  C_25
REMARK                            x       y       z     vdW  Elec       q    Type
REMARK                         _______ _______ _______ _____ _____    ______ ____
ROOT
ATOM      1  C   UNL     1       6.514   5.162  15.695  0.00  0.00    +0.000 C 
ATOM      2  C   UNL     1       5.457   5.766  16.564  0.00  0.00    +0.000 A 
ATOM      3  S   UNL     1       4.688   7.221  16.108  0.00  0.00    +0.000 S 
ATOM      4  C   UNL     1       3.713   7.230  17.509  0.00  0.00    +0.000 A 
ATOM      5  N   UNL     1       2.837   8.227  17.721  0.00  0.00    +0.000 NA
ATOM      6  C   UNL     1       2.178   8.083  18.875  0.00  0.00    +0.000 A 
ATOM      7  N   UNL     1       2.330   7.084  19.760  0.00  0.00    +0.000 NA
ATOM      8  C   UNL     1       3.198   6.085  19.505  0.00  0.00    +0.000 A 
ATOM      9  N   UNL     1       3.404   5.089  20.475  0.00  0.00    +0.000 N 
ATOM     10  C   UNL     1       3.961   6.136  18.325  0.00  0.00    +0.000 A 
ATOM     11  C   UNL     1       4.984   5.273  17.770  0.00  0.00    +0.000 A 
ATOM     12  C   UNL     1       5.492   4.002  18.382  0.00  0.00    +0.000 C 
ATOM     13  H   UNL     1       4.088   5.483  21.116  0.00  0.00    +0.000 HD
ENDROOT
BRANCH   6  14
ATOM     14  C   UNL     1       1.213   9.140  19.234  0.00  0.00    +0.000 A 
ATOM     15  C   UNL     1       0.760   9.522  20.486  0.00  0.00    +0.000 A 
ATOM     16  C   UNL     1      -0.196  10.583  20.438  0.00  0.00    +0.000 A 
ATOM     17  C   UNL     1      -0.445  10.992  19.150  0.00  0.00    +0.000 A 
ATOM     18  S   UNL     1       0.464  10.101  18.011  0.00  0.00    +0.000 S 
ENDBRANCH   6  14
BRANCH   9  19
ATOM     19  C   UNL     1       2.183   4.719  21.200  0.00  0.00    +0.000 C 
BRANCH  19  20
ATOM     20  C   UNL     1       1.056   4.332  20.211  0.00  0.00    +0.000 C 
BRANCH  20  21
ATOM     21  N   UNL     1       0.984   2.882  19.991  0.00  0.00    +0.000 NA
ATOM     22  C   UNL     1       2.033   2.108  20.683  0.00  0.00    +0.000 C 
ATOM     23  C   UNL     1       3.352   1.973  19.915  0.00  0.00    +0.000 C 
ATOM     24  O   UNL     1       3.123   1.400  18.625  0.00  0.00    +0.000 OA
ATOM     25  C   UNL     1       2.264   2.253  17.863  0.00  0.00    +0.000 C 
ATOM     26  C   UNL     1       0.918   2.504  18.566  0.00  0.00    +0.000 C 
ENDBRANCH  20  21
ENDBRANCH  19  20
ENDBRANCH   9  19
TORSDOF 4
ENDMDL
MODEL 7
REMARK VINA RESULT:      -6.2      7.373     11.652
REMARK  Name = 
REMARK  6 active torsions:
REMARK  status: ('A' for Active; 'I' for Inactive)
REMARK    1  A    between atoms: C_1  and  C_2
REMARK    2  A    between atoms: C_6  and  C_7
REMARK    3  A    between atoms: N_14  and  C_15
REMARK    4  A    between atoms: C_15  and  C_16
REMARK    5  A    between atoms: C_16  and  N_17
REMARK    6  A    between atoms: C_24  and  C_25
REMARK                            x       y       z     vdW  Elec       q    Type
REMARK                         _______ _______ _______ _____ _____    ______ ____
ROOT
ATOM      1  C   UNL     1      -3.748  10.630  15.984  0.00  0.00    +0.000 C 
ATOM      2  C   UNL     1      -4.029  11.231  17.324  0.00  0.00    +0.000 A 
ATOM      3  S   UNL     1      -5.632  11.351  17.901  0.00  0.00    +0.000 S 
ATOM      4  C   UNL     1      -5.131  12.086  19.358  0.00  0.00    +0.000 A 
ATOM      5  N   UNL     1      -6.037  12.446  20.283  0.00  0.00    +0.000 NA
ATOM      6  C   UNL     1      -5.469  13.026  21.345  0.00  0.00    +0.000 A 
ATOM      7  N   UNL     1      -4.157  13.251  21.524  0.00  0.00    +0.000 NA
ATOM      8  C   UNL     1      -3.272  12.852  20.589  0.00  0.00    +0.000 A 
ATOM      9  N   UNL     1      -1.911  13.164  20.752  0.00  0.00    +0.000 N 
ATOM     10  C   UNL     1      -3.754  12.243  19.417  0.00  0.00    +0.000 A 
ATOM     11  C   UNL     1      -3.104  11.738  18.223  0.00  0.00    +0.000 A 
ATOM     12  C   UNL     1      -1.629  11.740  17.956  0.00  0.00    +0.000 C 
ATOM     13  H   UNL     1      -1.814  14.113  20.401  0.00  0.00    +0.000 HD
ENDROOT
BRANCH   6  14
ATOM     14  C   UNL     1      -6.369  13.499  22.413  0.00  0.00    +0.000 A 
ATOM     15  C   UNL     1      -6.893  12.801  23.490  0.00  0.00    +0.000 A 
ATOM     16  C   UNL     1      -7.749  13.595  24.313  0.00  0.00    +0.000 A 
ATOM     17  C   UNL     1      -7.855  14.885  23.850  0.00  0.00    +0.000 A 
ATOM     18  S   UNL     1      -6.932  15.132  22.434  0.00  0.00    +0.000 S 
ENDBRANCH   6  14
BRANCH   9  19
ATOM     19  C   UNL     1      -1.460  13.090  22.146  0.00  0.00    +0.000 C 
BRANCH  19  20
ATOM     20  C   UNL     1      -1.495  11.627  22.656  0.00  0.00    +0.000 C 
BRANCH  20  21
ATOM     21  N   UNL     1      -0.162  11.015  22.678  0.00  0.00    +0.000 NA
ATOM     22  C   UNL     1       0.585  11.133  21.409  0.00  0.00    +0.000 C 
ATOM     23  C   UNL     1       0.297  10.032  20.383  0.00  0.00    +0.000 C 
ATOM     24  O   UNL     1       0.543   8.743  20.950  0.00  0.00    +0.000 OA
ATOM     25  C   UNL     1      -0.328   8.532  22.066  0.00  0.00    +0.000 C 
ATOM     26  C   UNL     1      -0.163   9.615  23.147  0.00  0.00    +0.000 C 
ENDBRANCH  20  21
ENDBRANCH  19  20
ENDBRANCH   9  19
TORSDOF 4
ENDMDL
MODEL 8
REMARK VINA RESULT:      -6.1      3.201      6.677
REMARK  Name = 
REMARK  6 active torsions:
REMARK  status: ('A' for Active; 'I' for Inactive)
REMARK    1  A    between atoms: C_1  and  C_2
REMARK    2  A    between atoms: C_6  and  C_7
REMARK    3  A    between atoms: N_14  and  C_15
REMARK    4  A    between atoms: C_15  and  C_16
REMARK    5  A    between atoms: C_16  and  N_17
REMARK    6  A    between atoms: C_24  and  C_25
REMARK                            x       y       z     vdW  Elec       q    Type
REMARK                         _______ _______ _______ _____ _____    ______ ____
ROOT
ATOM      1  C   UNL     1       2.316   1.171  20.154  0.00  0.00    +0.000 C 
ATOM      2  C   UNL     1       2.290   2.658  20.004  0.00  0.00    +0.000 A 
ATOM      3  S   UNL     1       1.434   3.627  21.120  0.00  0.00    +0.000 S 
ATOM      4  C   UNL     1       1.861   5.067  20.310  0.00  0.00    +0.000 A 
ATOM      5  N   UNL     1       1.429   6.256  20.765  0.00  0.00    +0.000 NA
ATOM      6  C   UNL     1       1.839   7.269  19.996  0.00  0.00    +0.000 A 
ATOM      7  N   UNL     1       2.594   7.175  18.889  0.00  0.00    +0.000 NA
ATOM      8  C   UNL     1       3.034   5.970  18.475  0.00  0.00    +0.000 A 
ATOM      9  N   UNL     1       3.755   5.878  17.272  0.00  0.00    +0.000 N 
ATOM     10  C   UNL     1       2.652   4.826  19.197  0.00  0.00    +0.000 A 
ATOM     11  C   UNL     1       2.908   3.410  19.016  0.00  0.00    +0.000 A 
ATOM     12  C   UNL     1       3.729   2.796  17.924  0.00  0.00    +0.000 C 
ATOM     13  H   UNL     1       3.048   5.840  16.542  0.00  0.00    +0.000 HD
ENDROOT
BRANCH   6  14
ATOM     14  C   UNL     1       1.395   8.623  20.376  0.00  0.00    +0.000 A 
ATOM     15  C   UNL     1       1.099   9.707  19.566  0.00  0.00    +0.000 A 
ATOM     16  C   UNL     1       0.715  10.871  20.300  0.00  0.00    +0.000 A 
ATOM     17  C   UNL     1       0.719  10.647  21.656  0.00  0.00    +0.000 A 
ATOM     18  S   UNL     1       1.185   9.049  22.037  0.00  0.00    +0.000 S 
ENDBRANCH   6  14
BRANCH   9  19
ATOM     19  C   UNL     1       4.659   7.011  17.046  0.00  0.00    +0.000 C 
BRANCH  19  20
ATOM     20  C   UNL     1       5.552   6.760  15.805  0.00  0.00    +0.000 C 
BRANCH  20  21
ATOM     21  N   UNL     1       6.942   6.469  16.173  0.00  0.00    +0.000 NA
ATOM     22  C   UNL     1       7.320   5.046  16.053  0.00  0.00    +0.000 C 
ATOM     23  C   UNL     1       7.009   4.187  17.283  0.00  0.00    +0.000 C 
ATOM     24  O   UNL     1       7.629   4.738  18.448  0.00  0.00    +0.000 OA
ATOM     25  C   UNL     1       7.113   6.050  18.695  0.00  0.00    +0.000 C 
ATOM     26  C   UNL     1       7.325   6.994  17.498  0.00  0.00    +0.000 C 
ENDBRANCH  20  21
ENDBRANCH  19  20
ENDBRANCH   9  19
TORSDOF 4
ENDMDL
MODEL 9
REMARK VINA RESULT:      -6.0      2.932      5.747
REMARK  Name = 
REMARK  6 active torsions:
REMARK  status: ('A' for Active; 'I' for Inactive)
REMARK    1  A    between atoms: C_1  and  C_2
REMARK    2  A    between atoms: C_6  and  C_7
REMARK    3  A    between atoms: N_14  and  C_15
REMARK    4  A    between atoms: C_15  and  C_16
REMARK    5  A    between atoms: C_16  and  N_17
REMARK    6  A    between atoms: C_24  and  C_25
REMARK                            x       y       z     vdW  Elec       q    Type
REMARK                         _______ _______ _______ _____ _____    ______ ____
ROOT
ATOM      1  C   UNL     1       0.134  11.052  19.754  0.00  0.00    +0.000 C 
ATOM      2  C   UNL     1       0.976   9.868  19.401  0.00  0.00    +0.000 A 
ATOM      3  S   UNL     1       1.986   9.904  18.024  0.00  0.00    +0.000 S 
ATOM      4  C   UNL     1       2.547   8.316  18.303  0.00  0.00    +0.000 A 
ATOM      5  N   UNL     1       3.433   7.751  17.465  0.00  0.00    +0.000 NA
ATOM      6  C   UNL     1       3.740   6.501  17.825  0.00  0.00    +0.000 A 
ATOM      7  N   UNL     1       3.254   5.834  18.884  0.00  0.00    +0.000 NA
ATOM      8  C   UNL     1       2.387   6.438  19.721  0.00  0.00    +0.000 A 
ATOM      9  N   UNL     1       1.827   5.703  20.779  0.00  0.00    +0.000 N 
ATOM     10  C   UNL     1       1.977   7.752  19.436  0.00  0.00    +0.000 A 
ATOM     11  C   UNL     1       1.055   8.665  20.084  0.00  0.00    +0.000 A 
ATOM     12  C   UNL     1       0.273   8.387  21.332  0.00  0.00    +0.000 C 
ATOM     13  H   UNL     1       1.041   5.206  20.368  0.00  0.00    +0.000 HD
ENDROOT
BRANCH   6  14
ATOM     14  C   UNL     1       4.679   5.765  16.957  0.00  0.00    +0.000 A 
ATOM     15  C   UNL     1       5.188   4.485  17.106  0.00  0.00    +0.000 A 
ATOM     16  C   UNL     1       6.093   4.114  16.064  0.00  0.00    +0.000 A 
ATOM     17  C   UNL     1       6.249   5.118  15.138  0.00  0.00    +0.000 A 
ATOM     18  S   UNL     1       5.314   6.494  15.526  0.00  0.00    +0.000 S 
ENDBRANCH   6  14
BRANCH   9  19
ATOM     19  C   UNL     1       2.765   4.755  21.391  0.00  0.00    +0.000 C 
BRANCH  19  20
ATOM     20  C   UNL     1       3.478   3.913  20.304  0.00  0.00    +0.000 C 
BRANCH  20  21
ATOM     21  N   UNL     1       2.898   2.571  20.172  0.00  0.00    +0.000 NA
ATOM     22  C   UNL     1       3.189   1.904  18.887  0.00  0.00    +0.000 C 
ATOM     23  C   UNL     1       2.216   2.236  17.750  0.00  0.00    +0.000 C 
ATOM     24  O   UNL     1       0.873   1.936  18.138  0.00  0.00    +0.000 OA
ATOM     25  C   UNL     1       0.506   2.735  19.267  0.00  0.00    +0.000 C 
ATOM     26  C   UNL     1       1.452   2.522  20.463  0.00  0.00    +0.000 C 
ENDBRANCH  20  21
ENDBRANCH  19  20
ENDBRANCH   9  19
TORSDOF 4
ENDMDL
