MODEL 1
REMARK VINA RESULT:      -8.0      0.000      0.000
REMARK  Name = 
REMARK  9 active torsions:
REMARK  status: ('A' for Active; 'I' for Inactive)
REMARK    1  A    between atoms: C_1  and  C_2
REMARK    2  A    between atoms: N_4  and  C_5
REMARK    3  A    between atoms: C_5  and  C_6
REMARK    4  A    between atoms: C_5  and  C_7
REMARK    5  A    between atoms: C_10  and  O_11
REMARK    6  A    between atoms: O_11  and  C_12
REMARK    7  A    between atoms: C_19  and  O_20
REMARK    8  A    between atoms: O_20  and  C_21
REMARK    9  A    between atoms: C_21  and  C_22
REMARK                            x       y       z     vdW  Elec       q    Type
REMARK                         _______ _______ _______ _____ _____    ______ ____
ROOT
ATOM      1  C   UNL     1       2.558   6.148  19.072  0.00  0.00    +0.000 C 
ATOM      2  C   UNL     1       2.232   7.082  17.899  0.00  0.00    +0.000 C 
ATOM      3  C   UNL     1       1.944   8.451  18.522  0.00  0.00    +0.000 C 
ATOM      4  N   UNL     1       1.396   8.110  19.821  0.00  0.00    +0.000 N 
ATOM      5  C   UNL     1       0.897   9.068  20.674  0.00  0.00    +0.000 A 
ATOM      6  C   UNL     1       0.490   8.722  21.962  0.00  0.00    +0.000 A 
ATOM      7  C   UNL     1      -0.038   9.677  22.832  0.00  0.00    +0.000 A 
ATOM      8  C   UNL     1      -0.165  10.988  22.411  0.00  0.00    +0.000 A 
ATOM      9  C   UNL     1       0.217  11.259  21.106  0.00  0.00    +0.000 A 
ATOM     10  N   UNL     1       0.748  10.340  20.244  0.00  0.00    +0.000 NA
ATOM     11  C   UNL     1       1.920   6.837  20.292  0.00  0.00    +0.000 C 
ENDROOT
BRANCH   1  12
ATOM     12  O   UNL     1       3.982   5.990  19.192  0.00  0.00    +0.000 OA
BRANCH  12  16
ATOM     13  C   UNL     1       5.810   4.601  15.664  0.00  0.00    +0.000 A 
ATOM     14  C   UNL     1       4.897   3.819  16.384  0.00  0.00    +0.000 A 
ATOM     15  C   UNL     1       4.309   4.310  17.563  0.00  0.00    +0.000 A 
ATOM     16  C   UNL     1       4.636   5.581  18.053  0.00  0.00    +0.000 A 
ATOM     17  C   UNL     1       5.546   6.358  17.339  0.00  0.00    +0.000 A 
ATOM     18  C   UNL     1       6.121   5.876  16.161  0.00  0.00    +0.000 A 
BRANCH  13  19
ATOM     19  C   UNL     1       6.434   4.118  14.360  0.00  0.00    +0.000 C 
ATOM     20  C   UNL     1       7.517   5.099  13.892  0.00  0.00    +0.000 C 
BRANCH  19  24
ATOM     21  C   UNL     1       4.284   3.232  11.353  0.00  0.00    +0.000 C 
ATOM     22  C   UNL     1       5.526   3.238  12.204  0.00  0.00    +0.000 C 
ATOM     23  O   UNL     1       6.552   2.657  11.875  0.00  0.00    +0.000 OA
ATOM     24  N   UNL     1       5.377   3.962  13.363  0.00  0.00    +0.000 N 
ATOM     25  H   UNL     1       4.438   4.215  13.643  0.00  0.00    +0.000 HD
ENDBRANCH  19  24
ENDBRANCH  13  19
ENDBRANCH  12  16
ENDBRANCH   1  12
BRANCH   8  26
ATOM     26  O   UNL     1      -0.663  12.016  23.165  0.00  0.00    +0.000 OA
BRANCH  26  27
ATOM     27  C   UNL     1      -1.366  13.020  22.423  0.00  0.00    +0.000 C 
BRANCH  27  28
ATOM     28  C   UNL     1      -2.845  12.816  22.568  0.00  0.00    +0.000 C 
ATOM     29  C   UNL     1      -3.428  12.252  23.839  0.00  0.00    +0.000 C 
ATOM     30  C   UNL     1      -3.627  13.705  23.508  0.00  0.00    +0.000 C 
ENDBRANCH  27  28
ENDBRANCH  26  27
ENDBRANCH   8  26
TORSDOF 7
ENDMDL
MODEL 2
REMARK VINA RESULT:      -7.7      2.139     11.426
REMARK  Name = 
REMARK  9 active torsions:
REMARK  status: ('A' for Active; 'I' for Inactive)
REMARK    1  A    between atoms: C_1  and  C_2
REMARK    2  A    between atoms: N_4  and  C_5
REMARK    3  A    between atoms: C_5  and  C_6
REMARK    4  A    between atoms: C_5  and  C_7
REMARK    5  A    between atoms: C_10  and  O_11
REMARK    6  A    between atoms: O_11  and  C_12
REMARK    7  A    between atoms: C_19  and  O_20
REMARK    8  A    between atoms: O_20  and  C_21
REMARK    9  A    between atoms: C_21  and  C_22
REMARK                            x       y       z     vdW  Elec       q    Type
REMARK                         _______ _______ _______ _____ _____    ______ ____
ROOT
ATOM      1  C   UNL     1       1.375   7.529  20.341  0.00  0.00    +0.000 C 
ATOM      2  C   UNL     1       1.315   6.051  20.746  0.00  0.00    +0.000 C 
ATOM      3  C   UNL     1       2.627   5.429  20.259  0.00  0.00    +0.000 C 
ATOM      4  N   UNL     1       2.946   6.219  19.085  0.00  0.00    +0.000 N 
ATOM      5  C   UNL     1       4.014   5.913  18.273  0.00  0.00    +0.000 A 
ATOM      6  C   UNL     1       4.367   6.762  17.223  0.00  0.00    +0.000 A 
ATOM      7  C   UNL     1       5.433   6.457  16.377  0.00  0.00    +0.000 A 
ATOM      8  C   UNL     1       6.151   5.292  16.576  0.00  0.00    +0.000 A 
ATOM      9  C   UNL     1       5.724   4.470  17.608  0.00  0.00    +0.000 A 
ATOM     10  N   UNL     1       4.690   4.758  18.455  0.00  0.00    +0.000 NA
ATOM     11  C   UNL     1       2.407   7.566  19.198  0.00  0.00    +0.000 C 
ENDROOT
BRANCH   1  12
ATOM     12  O   UNL     1       1.754   8.332  21.471  0.00  0.00    +0.000 OA
BRANCH  12  16
ATOM     13  C   UNL     1      -0.876  11.529  22.231  0.00  0.00    +0.000 A 
ATOM     14  C   UNL     1       0.015  11.543  21.150  0.00  0.00    +0.000 A 
ATOM     15  C   UNL     1       0.886  10.461  20.928  0.00  0.00    +0.000 A 
ATOM     16  C   UNL     1       0.895   9.357  21.790  0.00  0.00    +0.000 A 
ATOM     17  C   UNL     1       0.010   9.345  22.867  0.00  0.00    +0.000 A 
ATOM     18  C   UNL     1      -0.864  10.413  23.082  0.00  0.00    +0.000 A 
BRANCH  13  19
ATOM     19  C   UNL     1      -1.864  12.663  22.478  0.00  0.00    +0.000 C 
ATOM     20  C   UNL     1      -3.115  12.479  21.610  0.00  0.00    +0.000 C 
BRANCH  19  24
ATOM     21  C   UNL     1      -0.105  16.030  22.636  0.00  0.00    +0.000 C 
ATOM     22  C   UNL     1      -0.764  14.793  23.186  0.00  0.00    +0.000 C 
ATOM     23  O   UNL     1      -0.895  14.597  24.387  0.00  0.00    +0.000 OA
ATOM     24  N   UNL     1      -1.197  13.934  22.204  0.00  0.00    +0.000 N 
ATOM     25  H   UNL     1      -0.850  14.081  21.264  0.00  0.00    +0.000 HD
ENDBRANCH  19  24
ENDBRANCH  13  19
ENDBRANCH  12  16
ENDBRANCH   1  12
BRANCH   8  26
ATOM     26  O   UNL     1       7.215   4.879  15.820  0.00  0.00    +0.000 OA
BRANCH  26  27
ATOM     27  C   UNL     1       7.029   4.997  14.405  0.00  0.00    +0.000 C 
BRANCH  27  28
ATOM     28  C   UNL     1       6.300   3.794  13.887  0.00  0.00    +0.000 C 
ATOM     29  C   UNL     1       5.092   3.944  12.997  0.00  0.00    +0.000 C 
ATOM     30  C   UNL     1       6.388   3.449  12.418  0.00  0.00    +0.000 C 
ENDBRANCH  27  28
ENDBRANCH  26  27
ENDBRANCH   8  26
TORSDOF 7
ENDMDL
MODEL 3
REMARK VINA RESULT:      -7.7      2.006     11.302
REMARK  Name = 
REMARK  9 active torsions:
REMARK  status: ('A' for Active; 'I' for Inactive)
REMARK    1  A    between atoms: C_1  and  C_2
REMARK    2  A    between atoms: N_4  and  C_5
REMARK    3  A    between atoms: C_5  and  C_6
REMARK    4  A    between atoms: C_5  and  C_7
REMARK    5  A    between atoms: C_10  and  O_11
REMARK    6  A    between atoms: O_11  and  C_12
REMARK    7  A    between atoms: C_19  and  O_20
REMARK    8  A    between atoms: O_20  and  C_21
REMARK    9  A    between atoms: C_21  and  C_22
REMARK                            x       y       z     vdW  Elec       q    Type
REMARK                         _______ _______ _______ _____ _____    ______ ____
ROOT
ATOM      1  C   UNL     1       1.841   6.663  20.034  0.00  0.00    +0.000 C 
ATOM      2  C   UNL     1       2.291   5.309  20.597  0.00  0.00    +0.000 C 
ATOM      3  C   UNL     1       3.654   5.024  19.960  0.00  0.00    +0.000 C 
ATOM      4  N   UNL     1       3.558   5.685  18.673  0.00  0.00    +0.000 N 
ATOM      5  C   UNL     1       4.551   5.579  17.726  0.00  0.00    +0.000 A 
ATOM      6  C   UNL     1       4.484   6.324  16.548  0.00  0.00    +0.000 A 
ATOM      7  C   UNL     1       5.470   6.213  15.568  0.00  0.00    +0.000 A 
ATOM      8  C   UNL     1       6.532   5.347  15.762  0.00  0.00    +0.000 A 
ATOM      9  C   UNL     1       6.518   4.604  16.933  0.00  0.00    +0.000 A 
ATOM     10  N   UNL     1       5.567   4.708  17.909  0.00  0.00    +0.000 NA
ATOM     11  C   UNL     1       2.651   6.821  18.734  0.00  0.00    +0.000 C 
ENDROOT
BRANCH   1  12
ATOM     12  O   UNL     1       2.100   7.703  20.992  0.00  0.00    +0.000 OA
BRANCH  12  16
ATOM     13  C   UNL     1      -0.618  10.907  21.243  0.00  0.00    +0.000 A 
ATOM     14  C   UNL     1      -0.379  10.050  22.325  0.00  0.00    +0.000 A 
ATOM     15  C   UNL     1       0.531   8.984  22.206  0.00  0.00    +0.000 A 
ATOM     16  C   UNL     1       1.202   8.745  21.001  0.00  0.00    +0.000 A 
ATOM     17  C   UNL     1       0.964   9.595  19.924  0.00  0.00    +0.000 A 
ATOM     18  C   UNL     1       0.069  10.662  20.044  0.00  0.00    +0.000 A 
BRANCH  13  19
ATOM     19  C   UNL     1      -1.563  12.097  21.349  0.00  0.00    +0.000 C 
ATOM     20  C   UNL     1      -0.815  13.402  21.047  0.00  0.00    +0.000 C 
BRANCH  19  24
ATOM     21  C   UNL     1      -3.809  12.424  24.398  0.00  0.00    +0.000 C 
ATOM     22  C   UNL     1      -3.445  12.514  22.940  0.00  0.00    +0.000 C 
ATOM     23  O   UNL     1      -4.229  12.916  22.090  0.00  0.00    +0.000 OA
ATOM     24  N   UNL     1      -2.156  12.109  22.684  0.00  0.00    +0.000 N 
ATOM     25  H   UNL     1      -1.671  11.596  23.409  0.00  0.00    +0.000 HD
ENDBRANCH  19  24
ENDBRANCH  13  19
ENDBRANCH  12  16
ENDBRANCH   1  12
BRANCH   8  26
ATOM     26  O   UNL     1       7.561   5.147  14.882  0.00  0.00    +0.000 OA
BRANCH  26  27
ATOM     27  C   UNL     1       7.160   4.950  13.522  0.00  0.00    +0.000 C 
BRANCH  27  28
ATOM     28  C   UNL     1       6.313   3.717  13.417  0.00  0.00    +0.000 C 
ATOM     29  C   UNL     1       5.086   3.692  12.541  0.00  0.00    +0.000 C 
ATOM     30  C   UNL     1       6.312   2.925  12.129  0.00  0.00    +0.000 C 
ENDBRANCH  27  28
ENDBRANCH  26  27
ENDBRANCH   8  26
TORSDOF 7
ENDMDL
MODEL 4
REMARK VINA RESULT:      -7.6      2.127     11.251
REMARK  Name = 
REMARK  9 active torsions:
REMARK  status: ('A' for Active; 'I' for Inactive)
REMARK    1  A    between atoms: C_1  and  C_2
REMARK    2  A    between atoms: N_4  and  C_5
REMARK    3  A    between atoms: C_5  and  C_6
REMARK    4  A    between atoms: C_5  and  C_7
REMARK    5  A    between atoms: C_10  and  O_11
REMARK    6  A    between atoms: O_11  and  C_12
REMARK    7  A    between atoms: C_19  and  O_20
REMARK    8  A    between atoms: O_20  and  C_21
REMARK    9  A    between atoms: C_21  and  C_22
REMARK                            x       y       z     vdW  Elec       q    Type
REMARK                         _______ _______ _______ _____ _____    ______ ____
ROOT
ATOM      1  C   UNL     1       1.430   7.154  20.362  0.00  0.00    +0.000 C 
ATOM      2  C   UNL     1       1.501   5.683  20.789  0.00  0.00    +0.000 C 
ATOM      3  C   UNL     1       2.844   5.161  20.272  0.00  0.00    +0.000 C 
ATOM      4  N   UNL     1       3.067   5.956  19.080  0.00  0.00    +0.000 N 
ATOM      5  C   UNL     1       4.133   5.725  18.241  0.00  0.00    +0.000 A 
ATOM      6  C   UNL     1       4.387   6.583  17.170  0.00  0.00    +0.000 A 
ATOM      7  C   UNL     1       5.450   6.352  16.298  0.00  0.00    +0.000 A 
ATOM      8  C   UNL     1       6.265   5.251  16.491  0.00  0.00    +0.000 A 
ATOM      9  C   UNL     1       5.934   4.414  17.545  0.00  0.00    +0.000 A 
ATOM     10  N   UNL     1       4.904   4.631  18.418  0.00  0.00    +0.000 NA
ATOM     11  C   UNL     1       2.423   7.257  19.190  0.00  0.00    +0.000 C 
ENDROOT
BRANCH   1  12
ATOM     12  O   UNL     1       1.774   8.003  21.471  0.00  0.00    +0.000 OA
BRANCH  12  16
ATOM     13  C   UNL     1      -0.646  11.361  22.233  0.00  0.00    +0.000 A 
ATOM     14  C   UNL     1      -0.530  10.307  23.149  0.00  0.00    +0.000 A 
ATOM     15  C   UNL     1       0.282   9.196  22.860  0.00  0.00    +0.000 A 
ATOM     16  C   UNL     1       0.976   9.109  21.647  0.00  0.00    +0.000 A 
ATOM     17  C   UNL     1       0.859  10.156  20.735  0.00  0.00    +0.000 A 
ATOM     18  C   UNL     1       0.062  11.266  21.025  0.00  0.00    +0.000 A 
BRANCH  13  19
ATOM     19  C   UNL     1      -1.482  12.600  22.530  0.00  0.00    +0.000 C 
ATOM     20  C   UNL     1      -2.937  12.206  22.815  0.00  0.00    +0.000 C 
BRANCH  19  24
ATOM     21  C   UNL     1      -1.174  15.594  20.207  0.00  0.00    +0.000 C 
ATOM     22  C   UNL     1      -1.266  14.880  21.530  0.00  0.00    +0.000 C 
ATOM     23  O   UNL     1      -1.246  15.474  22.600  0.00  0.00    +0.000 OA
ATOM     24  N   UNL     1      -1.382  13.517  21.397  0.00  0.00    +0.000 N 
ATOM     25  H   UNL     1      -1.170  13.113  20.493  0.00  0.00    +0.000 HD
ENDBRANCH  19  24
ENDBRANCH  13  19
ENDBRANCH  12  16
ENDBRANCH   1  12
BRANCH   8  26
ATOM     26  O   UNL     1       7.337   4.914  15.710  0.00  0.00    +0.000 OA
BRANCH  26  27
ATOM     27  C   UNL     1       7.105   4.999  14.300  0.00  0.00    +0.000 C 
BRANCH  27  28
ATOM     28  C   UNL     1       6.373   3.777  13.832  0.00  0.00    +0.000 C 
ATOM     29  C   UNL     1       5.106   3.895  13.023  0.00  0.00    +0.000 C 
ATOM     30  C   UNL     1       6.373   3.431  12.360  0.00  0.00    +0.000 C 
ENDBRANCH  27  28
ENDBRANCH  26  27
ENDBRANCH   8  26
TORSDOF 7
ENDMDL
MODEL 5
REMARK VINA RESULT:      -7.5      2.784     10.411
REMARK  Name = 
REMARK  9 active torsions:
REMARK  status: ('A' for Active; 'I' for Inactive)
REMARK    1  A    between atoms: C_1  and  C_2
REMARK    2  A    between atoms: N_4  and  C_5
REMARK    3  A    between atoms: C_5  and  C_6
REMARK    4  A    between atoms: C_5  and  C_7
REMARK    5  A    between atoms: C_10  and  O_11
REMARK    6  A    between atoms: O_11  and  C_12
REMARK    7  A    between atoms: C_19  and  O_20
REMARK    8  A    between atoms: O_20  and  C_21
REMARK    9  A    between atoms: C_21  and  C_22
REMARK                            x       y       z     vdW  Elec       q    Type
REMARK                         _______ _______ _______ _____ _____    ______ ____
ROOT
ATOM      1  C   UNL     1       1.780   6.774  19.682  0.00  0.00    +0.000 C 
ATOM      2  C   UNL     1       2.313   5.556  20.447  0.00  0.00    +0.000 C 
ATOM      3  C   UNL     1       3.699   5.268  19.864  0.00  0.00    +0.000 C 
ATOM      4  N   UNL     1       3.574   5.715  18.490  0.00  0.00    +0.000 N 
ATOM      5  C   UNL     1       4.582   5.531  17.571  0.00  0.00    +0.000 A 
ATOM      6  C   UNL     1       4.480   6.079  16.292  0.00  0.00    +0.000 A 
ATOM      7  C   UNL     1       5.482   5.885  15.342  0.00  0.00    +0.000 A 
ATOM      8  C   UNL     1       6.596   5.132  15.669  0.00  0.00    +0.000 A 
ATOM      9  C   UNL     1       6.618   4.579  16.941  0.00  0.00    +0.000 A 
ATOM     10  N   UNL     1       5.651   4.769  17.889  0.00  0.00    +0.000 NA
ATOM     11  C   UNL     1       2.592   6.783  18.374  0.00  0.00    +0.000 C 
ENDROOT
BRANCH   1  12
ATOM     12  O   UNL     1       1.959   7.964  20.468  0.00  0.00    +0.000 OA
BRANCH  12  16
ATOM     13  C   UNL     1      -0.452  11.186  19.235  0.00  0.00    +0.000 A 
ATOM     14  C   UNL     1       0.671  10.778  18.504  0.00  0.00    +0.000 A 
ATOM     15  C   UNL     1       1.460   9.701  18.947  0.00  0.00    +0.000 A 
ATOM     16  C   UNL     1       1.153   9.027  20.135  0.00  0.00    +0.000 A 
ATOM     17  C   UNL     1       0.037   9.434  20.864  0.00  0.00    +0.000 A 
ATOM     18  C   UNL     1      -0.755  10.496  20.418  0.00  0.00    +0.000 A 
BRANCH  13  19
ATOM     19  C   UNL     1      -1.355  12.320  18.763  0.00  0.00    +0.000 C 
ATOM     20  C   UNL     1      -2.546  12.486  19.715  0.00  0.00    +0.000 C 
BRANCH  19  24
ATOM     21  C   UNL     1      -2.934  10.940  15.592  0.00  0.00    +0.000 C 
ATOM     22  C   UNL     1      -2.641  11.009  17.067  0.00  0.00    +0.000 C 
ATOM     23  O   UNL     1      -3.117  10.217  17.870  0.00  0.00    +0.000 OA
ATOM     24  N   UNL     1      -1.789  12.037  17.397  0.00  0.00    +0.000 N 
ATOM     25  H   UNL     1      -1.630  12.757  16.703  0.00  0.00    +0.000 HD
ENDBRANCH  19  24
ENDBRANCH  13  19
ENDBRANCH  12  16
ENDBRANCH   1  12
BRANCH   8  26
ATOM     26  O   UNL     1       7.646   4.869  14.832  0.00  0.00    +0.000 OA
BRANCH  26  27
ATOM     27  C   UNL     1       7.298   4.753  13.448  0.00  0.00    +0.000 C 
BRANCH  27  28
ATOM     28  C   UNL     1       6.362   3.597  13.256  0.00  0.00    +0.000 C 
ATOM     29  C   UNL     1       5.195   3.695  12.305  0.00  0.00    +0.000 C 
ATOM     30  C   UNL     1       6.379   2.840  11.947  0.00  0.00    +0.000 C 
ENDBRANCH  27  28
ENDBRANCH  26  27
ENDBRANCH   8  26
TORSDOF 7
ENDMDL
MODEL 6
REMARK VINA RESULT:      -7.4      2.165     10.873
REMARK  Name = 
REMARK  9 active torsions:
REMARK  status: ('A' for Active; 'I' for Inactive)
REMARK    1  A    between atoms: C_1  and  C_2
REMARK    2  A    between atoms: N_4  and  C_5
REMARK    3  A    between atoms: C_5  and  C_6
REMARK    4  A    between atoms: C_5  and  C_7
REMARK    5  A    between atoms: C_10  and  O_11
REMARK    6  A    between atoms: O_11  and  C_12
REMARK    7  A    between atoms: C_19  and  O_20
REMARK    8  A    between atoms: O_20  and  C_21
REMARK    9  A    between atoms: C_21  and  C_22
REMARK                            x       y       z     vdW  Elec       q    Type
REMARK                         _______ _______ _______ _____ _____    ______ ____
ROOT
ATOM      1  C   UNL     1       1.526   6.724  20.216  0.00  0.00    +0.000 C 
ATOM      2  C   UNL     1       1.760   5.270  20.644  0.00  0.00    +0.000 C 
ATOM      3  C   UNL     1       3.130   4.883  20.081  0.00  0.00    +0.000 C 
ATOM      4  N   UNL     1       3.228   5.687  18.879  0.00  0.00    +0.000 N 
ATOM      5  C   UNL     1       4.281   5.559  18.002  0.00  0.00    +0.000 A 
ATOM      6  C   UNL     1       4.409   6.431  16.920  0.00  0.00    +0.000 A 
ATOM      7  C   UNL     1       5.458   6.301  16.011  0.00  0.00    +0.000 A 
ATOM      8  C   UNL     1       6.386   5.289  16.178  0.00  0.00    +0.000 A 
ATOM      9  C   UNL     1       6.180   4.430  17.247  0.00  0.00    +0.000 A 
ATOM     10  N   UNL     1       5.165   4.549  18.155  0.00  0.00    +0.000 NA
ATOM     11  C   UNL     1       2.461   6.917  19.008  0.00  0.00    +0.000 C 
ENDROOT
BRANCH   1  12
ATOM     12  O   UNL     1       1.822   7.611  21.308  0.00  0.00    +0.000 OA
BRANCH  12  16
ATOM     13  C   UNL     1      -0.356  11.208  21.132  0.00  0.00    +0.000 A 
ATOM     14  C   UNL     1       0.281  10.670  20.006  0.00  0.00    +0.000 A 
ATOM     15  C   UNL     1       1.006   9.469  20.100  0.00  0.00    +0.000 A 
ATOM     16  C   UNL     1       1.125   8.796  21.322  0.00  0.00    +0.000 A 
ATOM     17  C   UNL     1       0.494   9.332  22.443  0.00  0.00    +0.000 A 
ATOM     18  C   UNL     1      -0.237  10.518  22.348  0.00  0.00    +0.000 A 
BRANCH  13  19
ATOM     19  C   UNL     1      -1.186  12.484  21.058  0.00  0.00    +0.000 C 
ATOM     20  C   UNL     1      -2.477  12.235  20.267  0.00  0.00    +0.000 C 
BRANCH  19  24
ATOM     21  C   UNL     1       1.239  15.311  20.297  0.00  0.00    +0.000 C 
ATOM     22  C   UNL     1       0.531  14.297  21.157  0.00  0.00    +0.000 C 
ATOM     23  O   UNL     1       0.750  14.185  22.356  0.00  0.00    +0.000 OA
ATOM     24  N   UNL     1      -0.375  13.538  20.455  0.00  0.00    +0.000 N 
ATOM     25  H   UNL     1      -0.323  13.559  19.444  0.00  0.00    +0.000 HD
ENDBRANCH  19  24
ENDBRANCH  13  19
ENDBRANCH  12  16
ENDBRANCH   1  12
BRANCH   8  26
ATOM     26  O   UNL     1       7.459   5.056  15.360  0.00  0.00    +0.000 OA
BRANCH  26  27
ATOM     27  C   UNL     1       7.154   5.033  13.961  0.00  0.00    +0.000 C 
BRANCH  27  28
ATOM     28  C   UNL     1       6.378   3.793  13.631  0.00  0.00    +0.000 C 
ATOM     29  C   UNL     1       5.119   3.864  12.804  0.00  0.00    +0.000 C 
ATOM     30  C   UNL     1       6.370   3.279  12.210  0.00  0.00    +0.000 C 
ENDBRANCH  27  28
ENDBRANCH  26  27
ENDBRANCH   8  26
TORSDOF 7
ENDMDL
MODEL 7
REMARK VINA RESULT:      -7.3      2.373     11.660
REMARK  Name = 
REMARK  9 active torsions:
REMARK  status: ('A' for Active; 'I' for Inactive)
REMARK    1  A    between atoms: C_1  and  C_2
REMARK    2  A    between atoms: N_4  and  C_5
REMARK    3  A    between atoms: C_5  and  C_6
REMARK    4  A    between atoms: C_5  and  C_7
REMARK    5  A    between atoms: C_10  and  O_11
REMARK    6  A    between atoms: O_11  and  C_12
REMARK    7  A    between atoms: C_19  and  O_20
REMARK    8  A    between atoms: O_20  and  C_21
REMARK    9  A    between atoms: C_21  and  C_22
REMARK                            x       y       z     vdW  Elec       q    Type
REMARK                         _______ _______ _______ _____ _____    ______ ____
ROOT
ATOM      1  C   UNL     1       0.434   9.117  20.180  0.00  0.00    +0.000 C 
ATOM      2  C   UNL     1       0.214   7.875  21.052  0.00  0.00    +0.000 C 
ATOM      3  C   UNL     1       1.511   7.066  20.964  0.00  0.00    +0.000 C 
ATOM      4  N   UNL     1       2.006   7.386  19.639  0.00  0.00    +0.000 N 
ATOM      5  C   UNL     1       3.119   6.772  19.111  0.00  0.00    +0.000 A 
ATOM      6  C   UNL     1       3.640   7.189  17.886  0.00  0.00    +0.000 A 
ATOM      7  C   UNL     1       4.754   6.563  17.326  0.00  0.00    +0.000 A 
ATOM      8  C   UNL     1       5.351   5.508  17.992  0.00  0.00    +0.000 A 
ATOM      9  C   UNL     1       4.760   5.113  19.183  0.00  0.00    +0.000 A 
ATOM     10  N   UNL     1       3.677   5.722  19.753  0.00  0.00    +0.000 NA
ATOM     11  C   UNL     1       1.571   8.711  19.224  0.00  0.00    +0.000 C 
ENDROOT
BRANCH   1  12
ATOM     12  O   UNL     1       0.767  10.245  21.008  0.00  0.00    +0.000 OA
BRANCH  12  16
ATOM     13  C   UNL     1      -2.581  12.381  22.401  0.00  0.00    +0.000 A 
ATOM     14  C   UNL     1      -2.100  12.526  21.093  0.00  0.00    +0.000 A 
ATOM     15  C   UNL     1      -0.975  11.802  20.661  0.00  0.00    +0.000 A 
ATOM     16  C   UNL     1      -0.299  10.937  21.531  0.00  0.00    +0.000 A 
ATOM     17  C   UNL     1      -0.775  10.795  22.833  0.00  0.00    +0.000 A 
ATOM     18  C   UNL     1      -1.901  11.504  23.260  0.00  0.00    +0.000 A 
BRANCH  13  19
ATOM     19  C   UNL     1      -3.822  13.116  22.891  0.00  0.00    +0.000 C 
ATOM     20  C   UNL     1      -3.810  13.223  24.422  0.00  0.00    +0.000 C 
BRANCH  19  24
ATOM     21  C   UNL     1      -7.123  12.069  21.322  0.00  0.00    +0.000 C 
ATOM     22  C   UNL     1      -6.022  13.021  21.709  0.00  0.00    +0.000 C 
ATOM     23  O   UNL     1      -6.053  14.211  21.426  0.00  0.00    +0.000 OA
ATOM     24  N   UNL     1      -5.007  12.412  22.407  0.00  0.00    +0.000 N 
ATOM     25  H   UNL     1      -4.970  11.400  22.398  0.00  0.00    +0.000 HD
ENDBRANCH  19  24
ENDBRANCH  13  19
ENDBRANCH  12  16
ENDBRANCH   1  12
BRANCH   8  26
ATOM     26  O   UNL     1       6.445   4.813  17.553  0.00  0.00    +0.000 OA
BRANCH  26  27
ATOM     27  C   UNL     1       6.947   5.224  16.277  0.00  0.00    +0.000 C 
BRANCH  27  28
ATOM     28  C   UNL     1       6.640   4.176  15.249  0.00  0.00    +0.000 C 
ATOM     29  C   UNL     1       5.403   4.270  14.392  0.00  0.00    +0.000 C 
ATOM     30  C   UNL     1       6.754   4.520  13.782  0.00  0.00    +0.000 C 
ENDBRANCH  27  28
ENDBRANCH  26  27
ENDBRANCH   8  26
TORSDOF 7
ENDMDL
MODEL 8
REMARK VINA RESULT:      -7.2      1.009      1.405
REMARK  Name = 
REMARK  9 active torsions:
REMARK  status: ('A' for Active; 'I' for Inactive)
REMARK    1  A    between atoms: C_1  and  C_2
REMARK    2  A    between atoms: N_4  and  C_5
REMARK    3  A    between atoms: C_5  and  C_6
REMARK    4  A    between atoms: C_5  and  C_7
REMARK    5  A    between atoms: C_10  and  O_11
REMARK    6  A    between atoms: O_11  and  C_12
REMARK    7  A    between atoms: C_19  and  O_20
REMARK    8  A    between atoms: O_20  and  C_21
REMARK    9  A    between atoms: C_21  and  C_22
REMARK                            x       y       z     vdW  Elec       q    Type
REMARK                         _______ _______ _______ _____ _____    ______ ____
ROOT
ATOM      1  C   UNL     1       3.292   5.402  18.974  0.00  0.00    +0.000 C 
ATOM      2  C   UNL     1       2.413   5.807  17.783  0.00  0.00    +0.000 C 
ATOM      3  C   UNL     1       1.938   7.232  18.080  0.00  0.00    +0.000 C 
ATOM      4  N   UNL     1       1.882   7.264  19.528  0.00  0.00    +0.000 N 
ATOM      5  C   UNL     1       1.390   8.351  20.213  0.00  0.00    +0.000 A 
ATOM      6  C   UNL     1       1.463   8.400  21.606  0.00  0.00    +0.000 A 
ATOM      7  C   UNL     1       0.950   9.484  22.317  0.00  0.00    +0.000 A 
ATOM      8  C   UNL     1       0.355  10.529  21.633  0.00  0.00    +0.000 A 
ATOM      9  C   UNL     1       0.275  10.402  20.255  0.00  0.00    +0.000 A 
ATOM     10  N   UNL     1       0.783   9.352  19.540  0.00  0.00    +0.000 NA
ATOM     11  C   UNL     1       2.847   6.342  20.109  0.00  0.00    +0.000 C 
ENDROOT
BRANCH   1  12
ATOM     12  O   UNL     1       4.680   5.547  18.630  0.00  0.00    +0.000 OA
BRANCH  12  16
ATOM     13  C   UNL     1       5.858   4.319  14.781  0.00  0.00    +0.000 A 
ATOM     14  C   UNL     1       5.504   5.645  15.060  0.00  0.00    +0.000 A 
ATOM     15  C   UNL     1       5.108   6.022  16.356  0.00  0.00    +0.000 A 
ATOM     16  C   UNL     1       5.041   5.079  17.389  0.00  0.00    +0.000 A 
ATOM     17  C   UNL     1       5.391   3.759  17.111  0.00  0.00    +0.000 A 
ATOM     18  C   UNL     1       5.796   3.386  15.827  0.00  0.00    +0.000 A 
BRANCH  13  19
ATOM     19  C   UNL     1       6.333   3.884  13.400  0.00  0.00    +0.000 C 
ATOM     20  C   UNL     1       7.492   4.773  12.930  0.00  0.00    +0.000 C 
BRANCH  19  24
ATOM     21  C   UNL     1       3.670   3.221  10.770  0.00  0.00    +0.000 C 
ATOM     22  C   UNL     1       4.884   2.919  11.607  0.00  0.00    +0.000 C 
ATOM     23  O   UNL     1       5.512   1.873  11.502  0.00  0.00    +0.000 OA
ATOM     24  N   UNL     1       5.203   3.935  12.476  0.00  0.00    +0.000 N 
ATOM     25  H   UNL     1       4.505   4.650  12.640  0.00  0.00    +0.000 HD
ENDBRANCH  19  24
ENDBRANCH  13  19
ENDBRANCH  12  16
ENDBRANCH   1  12
BRANCH   8  26
ATOM     26  O   UNL     1      -0.184  11.647  22.210  0.00  0.00    +0.000 OA
BRANCH  26  27
ATOM     27  C   UNL     1      -1.215  11.392  23.170  0.00  0.00    +0.000 C 
BRANCH  27  28
ATOM     28  C   UNL     1      -2.106  12.592  23.289  0.00  0.00    +0.000 C 
ATOM     29  C   UNL     1      -3.123  12.911  22.223  0.00  0.00    +0.000 C 
ATOM     30  C   UNL     1      -3.581  12.397  23.559  0.00  0.00    +0.000 C 
ENDBRANCH  27  28
ENDBRANCH  26  27
ENDBRANCH   8  26
TORSDOF 7
ENDMDL
MODEL 9
REMARK VINA RESULT:      -7.2      3.711      5.204
REMARK  Name = 
REMARK  9 active torsions:
REMARK  status: ('A' for Active; 'I' for Inactive)
REMARK    1  A    between atoms: C_1  and  C_2
REMARK    2  A    between atoms: N_4  and  C_5
REMARK    3  A    between atoms: C_5  and  C_6
REMARK    4  A    between atoms: C_5  and  C_7
REMARK    5  A    between atoms: C_10  and  O_11
REMARK    6  A    between atoms: O_11  and  C_12
REMARK    7  A    between atoms: C_19  and  O_20
REMARK    8  A    between atoms: O_20  and  C_21
REMARK    9  A    between atoms: C_21  and  C_22
REMARK                            x       y       z     vdW  Elec       q    Type
REMARK                         _______ _______ _______ _____ _____    ______ ____
ROOT
ATOM      1  C   UNL     1       1.495   9.379  19.733  0.00  0.00    +0.000 C 
ATOM      2  C   UNL     1       1.237  10.525  20.720  0.00  0.00    +0.000 C 
ATOM      3  C   UNL     1      -0.235  10.906  20.542  0.00  0.00    +0.000 C 
ATOM      4  N   UNL     1      -0.485  10.600  19.146  0.00  0.00    +0.000 N 
ATOM      5  C   UNL     1      -1.683  10.903  18.539  0.00  0.00    +0.000 A 
ATOM      6  C   UNL     1      -1.936  10.487  17.232  0.00  0.00    +0.000 A 
ATOM      7  C   UNL     1      -3.135  10.803  16.594  0.00  0.00    +0.000 A 
ATOM      8  C   UNL     1      -4.090  11.547  17.265  0.00  0.00    +0.000 A 
ATOM      9  C   UNL     1      -3.761  11.967  18.545  0.00  0.00    +0.000 A 
ATOM     10  N   UNL     1      -2.596  11.656  19.190  0.00  0.00    +0.000 NA
ATOM     11  C   UNL     1       0.379   9.525  18.684  0.00  0.00    +0.000 C 
ENDROOT
BRANCH   1  12
ATOM     12  O   UNL     1       1.461   8.119  20.425  0.00  0.00    +0.000 OA
BRANCH  12  16
ATOM     13  C   UNL     1       3.225   4.770  18.586  0.00  0.00    +0.000 A 
ATOM     14  C   UNL     1       2.587   4.683  19.830  0.00  0.00    +0.000 A 
ATOM     15  C   UNL     1       2.013   5.823  20.421  0.00  0.00    +0.000 A 
ATOM     16  C   UNL     1       2.083   7.071  19.790  0.00  0.00    +0.000 A 
ATOM     17  C   UNL     1       2.719   7.158  18.553  0.00  0.00    +0.000 A 
ATOM     18  C   UNL     1       3.279   6.024  17.959  0.00  0.00    +0.000 A 
BRANCH  13  19
ATOM     19  C   UNL     1       3.820   3.548  17.896  0.00  0.00    +0.000 C 
ATOM     20  C   UNL     1       3.911   2.373  18.878  0.00  0.00    +0.000 C 
BRANCH  19  24
ATOM     21  C   UNL     1       7.423   4.618  17.326  0.00  0.00    +0.000 C 
ATOM     22  C   UNL     1       6.186   4.317  18.131  0.00  0.00    +0.000 C 
ATOM     23  O   UNL     1       6.147   4.442  19.348  0.00  0.00    +0.000 OA
ATOM     24  N   UNL     1       5.129   3.904  17.355  0.00  0.00    +0.000 N 
ATOM     25  H   UNL     1       5.325   3.627  16.401  0.00  0.00    +0.000 HD
ENDBRANCH  19  24
ENDBRANCH  13  19
ENDBRANCH  12  16
ENDBRANCH   1  12
BRANCH   8  26
ATOM     26  O   UNL     1      -5.303  11.921  16.754  0.00  0.00    +0.000 OA
BRANCH  26  27
ATOM     27  C   UNL     1      -6.125  12.679  17.649  0.00  0.00    +0.000 C 
BRANCH  27  28
ATOM     28  C   UNL     1      -7.240  11.819  18.165  0.00  0.00    +0.000 C 
ATOM     29  C   UNL     1      -6.954  10.504  18.845  0.00  0.00    +0.000 C 
ATOM     30  C   UNL     1      -7.435  11.674  19.657  0.00  0.00    +0.000 C 
ENDBRANCH  27  28
ENDBRANCH  26  27
ENDBRANCH   8  26
TORSDOF 7
ENDMDL
