MODEL 1
REMARK VINA RESULT:      -6.9      0.000      0.000
REMARK  Name = 
REMARK  4 active torsions:
REMARK  status: ('A' for Active; 'I' for Inactive)
REMARK    1  A    between atoms: C_2  and  C_3
REMARK    2  A    between atoms: C_2  and  C_16
REMARK    3  A    between atoms: C_3  and  S_4
REMARK    4  A    between atoms: S_4  and  C_5
REMARK                            x       y       z     vdW  Elec       q    Type
REMARK                         _______ _______ _______ _____ _____    ______ ____
ROOT
ATOM      1  C   UNL     1       3.719   5.536  17.500  0.00  0.00    +0.000 A 
ATOM      2  C   UNL     1       3.963   4.146  17.414  0.00  0.00    +0.000 A 
ATOM      3 CL   UNL     1       5.059   3.514  16.211  0.00  0.00    +0.000 Cl
ATOM      4  C   UNL     1       3.365   3.249  18.327  0.00  0.00    +0.000 A 
ATOM      5 CL   UNL     1       3.645   1.534  18.175  0.00  0.00    +0.000 Cl
ATOM      6  C   UNL     1       2.562   3.738  19.370  0.00  0.00    +0.000 A 
ATOM      7 CL   UNL     1       1.898   2.634  20.547  0.00  0.00    +0.000 Cl
ATOM      8  C   UNL     1       2.323   5.116  19.483  0.00  0.00    +0.000 A 
ATOM      9 CL   UNL     1       1.363   5.723  20.808  0.00  0.00    +0.000 Cl
ATOM     10  C   UNL     1       2.884   6.011  18.547  0.00  0.00    +0.000 A 
ATOM     11 CL   UNL     1       2.548   7.720  18.695  0.00  0.00    +0.000 Cl
ENDROOT
BRANCH   1  12
ATOM     12  S   UNL     1       4.571   6.739  16.426  0.00  0.00    +0.000 S 
BRANCH  12  13
ATOM     13  C   UNL     1       6.073   7.160  17.372  0.00  0.00    +0.000 C 
BRANCH  13  15
ATOM     14  O   UNL     1       7.651   6.010  16.009  0.00  0.00    +0.000 OA
ATOM     15  C   UNL     1       7.167   6.153  17.139  0.00  0.00    +0.000 C 
BRANCH  15  16
ATOM     16  C   UNL     1       7.619   5.357  18.350  0.00  0.00    +0.000 C 
ATOM     17  F   UNL     1       6.587   4.961  19.144  0.00  0.00    +0.000 F 
ATOM     18  F   UNL     1       8.276   4.220  17.994  0.00  0.00    +0.000 F 
ATOM     19  F   UNL     1       8.464   6.063  19.149  0.00  0.00    +0.000 F 
ENDBRANCH  15  16
ENDBRANCH  13  15
ENDBRANCH  12  13
ENDBRANCH   1  12
TORSDOF 4
ENDMDL
MODEL 2
REMARK VINA RESULT:      -6.8      0.178      2.752
REMARK  Name = 
REMARK  4 active torsions:
REMARK  status: ('A' for Active; 'I' for Inactive)
REMARK    1  A    between atoms: C_2  and  C_3
REMARK    2  A    between atoms: C_2  and  C_16
REMARK    3  A    between atoms: C_3  and  S_4
REMARK    4  A    between atoms: S_4  and  C_5
REMARK                            x       y       z     vdW  Elec       q    Type
REMARK                         _______ _______ _______ _____ _____    ______ ____
ROOT
ATOM      1  C   UNL     1       3.796   5.524  17.644  0.00  0.00    +0.000 A 
ATOM      2  C   UNL     1       2.882   5.959  18.632  0.00  0.00    +0.000 A 
ATOM      3 CL   UNL     1       2.481   7.650  18.781  0.00  0.00    +0.000 Cl
ATOM      4  C   UNL     1       2.241   5.030  19.482  0.00  0.00    +0.000 A 
ATOM      5 CL   UNL     1       1.151   5.591  20.722  0.00  0.00    +0.000 Cl
ATOM      6  C   UNL     1       2.465   3.654  19.316  0.00  0.00    +0.000 A 
ATOM      7 CL   UNL     1       1.603   2.507  20.309  0.00  0.00    +0.000 Cl
ATOM      8  C   UNL     1       3.355   3.202  18.329  0.00  0.00    +0.000 A 
ATOM      9 CL   UNL     1       3.594   1.489  18.096  0.00  0.00    +0.000 Cl
ATOM     10  C   UNL     1       4.030   4.130  17.507  0.00  0.00    +0.000 A 
ATOM     11 CL   UNL     1       5.154   3.542  16.304  0.00  0.00    +0.000 Cl
ENDROOT
BRANCH   1  12
ATOM     12  S   UNL     1       4.546   6.674  16.443  0.00  0.00    +0.000 S 
BRANCH  12  13
ATOM     13  C   UNL     1       6.061   7.237  17.287  0.00  0.00    +0.000 C 
BRANCH  13  15
ATOM     14  O   UNL     1       7.682   6.037  16.019  0.00  0.00    +0.000 OA
ATOM     15  C   UNL     1       7.178   6.240  17.132  0.00  0.00    +0.000 C 
BRANCH  15  16
ATOM     16  C   UNL     1       7.627   5.529  18.395  0.00  0.00    +0.000 C 
ATOM     17  F   UNL     1       6.602   5.263  19.251  0.00  0.00    +0.000 F 
ATOM     18  F   UNL     1       8.209   4.329  18.124  0.00  0.00    +0.000 F 
ATOM     19  F   UNL     1       8.535   6.252  19.103  0.00  0.00    +0.000 F 
ENDBRANCH  15  16
ENDBRANCH  13  15
ENDBRANCH  12  13
ENDBRANCH   1  12
TORSDOF 4
ENDMDL
MODEL 3
REMARK VINA RESULT:      -6.7      1.156      1.817
REMARK  Name = 
REMARK  4 active torsions:
REMARK  status: ('A' for Active; 'I' for Inactive)
REMARK    1  A    between atoms: C_2  and  C_3
REMARK    2  A    between atoms: C_2  and  C_16
REMARK    3  A    between atoms: C_3  and  S_4
REMARK    4  A    between atoms: S_4  and  C_5
REMARK                            x       y       z     vdW  Elec       q    Type
REMARK                         _______ _______ _______ _____ _____    ______ ____
ROOT
ATOM      1  C   UNL     1       3.959   4.484  17.286  0.00  0.00    +0.000 A 
ATOM      2  C   UNL     1       3.393   3.378  17.960  0.00  0.00    +0.000 A 
ATOM      3 CL   UNL     1       3.871   1.751  17.545  0.00  0.00    +0.000 Cl
ATOM      4  C   UNL     1       2.470   3.568  19.013  0.00  0.00    +0.000 A 
ATOM      5 CL   UNL     1       1.752   2.189  19.803  0.00  0.00    +0.000 Cl
ATOM      6  C   UNL     1       2.147   4.866  19.439  0.00  0.00    +0.000 A 
ATOM      7 CL   UNL     1       1.075   5.094  20.798  0.00  0.00    +0.000 Cl
ATOM      8  C   UNL     1       2.712   5.977  18.794  0.00  0.00    +0.000 A 
ATOM      9 CL   UNL     1       2.342   7.587  19.357  0.00  0.00    +0.000 Cl
ATOM     10  C   UNL     1       3.600   5.791  17.713  0.00  0.00    +0.000 A 
ATOM     11 CL   UNL     1       4.268   7.192  16.909  0.00  0.00    +0.000 Cl
ENDROOT
BRANCH   1  12
ATOM     12  S   UNL     1       5.248   4.288  16.011  0.00  0.00    +0.000 S 
BRANCH  12  13
ATOM     13  C   UNL     1       6.793   4.232  16.979  0.00  0.00    +0.000 C 
BRANCH  13  15
ATOM     14  O   UNL     1       7.552   6.370  16.255  0.00  0.00    +0.000 OA
ATOM     15  C   UNL     1       7.345   5.612  17.212  0.00  0.00    +0.000 C 
BRANCH  15  16
ATOM     16  C   UNL     1       7.617   5.994  18.656  0.00  0.00    +0.000 C 
ATOM     17  F   UNL     1       6.507   5.936  19.442  0.00  0.00    +0.000 F 
ATOM     18  F   UNL     1       8.531   5.170  19.236  0.00  0.00    +0.000 F 
ATOM     19  F   UNL     1       8.101   7.259  18.775  0.00  0.00    +0.000 F 
ENDBRANCH  15  16
ENDBRANCH  13  15
ENDBRANCH  12  13
ENDBRANCH   1  12
TORSDOF 4
ENDMDL
MODEL 4
REMARK VINA RESULT:      -6.6      1.155      2.893
REMARK  Name = 
REMARK  4 active torsions:
REMARK  status: ('A' for Active; 'I' for Inactive)
REMARK    1  A    between atoms: C_2  and  C_3
REMARK    2  A    between atoms: C_2  and  C_16
REMARK    3  A    between atoms: C_3  and  S_4
REMARK    4  A    between atoms: S_4  and  C_5
REMARK                            x       y       z     vdW  Elec       q    Type
REMARK                         _______ _______ _______ _____ _____    ______ ____
ROOT
ATOM      1  C   UNL     1       4.085   4.569  17.425  0.00  0.00    +0.000 A 
ATOM      2  C   UNL     1       3.653   5.831  17.895  0.00  0.00    +0.000 A 
ATOM      3 CL   UNL     1       4.254   7.298  17.166  0.00  0.00    +0.000 Cl
ATOM      4  C   UNL     1       2.694   5.928  18.929  0.00  0.00    +0.000 A 
ATOM      5 CL   UNL     1       2.208   7.494  19.523  0.00  0.00    +0.000 Cl
ATOM      6  C   UNL     1       2.115   4.766  19.462  0.00  0.00    +0.000 A 
ATOM      7 CL   UNL     1       0.867   4.894  20.675  0.00  0.00    +0.000 Cl
ATOM      8  C   UNL     1       2.517   3.504  18.996  0.00  0.00    +0.000 A 
ATOM      9 CL   UNL     1       1.761   2.065  19.630  0.00  0.00    +0.000 Cl
ATOM     10  C   UNL     1       3.507   3.403  17.995  0.00  0.00    +0.000 A 
ATOM     11 CL   UNL     1       4.009   1.819  17.451  0.00  0.00    +0.000 Cl
ENDROOT
BRANCH   1  12
ATOM     12  S   UNL     1       5.221   4.398  16.009  0.00  0.00    +0.000 S 
BRANCH  12  13
ATOM     13  C   UNL     1       6.866   4.326  16.794  0.00  0.00    +0.000 C 
BRANCH  13  15
ATOM     14  O   UNL     1       7.487   6.571  16.298  0.00  0.00    +0.000 OA
ATOM     15  C   UNL     1       7.356   5.700  17.167  0.00  0.00    +0.000 C 
BRANCH  15  16
ATOM     16  C   UNL     1       7.665   5.929  18.636  0.00  0.00    +0.000 C 
ATOM     17  F   UNL     1       6.560   5.873  19.429  0.00  0.00    +0.000 F 
ATOM     18  F   UNL     1       8.526   4.997  19.126  0.00  0.00    +0.000 F 
ATOM     19  F   UNL     1       8.233   7.143  18.862  0.00  0.00    +0.000 F 
ENDBRANCH  15  16
ENDBRANCH  13  15
ENDBRANCH  12  13
ENDBRANCH   1  12
TORSDOF 4
ENDMDL
MODEL 5
REMARK VINA RESULT:      -6.5      1.735      3.105
REMARK  Name = 
REMARK  4 active torsions:
REMARK  status: ('A' for Active; 'I' for Inactive)
REMARK    1  A    between atoms: C_2  and  C_3
REMARK    2  A    between atoms: C_2  and  C_16
REMARK    3  A    between atoms: C_3  and  S_4
REMARK    4  A    between atoms: S_4  and  C_5
REMARK                            x       y       z     vdW  Elec       q    Type
REMARK                         _______ _______ _______ _____ _____    ______ ____
ROOT
ATOM      1  C   UNL     1       4.291   4.821  17.865  0.00  0.00    +0.000 A 
ATOM      2  C   UNL     1       3.874   6.148  17.608  0.00  0.00    +0.000 A 
ATOM      3 CL   UNL     1       4.345   6.952  16.133  0.00  0.00    +0.000 Cl
ATOM      4  C   UNL     1       3.032   6.829  18.516  0.00  0.00    +0.000 A 
ATOM      5 CL   UNL     1       2.565   8.479  18.201  0.00  0.00    +0.000 Cl
ATOM      6  C   UNL     1       2.551   6.171  19.659  0.00  0.00    +0.000 A 
ATOM      7 CL   UNL     1       1.439   6.986  20.729  0.00  0.00    +0.000 Cl
ATOM      8  C   UNL     1       2.939   4.848  19.922  0.00  0.00    +0.000 A 
ATOM      9 CL   UNL     1       2.303   4.019  21.319  0.00  0.00    +0.000 Cl
ATOM     10  C   UNL     1       3.816   4.179  19.040  0.00  0.00    +0.000 A 
ATOM     11 CL   UNL     1       4.305   2.542  19.405  0.00  0.00    +0.000 Cl
ENDROOT
BRANCH   1  12
ATOM     12  S   UNL     1       5.271   3.862  16.662  0.00  0.00    +0.000 S 
BRANCH  12  13
ATOM     13  C   UNL     1       6.753   4.894  16.407  0.00  0.00    +0.000 C 
BRANCH  13  15
ATOM     14  O   UNL     1       8.429   4.004  17.844  0.00  0.00    +0.000 OA
ATOM     15  C   UNL     1       7.623   4.919  17.634  0.00  0.00    +0.000 C 
BRANCH  15  16
ATOM     16  C   UNL     1       7.446   6.107  18.562  0.00  0.00    +0.000 C 
ATOM     17  F   UNL     1       6.618   5.848  19.611  0.00  0.00    +0.000 F 
ATOM     18  F   UNL     1       8.627   6.507  19.107  0.00  0.00    +0.000 F 
ATOM     19  F   UNL     1       6.924   7.189  17.925  0.00  0.00    +0.000 F 
ENDBRANCH  15  16
ENDBRANCH  13  15
ENDBRANCH  12  13
ENDBRANCH   1  12
TORSDOF 4
ENDMDL
MODEL 6
REMARK VINA RESULT:      -6.5      3.860      5.176
REMARK  Name = 
REMARK  4 active torsions:
REMARK  status: ('A' for Active; 'I' for Inactive)
REMARK    1  A    between atoms: C_2  and  C_3
REMARK    2  A    between atoms: C_2  and  C_16
REMARK    3  A    between atoms: C_3  and  S_4
REMARK    4  A    between atoms: S_4  and  C_5
REMARK                            x       y       z     vdW  Elec       q    Type
REMARK                         _______ _______ _______ _____ _____    ______ ____
ROOT
ATOM      1  C   UNL     1       4.055   4.487  19.105  0.00  0.00    +0.000 A 
ATOM      2  C   UNL     1       4.543   5.037  17.897  0.00  0.00    +0.000 A 
ATOM      3 CL   UNL     1       5.579   4.098  16.853  0.00  0.00    +0.000 Cl
ATOM      4  C   UNL     1       4.163   6.335  17.489  0.00  0.00    +0.000 A 
ATOM      5 CL   UNL     1       4.810   7.011  16.017  0.00  0.00    +0.000 Cl
ATOM      6  C   UNL     1       3.247   7.074  18.255  0.00  0.00    +0.000 A 
ATOM      7 CL   UNL     1       2.712   8.639  17.701  0.00  0.00    +0.000 Cl
ATOM      8  C   UNL     1       2.737   6.537  19.448  0.00  0.00    +0.000 A 
ATOM      9 CL   UNL     1       1.565   7.439  20.373  0.00  0.00    +0.000 Cl
ATOM     10  C   UNL     1       3.149   5.258  19.881  0.00  0.00    +0.000 A 
ATOM     11 CL   UNL     1       2.521   4.625  21.384  0.00  0.00    +0.000 Cl
ENDROOT
BRANCH   1  12
ATOM     12  S   UNL     1       4.416   2.770  19.604  0.00  0.00    +0.000 S 
BRANCH  12  13
ATOM     13  C   UNL     1       3.508   1.773  18.376  0.00  0.00    +0.000 C 
BRANCH  13  15
ATOM     14  O   UNL     1       2.173   3.024  16.852  0.00  0.00    +0.000 OA
ATOM     15  C   UNL     1       2.236   2.454  17.948  0.00  0.00    +0.000 C 
BRANCH  15  16
ATOM     16  C   UNL     1       1.076   2.390  18.926  0.00  0.00    +0.000 C 
ATOM     17  F   UNL     1       0.558   3.614  19.221  0.00  0.00    +0.000 F 
ATOM     18  F   UNL     1       0.041   1.653  18.439  0.00  0.00    +0.000 F 
ATOM     19  F   UNL     1       1.430   1.831  20.113  0.00  0.00    +0.000 F 
ENDBRANCH  15  16
ENDBRANCH  13  15
ENDBRANCH  12  13
ENDBRANCH   1  12
TORSDOF 4
ENDMDL
MODEL 7
REMARK VINA RESULT:      -6.4      0.544      2.913
REMARK  Name = 
REMARK  4 active torsions:
REMARK  status: ('A' for Active; 'I' for Inactive)
REMARK    1  A    between atoms: C_2  and  C_3
REMARK    2  A    between atoms: C_2  and  C_16
REMARK    3  A    between atoms: C_3  and  S_4
REMARK    4  A    between atoms: S_4  and  C_5
REMARK                            x       y       z     vdW  Elec       q    Type
REMARK                         _______ _______ _______ _____ _____    ______ ____
ROOT
ATOM      1  C   UNL     1       3.880   5.627  17.658  0.00  0.00    +0.000 A 
ATOM      2  C   UNL     1       3.029   6.268  18.588  0.00  0.00    +0.000 A 
ATOM      3 CL   UNL     1       2.765   7.991  18.504  0.00  0.00    +0.000 Cl
ATOM      4  C   UNL     1       2.341   5.522  19.572  0.00  0.00    +0.000 A 
ATOM      5 CL   UNL     1       1.331   6.337  20.736  0.00  0.00    +0.000 Cl
ATOM      6  C   UNL     1       2.452   4.123  19.598  0.00  0.00    +0.000 A 
ATOM      7 CL   UNL     1       1.530   3.199  20.757  0.00  0.00    +0.000 Cl
ATOM      8  C   UNL     1       3.277   3.467  18.671  0.00  0.00    +0.000 A 
ATOM      9 CL   UNL     1       3.375   1.725  18.679  0.00  0.00    +0.000 Cl
ATOM     10  C   UNL     1       4.000   4.213  17.716  0.00  0.00    +0.000 A 
ATOM     11 CL   UNL     1       5.042   3.374  16.591  0.00  0.00    +0.000 Cl
ENDROOT
BRANCH   1  12
ATOM     12  S   UNL     1       4.684   6.534  16.295  0.00  0.00    +0.000 S 
BRANCH  12  13
ATOM     13  C   UNL     1       6.222   7.157  17.052  0.00  0.00    +0.000 C 
BRANCH  13  15
ATOM     14  O   UNL     1       7.614   5.385  16.281  0.00  0.00    +0.000 OA
ATOM     15  C   UNL     1       7.224   6.051  17.249  0.00  0.00    +0.000 C 
BRANCH  15  16
ATOM     16  C   UNL     1       7.706   5.823  18.670  0.00  0.00    +0.000 C 
ATOM     17  F   UNL     1       8.519   4.738  18.791  0.00  0.00    +0.000 F 
ATOM     18  F   UNL     1       8.420   6.881  19.140  0.00  0.00    +0.000 F 
ATOM     19  F   UNL     1       6.679   5.628  19.540  0.00  0.00    +0.000 F 
ENDBRANCH  15  16
ENDBRANCH  13  15
ENDBRANCH  12  13
ENDBRANCH   1  12
TORSDOF 4
ENDMDL
MODEL 8
REMARK VINA RESULT:      -6.4      1.231      2.346
REMARK  Name = 
REMARK  4 active torsions:
REMARK  status: ('A' for Active; 'I' for Inactive)
REMARK    1  A    between atoms: C_2  and  C_3
REMARK    2  A    between atoms: C_2  and  C_16
REMARK    3  A    between atoms: C_3  and  S_4
REMARK    4  A    between atoms: S_4  and  C_5
REMARK                            x       y       z     vdW  Elec       q    Type
REMARK                         _______ _______ _______ _____ _____    ______ ____
ROOT
ATOM      1  C   UNL     1       4.088   4.673  17.400  0.00  0.00    +0.000 A 
ATOM      2  C   UNL     1       3.586   3.807  18.399  0.00  0.00    +0.000 A 
ATOM      3 CL   UNL     1       4.062   2.129  18.435  0.00  0.00    +0.000 Cl
ATOM      4  C   UNL     1       2.729   4.294  19.412  0.00  0.00    +0.000 A 
ATOM      5 CL   UNL     1       2.086   3.200  20.609  0.00  0.00    +0.000 Cl
ATOM      6  C   UNL     1       2.412   5.660  19.470  0.00  0.00    +0.000 A 
ATOM      7 CL   UNL     1       1.427   6.270  20.775  0.00  0.00    +0.000 Cl
ATOM      8  C   UNL     1       2.916   6.538  18.497  0.00  0.00    +0.000 A 
ATOM      9 CL   UNL     1       2.557   8.243  18.600  0.00  0.00    +0.000 Cl
ATOM     10  C   UNL     1       3.736   6.048  17.458  0.00  0.00    +0.000 A 
ATOM     11 CL   UNL     1       4.327   7.158  16.245  0.00  0.00    +0.000 Cl
ENDROOT
BRANCH   1  12
ATOM     12  S   UNL     1       5.296   4.116  16.152  0.00  0.00    +0.000 S 
BRANCH  12  13
ATOM     13  C   UNL     1       6.882   4.164  17.050  0.00  0.00    +0.000 C 
BRANCH  13  15
ATOM     14  O   UNL     1       7.540   6.312  16.261  0.00  0.00    +0.000 OA
ATOM     15  C   UNL     1       7.363   5.577  17.241  0.00  0.00    +0.000 C 
BRANCH  15  16
ATOM     16  C   UNL     1       7.602   6.020  18.673  0.00  0.00    +0.000 C 
ATOM     17  F   UNL     1       8.500   5.236  19.331  0.00  0.00    +0.000 F 
ATOM     18  F   UNL     1       8.094   7.287  18.738  0.00  0.00    +0.000 F 
ATOM     19  F   UNL     1       6.465   6.003  19.418  0.00  0.00    +0.000 F 
ENDBRANCH  15  16
ENDBRANCH  13  15
ENDBRANCH  12  13
ENDBRANCH   1  12
TORSDOF 4
ENDMDL
MODEL 9
REMARK VINA RESULT:      -6.3      1.735      2.699
REMARK  Name = 
REMARK  4 active torsions:
REMARK  status: ('A' for Active; 'I' for Inactive)
REMARK    1  A    between atoms: C_2  and  C_3
REMARK    2  A    between atoms: C_2  and  C_16
REMARK    3  A    between atoms: C_3  and  S_4
REMARK    4  A    between atoms: S_4  and  C_5
REMARK                            x       y       z     vdW  Elec       q    Type
REMARK                         _______ _______ _______ _____ _____    ______ ____
ROOT
ATOM      1  C   UNL     1       4.153   4.716  17.773  0.00  0.00    +0.000 A 
ATOM      2  C   UNL     1       3.646   4.145  18.964  0.00  0.00    +0.000 A 
ATOM      3 CL   UNL     1       4.074   2.515  19.414  0.00  0.00    +0.000 Cl
ATOM      4  C   UNL     1       2.826   4.899  19.834  0.00  0.00    +0.000 A 
ATOM      5 CL   UNL     1       2.177   4.162  21.275  0.00  0.00    +0.000 Cl
ATOM      6  C   UNL     1       2.551   6.246  19.551  0.00  0.00    +0.000 A 
ATOM      7 CL   UNL     1       1.612   7.196  20.674  0.00  0.00    +0.000 Cl
ATOM      8  C   UNL     1       3.060   6.835  18.383  0.00  0.00    +0.000 A 
ATOM      9 CL   UNL     1       2.754   8.522  18.059  0.00  0.00    +0.000 Cl
ATOM     10  C   UNL     1       3.843   6.073  17.490  0.00  0.00    +0.000 A 
ATOM     11 CL   UNL     1       4.442   6.823  16.029  0.00  0.00    +0.000 Cl
ENDROOT
BRANCH   1  12
ATOM     12  S   UNL     1       5.317   3.824  16.689  0.00  0.00    +0.000 S 
BRANCH  12  13
ATOM     13  C   UNL     1       6.723   4.976  16.542  0.00  0.00    +0.000 C 
BRANCH  13  15
ATOM     14  O   UNL     1       8.483   3.961  17.785  0.00  0.00    +0.000 OA
ATOM     15  C   UNL     1       7.646   4.871  17.727  0.00  0.00    +0.000 C 
BRANCH  15  16
ATOM     16  C   UNL     1       7.481   5.927  18.805  0.00  0.00    +0.000 C 
ATOM     17  F   UNL     1       6.444   5.672  19.649  0.00  0.00    +0.000 F 
ATOM     18  F   UNL     1       8.588   6.028  19.590  0.00  0.00    +0.000 F 
ATOM     19  F   UNL     1       7.255   7.164  18.288  0.00  0.00    +0.000 F 
ENDBRANCH  15  16
ENDBRANCH  13  15
ENDBRANCH  12  13
ENDBRANCH   1  12
TORSDOF 4
ENDMDL
