MODEL 1
REMARK VINA RESULT:      -7.2      0.000      0.000
REMARK  Name = 
REMARK  17 active torsions:
REMARK  status: ('A' for Active; 'I' for Inactive)
REMARK    1  A    between atoms: C_1  and  C_2
REMARK    2  A    between atoms: C_2  and  C_3
REMARK    3  A    between atoms: C_4  and  C_5
REMARK    4  A    between atoms: C_8  and  O_9
REMARK    5  A    between atoms: O_9  and  C_10
REMARK    6  A    between atoms: C_12  and  C_13
REMARK    7  A    between atoms: C_13  and  C_14
REMARK    8  A    between atoms: C_14  and  C_15
REMARK    9  A    between atoms: C_15  and  N_16
REMARK   10  A    between atoms: N_16  and  C_17
REMARK   11  A    between atoms: N_16  and  C_18
REMARK   12  A    between atoms: C_18  and  C_19
REMARK   13  A    between atoms: C_19  and  C_20
REMARK   14  A    between atoms: C_23  and  O_24
REMARK   15  A    between atoms: O_24  and  C_25
REMARK   16  A    between atoms: C_26  and  O_27
REMARK   17  A    between atoms: O_27  and  C_28
REMARK                            x       y       z     vdW  Elec       q    Type
REMARK                         _______ _______ _______ _____ _____    ______ ____
ROOT
ATOM      1  C   UNL     1       2.096   8.068  19.586  0.00  0.00    +0.000 C 
ENDROOT
BRANCH   1   2
ATOM      2  N   UNL     1       1.042   9.098  19.722  0.00  0.00    +0.000 NA
ATOM      3  C   UNL     1       1.116   9.788  21.019  0.00  0.00    +0.000 C 
BRANCH   2   4
ATOM      4  C   UNL     1       1.105  10.121  18.653  0.00  0.00    +0.000 C 
BRANCH   4   5
ATOM      5  C   UNL     1       0.357  11.423  18.970  0.00  0.00    +0.000 C 
BRANCH   5   6
ATOM      6  C   UNL     1      -1.106  11.354  18.591  0.00  0.00    +0.000 A 
ATOM      7  C   UNL     1      -2.072  12.003  19.361  0.00  0.00    +0.000 A 
ATOM      8  C   UNL     1      -3.427  11.883  19.044  0.00  0.00    +0.000 A 
ATOM      9  C   UNL     1      -3.837  11.113  17.951  0.00  0.00    +0.000 A 
ATOM     10  C   UNL     1      -2.867  10.486  17.142  0.00  0.00    +0.000 A 
ATOM     11  C   UNL     1      -1.511  10.622  17.464  0.00  0.00    +0.000 A 
BRANCH   9  12
ATOM     12  O   UNL     1      -5.150  10.910  17.597  0.00  0.00    +0.000 OA
ATOM     13  C   UNL     1      -6.137  11.637  18.314  0.00  0.00    +0.000 C 
ENDBRANCH   9  12
BRANCH  10  14
ATOM     14  O   UNL     1      -3.340   9.753  16.082  0.00  0.00    +0.000 OA
ATOM     15  C   UNL     1      -3.034  10.213  14.772  0.00  0.00    +0.000 C 
ENDBRANCH  10  14
ENDBRANCH   5   6
ENDBRANCH   4   5
ENDBRANCH   2   4
ENDBRANCH   1   2
BRANCH   1  16
ATOM     16  C   UNL     1       2.282   7.602  18.134  0.00  0.00    +0.000 C 
BRANCH  16  17
ATOM     17  C   UNL     1       3.520   6.724  17.933  0.00  0.00    +0.000 C 
BRANCH  17  23
ATOM     18  C   UNL     1       3.758   4.207  17.446  0.00  0.00    +0.000 A 
ATOM     19  C   UNL     1       3.438   2.888  17.774  0.00  0.00    +0.000 A 
ATOM     20  C   UNL     1       2.483   2.614  18.758  0.00  0.00    +0.000 A 
ATOM     21  C   UNL     1       1.839   3.653  19.423  0.00  0.00    +0.000 A 
ATOM     22  C   UNL     1       2.190   4.971  19.129  0.00  0.00    +0.000 A 
ATOM     23  C   UNL     1       3.146   5.269  18.134  0.00  0.00    +0.000 A 
BRANCH  18  25
ATOM     24  C   UNL     1       5.515   4.584  15.512  0.00  0.00    +0.000 C 
ATOM     25  C   UNL     1       4.707   4.431  16.382  0.00  0.00    +0.000 C 
BRANCH  24  27
ATOM     26  C   UNL     1       6.241   3.826  13.267  0.00  0.00    +0.000 C 
ATOM     27  C   UNL     1       6.494   4.776  14.427  0.00  0.00    +0.000 C 
ENDBRANCH  24  27
ENDBRANCH  18  25
BRANCH  21  28
ATOM     28  O   UNL     1       0.891   3.265  20.330  0.00  0.00    +0.000 OA
ATOM     29  C   UNL     1       1.363   2.823  21.598  0.00  0.00    +0.000 C 
ENDBRANCH  21  28
ENDBRANCH  17  23
ENDBRANCH  16  17
ENDBRANCH   1  16
TORSDOF 12
ENDMDL
MODEL 2
REMARK VINA RESULT:      -7.2      1.161      2.032
REMARK  Name = 
REMARK  17 active torsions:
REMARK  status: ('A' for Active; 'I' for Inactive)
REMARK    1  A    between atoms: C_1  and  C_2
REMARK    2  A    between atoms: C_2  and  C_3
REMARK    3  A    between atoms: C_4  and  C_5
REMARK    4  A    between atoms: C_8  and  O_9
REMARK    5  A    between atoms: O_9  and  C_10
REMARK    6  A    between atoms: C_12  and  C_13
REMARK    7  A    between atoms: C_13  and  C_14
REMARK    8  A    between atoms: C_14  and  C_15
REMARK    9  A    between atoms: C_15  and  N_16
REMARK   10  A    between atoms: N_16  and  C_17
REMARK   11  A    between atoms: N_16  and  C_18
REMARK   12  A    between atoms: C_18  and  C_19
REMARK   13  A    between atoms: C_19  and  C_20
REMARK   14  A    between atoms: C_23  and  O_24
REMARK   15  A    between atoms: O_24  and  C_25
REMARK   16  A    between atoms: C_26  and  O_27
REMARK   17  A    between atoms: O_27  and  C_28
REMARK                            x       y       z     vdW  Elec       q    Type
REMARK                         _______ _______ _______ _____ _____    ______ ____
ROOT
ATOM      1  C   UNL     1       2.285   8.620  18.669  0.00  0.00    +0.000 C 
ENDROOT
BRANCH   1   2
ATOM      2  N   UNL     1       1.049   8.767  19.470  0.00  0.00    +0.000 NA
ATOM      3  C   UNL     1       1.318   8.672  20.912  0.00  0.00    +0.000 C 
BRANCH   2   4
ATOM      4  C   UNL     1       0.354  10.050  19.215  0.00  0.00    +0.000 C 
BRANCH   4   5
ATOM      5  C   UNL     1      -0.462  10.088  17.916  0.00  0.00    +0.000 C 
BRANCH   5   6
ATOM      6  C   UNL     1      -1.874  10.582  18.137  0.00  0.00    +0.000 A 
ATOM      7  C   UNL     1      -2.933  10.070  17.385  0.00  0.00    +0.000 A 
ATOM      8  C   UNL     1      -4.225  10.575  17.548  0.00  0.00    +0.000 A 
ATOM      9  C   UNL     1      -4.478  11.600  18.465  0.00  0.00    +0.000 A 
ATOM     10  C   UNL     1      -3.424  12.097  19.258  0.00  0.00    +0.000 A 
ATOM     11  C   UNL     1      -2.135  11.575  19.093  0.00  0.00    +0.000 A 
BRANCH   9  12
ATOM     12  O   UNL     1      -5.710  12.180  18.655  0.00  0.00    +0.000 OA
ATOM     13  C   UNL     1      -6.422  12.591  17.496  0.00  0.00    +0.000 C 
ENDBRANCH   9  12
BRANCH  10  14
ATOM     14  O   UNL     1      -3.746  13.096  20.142  0.00  0.00    +0.000 OA
ATOM     15  C   UNL     1      -3.691  12.793  21.530  0.00  0.00    +0.000 C 
ENDBRANCH  10  14
ENDBRANCH   5   6
ENDBRANCH   4   5
ENDBRANCH   2   4
ENDBRANCH   1   2
BRANCH   1  16
ATOM     16  C   UNL     1       2.271   7.363  17.786  0.00  0.00    +0.000 C 
BRANCH  16  17
ATOM     17  C   UNL     1       3.539   6.516  17.916  0.00  0.00    +0.000 C 
BRANCH  17  23
ATOM     18  C   UNL     1       3.755   4.012  17.360  0.00  0.00    +0.000 A 
ATOM     19  C   UNL     1       3.431   2.686  17.659  0.00  0.00    +0.000 A 
ATOM     20  C   UNL     1       2.489   2.392  18.648  0.00  0.00    +0.000 A 
ATOM     21  C   UNL     1       1.860   3.417  19.348  0.00  0.00    +0.000 A 
ATOM     22  C   UNL     1       2.215   4.741  19.084  0.00  0.00    +0.000 A 
ATOM     23  C   UNL     1       3.159   5.059  18.084  0.00  0.00    +0.000 A 
BRANCH  18  25
ATOM     24  C   UNL     1       5.480   4.424  15.404  0.00  0.00    +0.000 C 
ATOM     25  C   UNL     1       4.691   4.258  16.290  0.00  0.00    +0.000 C 
BRANCH  24  27
ATOM     26  C   UNL     1       6.173   3.698  13.139  0.00  0.00    +0.000 C 
ATOM     27  C   UNL     1       6.436   4.638  14.304  0.00  0.00    +0.000 C 
ENDBRANCH  24  27
ENDBRANCH  18  25
BRANCH  21  28
ATOM     28  O   UNL     1       0.921   3.011  20.258  0.00  0.00    +0.000 OA
ATOM     29  C   UNL     1       1.379   2.773  21.585  0.00  0.00    +0.000 C 
ENDBRANCH  21  28
ENDBRANCH  17  23
ENDBRANCH  16  17
ENDBRANCH   1  16
TORSDOF 12
ENDMDL
MODEL 3
REMARK VINA RESULT:      -7.1      3.141      9.173
REMARK  Name = 
REMARK  17 active torsions:
REMARK  status: ('A' for Active; 'I' for Inactive)
REMARK    1  A    between atoms: C_1  and  C_2
REMARK    2  A    between atoms: C_2  and  C_3
REMARK    3  A    between atoms: C_4  and  C_5
REMARK    4  A    between atoms: C_8  and  O_9
REMARK    5  A    between atoms: O_9  and  C_10
REMARK    6  A    between atoms: C_12  and  C_13
REMARK    7  A    between atoms: C_13  and  C_14
REMARK    8  A    between atoms: C_14  and  C_15
REMARK    9  A    between atoms: C_15  and  N_16
REMARK   10  A    between atoms: N_16  and  C_17
REMARK   11  A    between atoms: N_16  and  C_18
REMARK   12  A    between atoms: C_18  and  C_19
REMARK   13  A    between atoms: C_19  and  C_20
REMARK   14  A    between atoms: C_23  and  O_24
REMARK   15  A    between atoms: O_24  and  C_25
REMARK   16  A    between atoms: C_26  and  O_27
REMARK   17  A    between atoms: O_27  and  C_28
REMARK                            x       y       z     vdW  Elec       q    Type
REMARK                         _______ _______ _______ _____ _____    ______ ____
ROOT
ATOM      1  C   UNL     1       2.303   6.828  18.283  0.00  0.00    +0.000 C 
ENDROOT
BRANCH   1   2
ATOM      2  N   UNL     1       2.691   6.368  19.634  0.00  0.00    +0.000 NA
ATOM      3  C   UNL     1       1.614   5.602  20.281  0.00  0.00    +0.000 C 
BRANCH   2   4
ATOM      4  C   UNL     1       3.910   5.526  19.622  0.00  0.00    +0.000 C 
BRANCH   4   5
ATOM      5  C   UNL     1       3.922   4.435  18.544  0.00  0.00    +0.000 C 
BRANCH   5   6
ATOM      6  C   UNL     1       4.893   4.740  17.426  0.00  0.00    +0.000 A 
ATOM      7  C   UNL     1       4.804   4.072  16.203  0.00  0.00    +0.000 A 
ATOM      8  C   UNL     1       5.742   4.311  15.196  0.00  0.00    +0.000 A 
ATOM      9  C   UNL     1       6.784   5.222  15.396  0.00  0.00    +0.000 A 
ATOM     10  C   UNL     1       6.861   5.932  16.612  0.00  0.00    +0.000 A 
ATOM     11  C   UNL     1       5.909   5.692  17.610  0.00  0.00    +0.000 A 
BRANCH   9  12
ATOM     12  O   UNL     1       7.770   5.483  14.475  0.00  0.00    +0.000 OA
ATOM     13  C   UNL     1       7.594   4.957  13.167  0.00  0.00    +0.000 C 
ENDBRANCH   9  12
BRANCH  10  14
ATOM     14  O   UNL     1       7.905   6.816  16.736  0.00  0.00    +0.000 OA
ATOM     15  C   UNL     1       7.670   8.016  17.459  0.00  0.00    +0.000 C 
ENDBRANCH  10  14
ENDBRANCH   5   6
ENDBRANCH   4   5
ENDBRANCH   2   4
ENDBRANCH   1   2
BRANCH   1  16
ATOM     16  C   UNL     1       2.308   8.359  18.156  0.00  0.00    +0.000 C 
BRANCH  16  17
ATOM     17  C   UNL     1       0.935   8.944  17.813  0.00  0.00    +0.000 C 
BRANCH  17  23
ATOM     18  C   UNL     1      -0.841  10.365  19.018  0.00  0.00    +0.000 A 
ATOM     19  C   UNL     1      -1.360  10.877  20.210  0.00  0.00    +0.000 A 
ATOM     20  C   UNL     1      -0.670  10.705  21.414  0.00  0.00    +0.000 A 
ATOM     21  C   UNL     1       0.543  10.023  21.440  0.00  0.00    +0.000 A 
ATOM     22  C   UNL     1       1.040   9.471  20.259  0.00  0.00    +0.000 A 
ATOM     23  C   UNL     1       0.362   9.639  19.032  0.00  0.00    +0.000 A 
BRANCH  18  25
ATOM     24  C   UNL     1      -2.154  10.873  16.784  0.00  0.00    +0.000 C 
ATOM     25  C   UNL     1      -1.566  10.622  17.797  0.00  0.00    +0.000 C 
BRANCH  24  27
ATOM     26  C   UNL     1      -3.138   9.900  14.729  0.00  0.00    +0.000 C 
ATOM     27  C   UNL     1      -2.871  11.164  15.530  0.00  0.00    +0.000 C 
ENDBRANCH  24  27
ENDBRANCH  18  25
BRANCH  21  28
ATOM     28  O   UNL     1       1.149   9.960  22.665  0.00  0.00    +0.000 OA
ATOM     29  C   UNL     1       0.367   9.451  23.740  0.00  0.00    +0.000 C 
ENDBRANCH  21  28
ENDBRANCH  17  23
ENDBRANCH  16  17
ENDBRANCH   1  16
TORSDOF 12
ENDMDL
MODEL 4
REMARK VINA RESULT:      -7.1      2.183      4.020
REMARK  Name = 
REMARK  17 active torsions:
REMARK  status: ('A' for Active; 'I' for Inactive)
REMARK    1  A    between atoms: C_1  and  C_2
REMARK    2  A    between atoms: C_2  and  C_3
REMARK    3  A    between atoms: C_4  and  C_5
REMARK    4  A    between atoms: C_8  and  O_9
REMARK    5  A    between atoms: O_9  and  C_10
REMARK    6  A    between atoms: C_12  and  C_13
REMARK    7  A    between atoms: C_13  and  C_14
REMARK    8  A    between atoms: C_14  and  C_15
REMARK    9  A    between atoms: C_15  and  N_16
REMARK   10  A    between atoms: N_16  and  C_17
REMARK   11  A    between atoms: N_16  and  C_18
REMARK   12  A    between atoms: C_18  and  C_19
REMARK   13  A    between atoms: C_19  and  C_20
REMARK   14  A    between atoms: C_23  and  O_24
REMARK   15  A    between atoms: O_24  and  C_25
REMARK   16  A    between atoms: C_26  and  O_27
REMARK   17  A    between atoms: O_27  and  C_28
REMARK                            x       y       z     vdW  Elec       q    Type
REMARK                         _______ _______ _______ _____ _____    ______ ____
ROOT
ATOM      1  C   UNL     1       1.402   9.487  17.791  0.00  0.00    +0.000 C 
ENDROOT
BRANCH   1   2
ATOM      2  N   UNL     1       1.314  10.371  18.974  0.00  0.00    +0.000 NA
ATOM      3  C   UNL     1       1.490  11.785  18.614  0.00  0.00    +0.000 C 
BRANCH   2   4
ATOM      4  C   UNL     1       0.024  10.236  19.691  0.00  0.00    +0.000 C 
BRANCH   4   5
ATOM      5  C   UNL     1      -0.717  11.558  19.927  0.00  0.00    +0.000 C 
BRANCH   5   6
ATOM      6  C   UNL     1      -2.059  11.598  19.231  0.00  0.00    +0.000 A 
ATOM      7  C   UNL     1      -3.136  12.281  19.800  0.00  0.00    +0.000 A 
ATOM      8  C   UNL     1      -4.390  12.261  19.185  0.00  0.00    +0.000 A 
ATOM      9  C   UNL     1      -4.587  11.559  17.992  0.00  0.00    +0.000 A 
ATOM     10  C   UNL     1      -3.497  10.899  17.387  0.00  0.00    +0.000 A 
ATOM     11  C   UNL     1      -2.242  10.935  18.007  0.00  0.00    +0.000 A 
BRANCH   9  12
ATOM     12  O   UNL     1      -5.796  11.455  17.346  0.00  0.00    +0.000 OA
ATOM     13  C   UNL     1      -6.905  12.123  17.931  0.00  0.00    +0.000 C 
ENDBRANCH   9  12
BRANCH  10  14
ATOM     14  O   UNL     1      -3.761  10.237  16.214  0.00  0.00    +0.000 OA
ATOM     15  C   UNL     1      -2.991  10.588  15.071  0.00  0.00    +0.000 C 
ENDBRANCH  10  14
ENDBRANCH   5   6
ENDBRANCH   4   5
ENDBRANCH   2   4
ENDBRANCH   1   2
BRANCH   1  16
ATOM     16  C   UNL     1       2.699   8.663  17.764  0.00  0.00    +0.000 C 
BRANCH  16  17
ATOM     17  C   UNL     1       2.469   7.164  17.976  0.00  0.00    +0.000 C 
BRANCH  17  23
ATOM     18  C   UNL     1       3.972   5.117  18.397  0.00  0.00    +0.000 A 
ATOM     19  C   UNL     1       5.208   4.485  18.240  0.00  0.00    +0.000 A 
ATOM     20  C   UNL     1       6.291   5.174  17.686  0.00  0.00    +0.000 A 
ATOM     21  C   UNL     1       6.151   6.499  17.284  0.00  0.00    +0.000 A 
ATOM     22  C   UNL     1       4.905   7.118  17.397  0.00  0.00    +0.000 A 
ATOM     23  C   UNL     1       3.801   6.442  17.961  0.00  0.00    +0.000 A 
BRANCH  18  25
ATOM     24  C   UNL     1       2.046   3.730  19.555  0.00  0.00    +0.000 C 
ATOM     25  C   UNL     1       2.906   4.376  19.028  0.00  0.00    +0.000 C 
BRANCH  24  27
ATOM     26  C   UNL     1       1.344   2.616  21.654  0.00  0.00    +0.000 C 
ATOM     27  C   UNL     1       0.984   2.951  20.216  0.00  0.00    +0.000 C 
ENDBRANCH  24  27
ENDBRANCH  18  25
BRANCH  21  28
ATOM     28  O   UNL     1       7.289   7.085  16.801  0.00  0.00    +0.000 OA
ATOM     29  C   UNL     1       7.804   8.188  17.540  0.00  0.00    +0.000 C 
ENDBRANCH  21  28
ENDBRANCH  17  23
ENDBRANCH  16  17
ENDBRANCH   1  16
TORSDOF 12
ENDMDL
MODEL 5
REMARK VINA RESULT:      -7.1      3.226      6.023
REMARK  Name = 
REMARK  17 active torsions:
REMARK  status: ('A' for Active; 'I' for Inactive)
REMARK    1  A    between atoms: C_1  and  C_2
REMARK    2  A    between atoms: C_2  and  C_3
REMARK    3  A    between atoms: C_4  and  C_5
REMARK    4  A    between atoms: C_8  and  O_9
REMARK    5  A    between atoms: O_9  and  C_10
REMARK    6  A    between atoms: C_12  and  C_13
REMARK    7  A    between atoms: C_13  and  C_14
REMARK    8  A    between atoms: C_14  and  C_15
REMARK    9  A    between atoms: C_15  and  N_16
REMARK   10  A    between atoms: N_16  and  C_17
REMARK   11  A    between atoms: N_16  and  C_18
REMARK   12  A    between atoms: C_18  and  C_19
REMARK   13  A    between atoms: C_19  and  C_20
REMARK   14  A    between atoms: C_23  and  O_24
REMARK   15  A    between atoms: O_24  and  C_25
REMARK   16  A    between atoms: C_26  and  O_27
REMARK   17  A    between atoms: O_27  and  C_28
REMARK                            x       y       z     vdW  Elec       q    Type
REMARK                         _______ _______ _______ _____ _____    ______ ____
ROOT
ATOM      1  C   UNL     1       3.082   3.174  18.582  0.00  0.00    +0.000 C 
ENDROOT
BRANCH   1   2
ATOM      2  N   UNL     1       1.986   4.083  18.984  0.00  0.00    +0.000 NA
ATOM      3  C   UNL     1       0.812   3.342  19.472  0.00  0.00    +0.000 C 
BRANCH   2   4
ATOM      4  C   UNL     1       2.397   5.039  20.040  0.00  0.00    +0.000 C 
BRANCH   4   5
ATOM      5  C   UNL     1       3.184   6.253  19.530  0.00  0.00    +0.000 C 
BRANCH   5   6
ATOM      6  C   UNL     1       2.310   7.475  19.359  0.00  0.00    +0.000 A 
ATOM      7  C   UNL     1       2.215   8.116  18.122  0.00  0.00    +0.000 A 
ATOM      8  C   UNL     1       1.457   9.281  17.986  0.00  0.00    +0.000 A 
ATOM      9  C   UNL     1       0.783   9.824  19.084  0.00  0.00    +0.000 A 
ATOM     10  C   UNL     1       0.839   9.165  20.328  0.00  0.00    +0.000 A 
ATOM     11  C   UNL     1       1.593   7.991  20.451  0.00  0.00    +0.000 A 
BRANCH   9  12
ATOM     12  O   UNL     1       0.052  10.988  19.043  0.00  0.00    +0.000 OA
ATOM     13  C   UNL     1       0.775  12.209  18.977  0.00  0.00    +0.000 C 
ENDBRANCH   9  12
BRANCH  10  14
ATOM     14  O   UNL     1       0.147   9.750  21.360  0.00  0.00    +0.000 OA
ATOM     15  C   UNL     1       0.430   9.305  22.680  0.00  0.00    +0.000 C 
ENDBRANCH  10  14
ENDBRANCH   5   6
ENDBRANCH   4   5
ENDBRANCH   2   4
ENDBRANCH   1   2
BRANCH   1  16
ATOM     16  C   UNL     1       3.715   3.571  17.239  0.00  0.00    +0.000 C 
BRANCH  16  17
ATOM     17  C   UNL     1       5.087   4.235  17.389  0.00  0.00    +0.000 C 
BRANCH  17  23
ATOM     18  C   UNL     1       6.753   5.347  15.772  0.00  0.00    +0.000 A 
ATOM     19  C   UNL     1       7.332   5.407  14.502  0.00  0.00    +0.000 A 
ATOM     20  C   UNL     1       6.839   4.616  13.460  0.00  0.00    +0.000 A 
ATOM     21  C   UNL     1       5.763   3.759  13.675  0.00  0.00    +0.000 A 
ATOM     22  C   UNL     1       5.213   3.663  14.954  0.00  0.00    +0.000 A 
ATOM     23  C   UNL     1       5.692   4.458  16.018  0.00  0.00    +0.000 A 
BRANCH  18  25
ATOM     24  C   UNL     1       7.721   6.968  17.618  0.00  0.00    +0.000 C 
ATOM     25  C   UNL     1       7.265   6.228  16.794  0.00  0.00    +0.000 C 
BRANCH  24  27
ATOM     26  C   UNL     1       8.380   9.306  18.105  0.00  0.00    +0.000 C 
ATOM     27  C   UNL     1       8.263   7.886  18.635  0.00  0.00    +0.000 C 
ENDBRANCH  24  27
ENDBRANCH  18  25
BRANCH  21  28
ATOM     28  O   UNL     1       5.337   3.071  12.572  0.00  0.00    +0.000 OA
ATOM     29  C   UNL     1       6.346   2.526  11.728  0.00  0.00    +0.000 C 
ENDBRANCH  21  28
ENDBRANCH  17  23
ENDBRANCH  16  17
ENDBRANCH   1  16
TORSDOF 12
ENDMDL
MODEL 6
REMARK VINA RESULT:      -7.0      3.459      6.464
REMARK  Name = 
REMARK  17 active torsions:
REMARK  status: ('A' for Active; 'I' for Inactive)
REMARK    1  A    between atoms: C_1  and  C_2
REMARK    2  A    between atoms: C_2  and  C_3
REMARK    3  A    between atoms: C_4  and  C_5
REMARK    4  A    between atoms: C_8  and  O_9
REMARK    5  A    between atoms: O_9  and  C_10
REMARK    6  A    between atoms: C_12  and  C_13
REMARK    7  A    between atoms: C_13  and  C_14
REMARK    8  A    between atoms: C_14  and  C_15
REMARK    9  A    between atoms: C_15  and  N_16
REMARK   10  A    between atoms: N_16  and  C_17
REMARK   11  A    between atoms: N_16  and  C_18
REMARK   12  A    between atoms: C_18  and  C_19
REMARK   13  A    between atoms: C_19  and  C_20
REMARK   14  A    between atoms: C_23  and  O_24
REMARK   15  A    between atoms: O_24  and  C_25
REMARK   16  A    between atoms: C_26  and  O_27
REMARK   17  A    between atoms: O_27  and  C_28
REMARK                            x       y       z     vdW  Elec       q    Type
REMARK                         _______ _______ _______ _____ _____    ______ ____
ROOT
ATOM      1  C   UNL     1       3.161   2.576  17.713  0.00  0.00    +0.000 C 
ENDROOT
BRANCH   1   2
ATOM      2  N   UNL     1       2.559   3.717  18.437  0.00  0.00    +0.000 NA
ATOM      3  C   UNL     1       1.178   3.433  18.855  0.00  0.00    +0.000 C 
BRANCH   2   4
ATOM      4  C   UNL     1       3.334   4.102  19.640  0.00  0.00    +0.000 C 
BRANCH   4   5
ATOM      5  C   UNL     1       4.101   5.424  19.509  0.00  0.00    +0.000 C 
BRANCH   5   6
ATOM      6  C   UNL     1       3.185   6.597  19.240  0.00  0.00    +0.000 A 
ATOM      7  C   UNL     1       3.218   7.259  18.011  0.00  0.00    +0.000 A 
ATOM      8  C   UNL     1       2.416   8.381  17.789  0.00  0.00    +0.000 A 
ATOM      9  C   UNL     1       1.569   8.859  18.794  0.00  0.00    +0.000 A 
ATOM     10  C   UNL     1       1.498   8.176  20.025  0.00  0.00    +0.000 A 
ATOM     11  C   UNL     1       2.298   7.045  20.232  0.00  0.00    +0.000 A 
BRANCH   9  12
ATOM     12  O   UNL     1       0.780   9.979  18.672  0.00  0.00    +0.000 OA
ATOM     13  C   UNL     1       1.436  11.239  18.670  0.00  0.00    +0.000 C 
ENDBRANCH   9  12
BRANCH  10  14
ATOM     14  O   UNL     1       0.639   8.696  20.962  0.00  0.00    +0.000 OA
ATOM     15  C   UNL     1       1.205   9.243  22.145  0.00  0.00    +0.000 C 
ENDBRANCH  10  14
ENDBRANCH   5   6
ENDBRANCH   4   5
ENDBRANCH   2   4
ENDBRANCH   1   2
BRANCH   1  16
ATOM     16  C   UNL     1       4.439   2.965  16.954  0.00  0.00    +0.000 C 
BRANCH  16  17
ATOM     17  C   UNL     1       4.331   4.315  16.238  0.00  0.00    +0.000 C 
BRANCH  17  23
ATOM     18  C   UNL     1       6.539   4.913  15.059  0.00  0.00    +0.000 A 
ATOM     19  C   UNL     1       7.381   4.779  13.951  0.00  0.00    +0.000 A 
ATOM     20  C   UNL     1       6.947   4.100  12.809  0.00  0.00    +0.000 A 
ATOM     21  C   UNL     1       5.670   3.548  12.761  0.00  0.00    +0.000 A 
ATOM     22  C   UNL     1       4.845   3.640  13.882  0.00  0.00    +0.000 A 
ATOM     23  C   UNL     1       5.261   4.328  15.042  0.00  0.00    +0.000 A 
BRANCH  18  25
ATOM     24  C   UNL     1       7.383   6.294  17.145  0.00  0.00    +0.000 C 
ATOM     25  C   UNL     1       7.018   5.674  16.187  0.00  0.00    +0.000 C 
BRANCH  24  27
ATOM     26  C   UNL     1       8.053   6.145  19.526  0.00  0.00    +0.000 C 
ATOM     27  C   UNL     1       7.852   7.049  18.320  0.00  0.00    +0.000 C 
ENDBRANCH  24  27
ENDBRANCH  18  25
BRANCH  21  28
ATOM     28  O   UNL     1       5.339   2.949  11.576  0.00  0.00    +0.000 OA
ATOM     29  C   UNL     1       4.041   3.226  11.060  0.00  0.00    +0.000 C 
ENDBRANCH  21  28
ENDBRANCH  17  23
ENDBRANCH  16  17
ENDBRANCH   1  16
TORSDOF 12
ENDMDL
MODEL 7
REMARK VINA RESULT:      -7.0      2.651      4.815
REMARK  Name = 
REMARK  17 active torsions:
REMARK  status: ('A' for Active; 'I' for Inactive)
REMARK    1  A    between atoms: C_1  and  C_2
REMARK    2  A    between atoms: C_2  and  C_3
REMARK    3  A    between atoms: C_4  and  C_5
REMARK    4  A    between atoms: C_8  and  O_9
REMARK    5  A    between atoms: O_9  and  C_10
REMARK    6  A    between atoms: C_12  and  C_13
REMARK    7  A    between atoms: C_13  and  C_14
REMARK    8  A    between atoms: C_14  and  C_15
REMARK    9  A    between atoms: C_15  and  N_16
REMARK   10  A    between atoms: N_16  and  C_17
REMARK   11  A    between atoms: N_16  and  C_18
REMARK   12  A    between atoms: C_18  and  C_19
REMARK   13  A    between atoms: C_19  and  C_20
REMARK   14  A    between atoms: C_23  and  O_24
REMARK   15  A    between atoms: O_24  and  C_25
REMARK   16  A    between atoms: C_26  and  O_27
REMARK   17  A    between atoms: O_27  and  C_28
REMARK                            x       y       z     vdW  Elec       q    Type
REMARK                         _______ _______ _______ _____ _____    ______ ____
ROOT
ATOM      1  C   UNL     1       2.047   3.544  18.246  0.00  0.00    +0.000 C 
ENDROOT
BRANCH   1   2
ATOM      2  N   UNL     1       1.660   4.682  19.107  0.00  0.00    +0.000 NA
ATOM      3  C   UNL     1       1.059   4.232  20.372  0.00  0.00    +0.000 C 
BRANCH   2   4
ATOM      4  C   UNL     1       2.804   5.567  19.432  0.00  0.00    +0.000 C 
BRANCH   4   5
ATOM      5  C   UNL     1       2.806   6.907  18.685  0.00  0.00    +0.000 C 
BRANCH   5   6
ATOM      6  C   UNL     1       1.928   7.941  19.355  0.00  0.00    +0.000 A 
ATOM      7  C   UNL     1       1.676   7.879  20.727  0.00  0.00    +0.000 A 
ATOM      8  C   UNL     1       0.814   8.799  21.329  0.00  0.00    +0.000 A 
ATOM      9  C   UNL     1       0.190   9.793  20.569  0.00  0.00    +0.000 A 
ATOM     10  C   UNL     1       0.467   9.889  19.190  0.00  0.00    +0.000 A 
ATOM     11  C   UNL     1       1.342   8.968  18.599  0.00  0.00    +0.000 A 
BRANCH   9  12
ATOM     12  O   UNL     1      -0.703  10.707  21.076  0.00  0.00    +0.000 OA
ATOM     13  C   UNL     1      -0.166  11.880  21.671  0.00  0.00    +0.000 C 
ENDBRANCH   9  12
BRANCH  10  14
ATOM     14  O   UNL     1      -0.174  10.893  18.508  0.00  0.00    +0.000 OA
ATOM     15  C   UNL     1      -1.377  10.565  17.826  0.00  0.00    +0.000 C 
ENDBRANCH  10  14
ENDBRANCH   5   6
ENDBRANCH   4   5
ENDBRANCH   2   4
ENDBRANCH   1   2
BRANCH   1  16
ATOM     16  C   UNL     1       3.570   3.351  18.172  0.00  0.00    +0.000 C 
BRANCH  16  17
ATOM     17  C   UNL     1       4.118   3.401  16.743  0.00  0.00    +0.000 C 
BRANCH  17  23
ATOM     18  C   UNL     1       5.954   4.714  15.505  0.00  0.00    +0.000 A 
ATOM     19  C   UNL     1       6.990   5.652  15.543  0.00  0.00    +0.000 A 
ATOM     20  C   UNL     1       7.434   6.168  16.763  0.00  0.00    +0.000 A 
ATOM     21  C   UNL     1       6.850   5.755  17.957  0.00  0.00    +0.000 A 
ATOM     22  C   UNL     1       5.785   4.854  17.920  0.00  0.00    +0.000 A 
ATOM     23  C   UNL     1       5.327   4.315  16.698  0.00  0.00    +0.000 A 
BRANCH  18  25
ATOM     24  C   UNL     1       5.224   3.727  13.168  0.00  0.00    +0.000 C 
ATOM     25  C   UNL     1       5.576   4.171  14.223  0.00  0.00    +0.000 C 
BRANCH  24  27
ATOM     26  C   UNL     1       5.675   2.023  11.426  0.00  0.00    +0.000 C 
ATOM     27  C   UNL     1       4.805   3.192  11.860  0.00  0.00    +0.000 C 
ENDBRANCH  24  27
ENDBRANCH  18  25
BRANCH  21  28
ATOM     28  O   UNL     1       7.398   6.291  19.091  0.00  0.00    +0.000 OA
ATOM     29  C   UNL     1       8.077   5.392  19.961  0.00  0.00    +0.000 C 
ENDBRANCH  21  28
ENDBRANCH  17  23
ENDBRANCH  16  17
ENDBRANCH   1  16
TORSDOF 12
ENDMDL
MODEL 8
REMARK VINA RESULT:      -7.0      1.289      1.809
REMARK  Name = 
REMARK  17 active torsions:
REMARK  status: ('A' for Active; 'I' for Inactive)
REMARK    1  A    between atoms: C_1  and  C_2
REMARK    2  A    between atoms: C_2  and  C_3
REMARK    3  A    between atoms: C_4  and  C_5
REMARK    4  A    between atoms: C_8  and  O_9
REMARK    5  A    between atoms: O_9  and  C_10
REMARK    6  A    between atoms: C_12  and  C_13
REMARK    7  A    between atoms: C_13  and  C_14
REMARK    8  A    between atoms: C_14  and  C_15
REMARK    9  A    between atoms: C_15  and  N_16
REMARK   10  A    between atoms: N_16  and  C_17
REMARK   11  A    between atoms: N_16  and  C_18
REMARK   12  A    between atoms: C_18  and  C_19
REMARK   13  A    between atoms: C_19  and  C_20
REMARK   14  A    between atoms: C_23  and  O_24
REMARK   15  A    between atoms: O_24  and  C_25
REMARK   16  A    between atoms: C_26  and  O_27
REMARK   17  A    between atoms: O_27  and  C_28
REMARK                            x       y       z     vdW  Elec       q    Type
REMARK                         _______ _______ _______ _____ _____    ______ ____
ROOT
ATOM      1  C   UNL     1       2.794   8.550  17.990  0.00  0.00    +0.000 C 
ENDROOT
BRANCH   1   2
ATOM      2  N   UNL     1       1.521   8.611  18.740  0.00  0.00    +0.000 NA
ATOM      3  C   UNL     1       1.702   8.257  20.156  0.00  0.00    +0.000 C 
BRANCH   2   4
ATOM      4  C   UNL     1       0.887   9.950  18.679  0.00  0.00    +0.000 C 
BRANCH   4   5
ATOM      5  C   UNL     1      -0.488   9.975  17.999  0.00  0.00    +0.000 C 
BRANCH   5   6
ATOM      6  C   UNL     1      -1.454  10.911  18.690  0.00  0.00    +0.000 A 
ATOM      7  C   UNL     1      -1.082  11.587  19.853  0.00  0.00    +0.000 A 
ATOM      8  C   UNL     1      -2.000  12.401  20.522  0.00  0.00    +0.000 A 
ATOM      9  C   UNL     1      -3.304  12.550  20.039  0.00  0.00    +0.000 A 
ATOM     10  C   UNL     1      -3.679  11.903  18.844  0.00  0.00    +0.000 A 
ATOM     11  C   UNL     1      -2.747  11.099  18.175  0.00  0.00    +0.000 A 
BRANCH   9  12
ATOM     12  O   UNL     1      -4.277  13.296  20.660  0.00  0.00    +0.000 OA
ATOM     13  C   UNL     1      -4.769  12.818  21.904  0.00  0.00    +0.000 C 
ENDBRANCH   9  12
BRANCH  10  14
ATOM     14  O   UNL     1      -4.971  12.101  18.424  0.00  0.00    +0.000 OA
ATOM     15  C   UNL     1      -5.256  11.895  17.047  0.00  0.00    +0.000 C 
ENDBRANCH  10  14
ENDBRANCH   5   6
ENDBRANCH   4   5
ENDBRANCH   2   4
ENDBRANCH   1   2
BRANCH   1  16
ATOM     16  C   UNL     1       3.041   7.171  17.358  0.00  0.00    +0.000 C 
BRANCH  16  17
ATOM     17  C   UNL     1       3.959   6.276  18.196  0.00  0.00    +0.000 C 
BRANCH  17  23
ATOM     18  C   UNL     1       3.830   3.831  17.400  0.00  0.00    +0.000 A 
ATOM     19  C   UNL     1       3.340   2.536  17.583  0.00  0.00    +0.000 A 
ATOM     20  C   UNL     1       2.388   2.271  18.572  0.00  0.00    +0.000 A 
ATOM     21  C   UNL     1       1.915   3.296  19.386  0.00  0.00    +0.000 A 
ATOM     22  C   UNL     1       2.436   4.582  19.236  0.00  0.00    +0.000 A 
ATOM     23  C   UNL     1       3.393   4.871  18.239  0.00  0.00    +0.000 A 
BRANCH  18  25
ATOM     24  C   UNL     1       5.527   4.217  15.415  0.00  0.00    +0.000 C 
ATOM     25  C   UNL     1       4.768   4.057  16.327  0.00  0.00    +0.000 C 
BRANCH  24  27
ATOM     26  C   UNL     1       6.035   3.666  13.052  0.00  0.00    +0.000 C 
ATOM     27  C   UNL     1       6.460   4.433  14.294  0.00  0.00    +0.000 C 
ENDBRANCH  24  27
ENDBRANCH  18  25
BRANCH  21  28
ATOM     28  O   UNL     1       0.950   2.929  20.284  0.00  0.00    +0.000 OA
ATOM     29  C   UNL     1       1.376   2.707  21.625  0.00  0.00    +0.000 C 
ENDBRANCH  21  28
ENDBRANCH  17  23
ENDBRANCH  16  17
ENDBRANCH   1  16
TORSDOF 12
ENDMDL
MODEL 9
REMARK VINA RESULT:      -6.9      3.139      5.522
REMARK  Name = 
REMARK  17 active torsions:
REMARK  status: ('A' for Active; 'I' for Inactive)
REMARK    1  A    between atoms: C_1  and  C_2
REMARK    2  A    between atoms: C_2  and  C_3
REMARK    3  A    between atoms: C_4  and  C_5
REMARK    4  A    between atoms: C_8  and  O_9
REMARK    5  A    between atoms: O_9  and  C_10
REMARK    6  A    between atoms: C_12  and  C_13
REMARK    7  A    between atoms: C_13  and  C_14
REMARK    8  A    between atoms: C_14  and  C_15
REMARK    9  A    between atoms: C_15  and  N_16
REMARK   10  A    between atoms: N_16  and  C_17
REMARK   11  A    between atoms: N_16  and  C_18
REMARK   12  A    between atoms: C_18  and  C_19
REMARK   13  A    between atoms: C_19  and  C_20
REMARK   14  A    between atoms: C_23  and  O_24
REMARK   15  A    between atoms: O_24  and  C_25
REMARK   16  A    between atoms: C_26  and  O_27
REMARK   17  A    between atoms: O_27  and  C_28
REMARK                            x       y       z     vdW  Elec       q    Type
REMARK                         _______ _______ _______ _____ _____    ______ ____
ROOT
ATOM      1  C   UNL     1       3.293   2.902  18.626  0.00  0.00    +0.000 C 
ENDROOT
BRANCH   1   2
ATOM      2  N   UNL     1       2.031   3.662  18.488  0.00  0.00    +0.000 NA
ATOM      3  C   UNL     1       0.865   2.865  18.898  0.00  0.00    +0.000 C 
BRANCH   2   4
ATOM      4  C   UNL     1       2.032   4.916  19.277  0.00  0.00    +0.000 C 
BRANCH   4   5
ATOM      5  C   UNL     1       2.825   6.067  18.645  0.00  0.00    +0.000 C 
BRANCH   5   6
ATOM      6  C   UNL     1       2.189   7.415  18.904  0.00  0.00    +0.000 A 
ATOM      7  C   UNL     1       2.037   8.340  17.870  0.00  0.00    +0.000 A 
ATOM      8  C   UNL     1       1.507   9.607  18.127  0.00  0.00    +0.000 A 
ATOM      9  C   UNL     1       1.123   9.969  19.422  0.00  0.00    +0.000 A 
ATOM     10  C   UNL     1       1.236   9.029  20.467  0.00  0.00    +0.000 A 
ATOM     11  C   UNL     1       1.758   7.758  20.195  0.00  0.00    +0.000 A 
BRANCH   9  12
ATOM     12  O   UNL     1       0.634  11.207  19.766  0.00  0.00    +0.000 OA
ATOM     13  C   UNL     1       0.085  12.002  18.725  0.00  0.00    +0.000 C 
ENDBRANCH   9  12
BRANCH  10  14
ATOM     14  O   UNL     1       0.832   9.449  21.710  0.00  0.00    +0.000 OA
ATOM     15  C   UNL     1      -0.385   8.921  22.222  0.00  0.00    +0.000 C 
ENDBRANCH  10  14
ENDBRANCH   5   6
ENDBRANCH   4   5
ENDBRANCH   2   4
ENDBRANCH   1   2
BRANCH   1  16
ATOM     16  C   UNL     1       3.883   2.486  17.270  0.00  0.00    +0.000 C 
BRANCH  16  17
ATOM     17  C   UNL     1       3.830   3.598  16.219  0.00  0.00    +0.000 C 
BRANCH  17  23
ATOM     18  C   UNL     1       5.848   4.375  14.823  0.00  0.00    +0.000 A 
ATOM     19  C   UNL     1       7.065   5.058  14.753  0.00  0.00    +0.000 A 
ATOM     20  C   UNL     1       7.670   5.549  15.914  0.00  0.00    +0.000 A 
ATOM     21  C   UNL     1       7.067   5.363  17.154  0.00  0.00    +0.000 A 
ATOM     22  C   UNL     1       5.830   4.722  17.222  0.00  0.00    +0.000 A 
ATOM     23  C   UNL     1       5.206   4.213  16.062  0.00  0.00    +0.000 A 
BRANCH  18  25
ATOM     24  C   UNL     1       4.808   3.392  12.604  0.00  0.00    +0.000 C 
ATOM     25  C   UNL     1       5.299   3.840  13.600  0.00  0.00    +0.000 C 
BRANCH  24  27
ATOM     26  C   UNL     1       3.502   3.937  10.570  0.00  0.00    +0.000 C 
ATOM     27  C   UNL     1       4.212   2.855  11.368  0.00  0.00    +0.000 C 
ENDBRANCH  24  27
ENDBRANCH  18  25
BRANCH  21  28
ATOM     28  O   UNL     1       7.774   5.844  18.223  0.00  0.00    +0.000 OA
ATOM     29  C   UNL     1       7.224   5.603  19.514  0.00  0.00    +0.000 C 
ENDBRANCH  21  28
ENDBRANCH  17  23
ENDBRANCH  16  17
ENDBRANCH   1  16
TORSDOF 12
ENDMDL
