MODEL 1
REMARK VINA RESULT:      -8.7      0.000      0.000
REMARK  Name = 
REMARK  7 active torsions:
REMARK  status: ('A' for Active; 'I' for Inactive)
REMARK    1  A    between atoms: C_1  and  C_2
REMARK    2  A    between atoms: C_2  and  C_3
REMARK    3  A    between atoms: C_3  and  C_4
REMARK    4  A    between atoms: C_4  and  N_5
REMARK    5  A    between atoms: C_6  and  C_8
REMARK    6  A    between atoms: C_9  and  N_10
REMARK    7  A    between atoms: C_11  and  C_13
REMARK                            x       y       z     vdW  Elec       q    Type
REMARK                         _______ _______ _______ _____ _____    ______ ____
ROOT
ATOM      1  C   UNL     1       6.536   4.626  15.785  0.00  0.00    +0.000 A 
ATOM      2  C   UNL     1       5.366   3.877  15.775  0.00  0.00    +0.000 A 
ATOM      3  N   UNL     1       5.027   3.507  14.509  0.00  0.00    +0.000 NA
ATOM      4  C   UNL     1       5.946   4.004  13.726  0.00  0.00    +0.000 A 
ATOM      5  C   UNL     1       6.106   3.907  12.317  0.00  0.00    +0.000 A 
ATOM      6  C   UNL     1       7.177   4.470  11.729  0.00  0.00    +0.000 A 
ATOM      7  C   UNL     1       8.176   5.184  12.505  0.00  0.00    +0.000 A 
ATOM      8  C   UNL     1       8.018   5.290  13.838  0.00  0.00    +0.000 A 
ATOM      9  N   UNL     1       6.903   4.705  14.447  0.00  0.00    +0.000 N 
ENDROOT
BRANCH   1  11
ATOM     10  N   UNL     1       7.038   6.607  16.990  0.00  0.00    +0.000 N 
ATOM     11  C   UNL     1       7.276   5.257  16.841  0.00  0.00    +0.000 C 
ATOM     12  O   UNL     1       8.033   4.649  17.594  0.00  0.00    +0.000 OA
ATOM     13  H   UNL     1       6.157   6.956  16.630  0.00  0.00    +0.000 HD
BRANCH  10  14
ATOM     14  C   UNL     1       7.679   7.358  18.053  0.00  0.00    +0.000 C 
BRANCH  14  15
ATOM     15  C   UNL     1       8.010   8.768  17.583  0.00  0.00    +0.000 C 
BRANCH  15  17
ATOM     16  C   UNL     1       9.042  10.975  18.203  0.00  0.00    +0.000 C 
ATOM     17  C   UNL     1       8.806   9.536  18.634  0.00  0.00    +0.000 C 
ENDBRANCH  15  17
ENDBRANCH  14  15
ENDBRANCH  10  14
ENDBRANCH   1  11
BRANCH   2  18
ATOM     18  N   UNL     1       4.577   3.508  16.854  0.00  0.00    +0.000 N 
ATOM     19  C   UNL     1       3.849   4.426  17.612  0.00  0.00    +0.000 C 
ATOM     20  O   UNL     1       3.850   5.642  17.455  0.00  0.00    +0.000 OA
ATOM     21  H   UNL     1       4.557   2.523  17.081  0.00  0.00    +0.000 HD
BRANCH  19  22
ATOM     22  C   UNL     1       2.973   3.882  18.687  0.00  0.00    +0.000 A 
ATOM     23  C   UNL     1       1.575   3.882  18.536  0.00  0.00    +0.000 A 
ATOM     24  F   UNL     1       0.979   4.411  17.460  0.00  0.00    +0.000 F 
ATOM     25  C   UNL     1       0.736   3.319  19.505  0.00  0.00    +0.000 A 
ATOM     26  C   UNL     1       1.283   2.744  20.648  0.00  0.00    +0.000 A 
ATOM     27  C   UNL     1       2.663   2.754  20.810  0.00  0.00    +0.000 A 
ATOM     28  F   UNL     1       3.198   2.196  21.904  0.00  0.00    +0.000 F 
ATOM     29  C   UNL     1       3.499   3.318  19.849  0.00  0.00    +0.000 A 
ATOM     30  F   UNL     1       4.823   3.289  20.063  0.00  0.00    +0.000 F 
ENDBRANCH  19  22
ENDBRANCH   2  18
TORSDOF 6
ENDMDL
MODEL 2
REMARK VINA RESULT:      -8.3      0.607      1.775
REMARK  Name = 
REMARK  7 active torsions:
REMARK  status: ('A' for Active; 'I' for Inactive)
REMARK    1  A    between atoms: C_1  and  C_2
REMARK    2  A    between atoms: C_2  and  C_3
REMARK    3  A    between atoms: C_3  and  C_4
REMARK    4  A    between atoms: C_4  and  N_5
REMARK    5  A    between atoms: C_6  and  C_8
REMARK    6  A    between atoms: C_9  and  N_10
REMARK    7  A    between atoms: C_11  and  C_13
REMARK                            x       y       z     vdW  Elec       q    Type
REMARK                         _______ _______ _______ _____ _____    ______ ____
ROOT
ATOM      1  C   UNL     1       6.585   4.551  15.853  0.00  0.00    +0.000 A 
ATOM      2  C   UNL     1       5.442   3.762  15.856  0.00  0.00    +0.000 A 
ATOM      3  N   UNL     1       5.088   3.399  14.592  0.00  0.00    +0.000 NA
ATOM      4  C   UNL     1       5.972   3.940  13.797  0.00  0.00    +0.000 A 
ATOM      5  C   UNL     1       6.105   3.870  12.383  0.00  0.00    +0.000 A 
ATOM      6  C   UNL     1       7.143   4.480  11.782  0.00  0.00    +0.000 A 
ATOM      7  C   UNL     1       8.133   5.216  12.548  0.00  0.00    +0.000 A 
ATOM      8  C   UNL     1       8.000   5.296  13.885  0.00  0.00    +0.000 A 
ATOM      9  N   UNL     1       6.920   4.663  14.508  0.00  0.00    +0.000 N 
ENDROOT
BRANCH   1  11
ATOM     10  N   UNL     1       7.090   6.543  17.038  0.00  0.00    +0.000 N 
ATOM     11  C   UNL     1       7.327   5.191  16.903  0.00  0.00    +0.000 C 
ATOM     12  O   UNL     1       8.082   4.589  17.662  0.00  0.00    +0.000 OA
ATOM     13  H   UNL     1       6.210   6.889  16.675  0.00  0.00    +0.000 HD
BRANCH  10  14
ATOM     14  C   UNL     1       7.732   7.304  18.094  0.00  0.00    +0.000 C 
BRANCH  14  15
ATOM     15  C   UNL     1       7.960   8.743  17.650  0.00  0.00    +0.000 C 
BRANCH  15  17
ATOM     16  C   UNL     1       9.107  10.919  18.166  0.00  0.00    +0.000 C 
ATOM     17  C   UNL     1       8.802   9.514  18.662  0.00  0.00    +0.000 C 
ENDBRANCH  15  17
ENDBRANCH  14  15
ENDBRANCH  10  14
ENDBRANCH   1  11
BRANCH   2  18
ATOM     18  N   UNL     1       4.691   3.349  16.945  0.00  0.00    +0.000 N 
ATOM     19  C   UNL     1       4.004   4.237  17.774  0.00  0.00    +0.000 C 
ATOM     20  O   UNL     1       4.015   5.459  17.678  0.00  0.00    +0.000 OA
ATOM     21  H   UNL     1       4.666   2.354  17.125  0.00  0.00    +0.000 HD
BRANCH  19  22
ATOM     22  C   UNL     1       3.163   3.651  18.855  0.00  0.00    +0.000 A 
ATOM     23  C   UNL     1       3.760   3.040  19.973  0.00  0.00    +0.000 A 
ATOM     24  F   UNL     1       5.088   2.914  20.085  0.00  0.00    +0.000 F 
ATOM     25  C   UNL     1       2.989   2.540  21.029  0.00  0.00    +0.000 A 
ATOM     26  C   UNL     1       1.603   2.641  20.986  0.00  0.00    +0.000 A 
ATOM     27  C   UNL     1       1.006   3.230  19.879  0.00  0.00    +0.000 A 
ATOM     28  F   UNL     1      -0.329   3.338  19.833  0.00  0.00    +0.000 F 
ATOM     29  C   UNL     1       1.770   3.724  18.824  0.00  0.00    +0.000 A 
ATOM     30  F   UNL     1       1.132   4.287  17.786  0.00  0.00    +0.000 F 
ENDBRANCH  19  22
ENDBRANCH   2  18
TORSDOF 6
ENDMDL
MODEL 3
REMARK VINA RESULT:      -8.0      1.140      1.637
REMARK  Name = 
REMARK  7 active torsions:
REMARK  status: ('A' for Active; 'I' for Inactive)
REMARK    1  A    between atoms: C_1  and  C_2
REMARK    2  A    between atoms: C_2  and  C_3
REMARK    3  A    between atoms: C_3  and  C_4
REMARK    4  A    between atoms: C_4  and  N_5
REMARK    5  A    between atoms: C_6  and  C_8
REMARK    6  A    between atoms: C_9  and  N_10
REMARK    7  A    between atoms: C_11  and  C_13
REMARK                            x       y       z     vdW  Elec       q    Type
REMARK                         _______ _______ _______ _____ _____    ______ ____
ROOT
ATOM      1  C   UNL     1       6.504   4.806  15.806  0.00  0.00    +0.000 A 
ATOM      2  C   UNL     1       5.289   4.132  15.804  0.00  0.00    +0.000 A 
ATOM      3  N   UNL     1       4.943   3.740  14.547  0.00  0.00    +0.000 NA
ATOM      4  C   UNL     1       5.900   4.152  13.760  0.00  0.00    +0.000 A 
ATOM      5  C   UNL     1       6.071   3.997  12.358  0.00  0.00    +0.000 A 
ATOM      6  C   UNL     1       7.183   4.473  11.767  0.00  0.00    +0.000 A 
ATOM      7  C   UNL     1       8.215   5.149  12.533  0.00  0.00    +0.000 A 
ATOM      8  C   UNL     1       8.048   5.309  13.859  0.00  0.00    +0.000 A 
ATOM      9  N   UNL     1       6.891   4.816  14.471  0.00  0.00    +0.000 N 
ENDROOT
BRANCH   1  11
ATOM     10  N   UNL     1       7.057   6.778  17.002  0.00  0.00    +0.000 N 
ATOM     11  C   UNL     1       7.270   5.425  16.851  0.00  0.00    +0.000 C 
ATOM     12  O   UNL     1       8.027   4.804  17.593  0.00  0.00    +0.000 OA
ATOM     13  H   UNL     1       6.177   7.142  16.655  0.00  0.00    +0.000 HD
BRANCH  10  14
ATOM     14  C   UNL     1       7.726   7.519  18.055  0.00  0.00    +0.000 C 
BRANCH  14  15
ATOM     15  C   UNL     1       8.036   8.937  17.594  0.00  0.00    +0.000 C 
BRANCH  15  17
ATOM     16  C   UNL     1       9.039  11.152  18.233  0.00  0.00    +0.000 C 
ATOM     17  C   UNL     1       8.862   9.695  18.630  0.00  0.00    +0.000 C 
ENDBRANCH  15  17
ENDBRANCH  14  15
ENDBRANCH  10  14
ENDBRANCH   1  11
BRANCH   2  18
ATOM     18  N   UNL     1       4.466   3.849  16.884  0.00  0.00    +0.000 N 
ATOM     19  C   UNL     1       3.772   4.834  17.588  0.00  0.00    +0.000 C 
ATOM     20  O   UNL     1       3.836   6.041  17.379  0.00  0.00    +0.000 OA
ATOM     21  H   UNL     1       4.394   2.877  17.153  0.00  0.00    +0.000 HD
BRANCH  19  22
ATOM     22  C   UNL     1       2.853   4.382  18.669  0.00  0.00    +0.000 A 
ATOM     23  C   UNL     1       2.923   4.955  19.951  0.00  0.00    +0.000 A 
ATOM     24  F   UNL     1       3.840   5.880  20.264  0.00  0.00    +0.000 F 
ATOM     25  C   UNL     1       2.028   4.591  20.964  0.00  0.00    +0.000 A 
ATOM     26  C   UNL     1       1.043   3.641  20.712  0.00  0.00    +0.000 A 
ATOM     27  C   UNL     1       0.977   3.060  19.451  0.00  0.00    +0.000 A 
ATOM     28  F   UNL     1       0.027   2.151  19.198  0.00  0.00    +0.000 F 
ATOM     29  C   UNL     1       1.870   3.418  18.444  0.00  0.00    +0.000 A 
ATOM     30  F   UNL     1       1.749   2.823  17.247  0.00  0.00    +0.000 F 
ENDBRANCH  19  22
ENDBRANCH   2  18
TORSDOF 6
ENDMDL
MODEL 4
REMARK VINA RESULT:      -7.6      3.986      6.331
REMARK  Name = 
REMARK  7 active torsions:
REMARK  status: ('A' for Active; 'I' for Inactive)
REMARK    1  A    between atoms: C_1  and  C_2
REMARK    2  A    between atoms: C_2  and  C_3
REMARK    3  A    between atoms: C_3  and  C_4
REMARK    4  A    between atoms: C_4  and  N_5
REMARK    5  A    between atoms: C_6  and  C_8
REMARK    6  A    between atoms: C_9  and  N_10
REMARK    7  A    between atoms: C_11  and  C_13
REMARK                            x       y       z     vdW  Elec       q    Type
REMARK                         _______ _______ _______ _____ _____    ______ ____
ROOT
ATOM      1  C   UNL     1       3.569   5.199  17.554  0.00  0.00    +0.000 A 
ATOM      2  C   UNL     1       3.897   6.441  18.085  0.00  0.00    +0.000 A 
ATOM      3  N   UNL     1       5.094   6.881  17.610  0.00  0.00    +0.000 NA
ATOM      4  C   UNL     1       5.530   5.952  16.802  0.00  0.00    +0.000 A 
ATOM      5  C   UNL     1       6.711   5.896  16.014  0.00  0.00    +0.000 A 
ATOM      6  C   UNL     1       6.923   4.840  15.208  0.00  0.00    +0.000 A 
ATOM      7  C   UNL     1       5.970   3.747  15.128  0.00  0.00    +0.000 A 
ATOM      8  C   UNL     1       4.858   3.792  15.885  0.00  0.00    +0.000 A 
ATOM      9  N   UNL     1       4.640   4.890  16.724  0.00  0.00    +0.000 N 
ENDROOT
BRANCH   1  11
ATOM     10  N   UNL     1       2.698   3.249  18.586  0.00  0.00    +0.000 N 
ATOM     11  C   UNL     1       2.450   4.321  17.755  0.00  0.00    +0.000 C 
ATOM     12  O   UNL     1       1.340   4.520  17.271  0.00  0.00    +0.000 OA
ATOM     13  H   UNL     1       3.463   3.348  19.242  0.00  0.00    +0.000 HD
BRANCH  10  14
ATOM     14  C   UNL     1       1.640   2.312  18.918  0.00  0.00    +0.000 C 
BRANCH  14  15
ATOM     15  C   UNL     1       0.746   2.885  20.010  0.00  0.00    +0.000 C 
BRANCH  15  17
ATOM     16  C   UNL     1       2.341   3.711  21.768  0.00  0.00    +0.000 C 
ATOM     17  C   UNL     1       1.330   2.637  21.398  0.00  0.00    +0.000 C 
ENDBRANCH  15  17
ENDBRANCH  14  15
ENDBRANCH  10  14
ENDBRANCH   1  11
BRANCH   2  18
ATOM     18  N   UNL     1       3.169   7.205  18.984  0.00  0.00    +0.000 N 
ATOM     19  C   UNL     1       2.162   8.086  18.591  0.00  0.00    +0.000 C 
ATOM     20  O   UNL     1       1.833   8.326  17.434  0.00  0.00    +0.000 OA
ATOM     21  H   UNL     1       3.409   7.102  19.961  0.00  0.00    +0.000 HD
BRANCH  19  22
ATOM     22  C   UNL     1       1.399   8.777  19.668  0.00  0.00    +0.000 A 
ATOM     23  C   UNL     1       1.007   8.080  20.825  0.00  0.00    +0.000 A 
ATOM     24  F   UNL     1       1.253   6.773  20.981  0.00  0.00    +0.000 F 
ATOM     25  C   UNL     1       0.346   8.725  21.877  0.00  0.00    +0.000 A 
ATOM     26  C   UNL     1       0.062  10.084  21.790  0.00  0.00    +0.000 A 
ATOM     27  C   UNL     1       0.433  10.776  20.643  0.00  0.00    +0.000 A 
ATOM     28  F   UNL     1       0.170  12.086  20.555  0.00  0.00    +0.000 F 
ATOM     29  C   UNL     1       1.087  10.135  19.594  0.00  0.00    +0.000 A 
ATOM     30  F   UNL     1       1.424  10.862  18.517  0.00  0.00    +0.000 F 
ENDBRANCH  19  22
ENDBRANCH   2  18
TORSDOF 6
ENDMDL
MODEL 5
REMARK VINA RESULT:      -7.5      4.017      6.109
REMARK  Name = 
REMARK  7 active torsions:
REMARK  status: ('A' for Active; 'I' for Inactive)
REMARK    1  A    between atoms: C_1  and  C_2
REMARK    2  A    between atoms: C_2  and  C_3
REMARK    3  A    between atoms: C_3  and  C_4
REMARK    4  A    between atoms: C_4  and  N_5
REMARK    5  A    between atoms: C_6  and  C_8
REMARK    6  A    between atoms: C_9  and  N_10
REMARK    7  A    between atoms: C_11  and  C_13
REMARK                            x       y       z     vdW  Elec       q    Type
REMARK                         _______ _______ _______ _____ _____    ______ ____
ROOT
ATOM      1  C   UNL     1       3.398   5.175  17.560  0.00  0.00    +0.000 A 
ATOM      2  C   UNL     1       3.586   6.474  18.015  0.00  0.00    +0.000 A 
ATOM      3  N   UNL     1       4.758   6.993  17.555  0.00  0.00    +0.000 NA
ATOM      4  C   UNL     1       5.312   6.059  16.830  0.00  0.00    +0.000 A 
ATOM      5  C   UNL     1       6.527   6.063  16.092  0.00  0.00    +0.000 A 
ATOM      6  C   UNL     1       6.869   4.981  15.370  0.00  0.00    +0.000 A 
ATOM      7  C   UNL     1       6.025   3.801  15.331  0.00  0.00    +0.000 A 
ATOM      8  C   UNL     1       4.882   3.789  16.041  0.00  0.00    +0.000 A 
ATOM      9  N   UNL     1       4.527   4.914  16.793  0.00  0.00    +0.000 N 
ENDROOT
BRANCH   1  11
ATOM     10  N   UNL     1       2.696   3.174  18.623  0.00  0.00    +0.000 N 
ATOM     11  C   UNL     1       2.357   4.210  17.779  0.00  0.00    +0.000 C 
ATOM     12  O   UNL     1       1.231   4.308  17.298  0.00  0.00    +0.000 OA
ATOM     13  H   UNL     1       3.453   3.346  19.274  0.00  0.00    +0.000 HD
BRANCH  10  14
ATOM     14  C   UNL     1       1.722   2.158  18.975  0.00  0.00    +0.000 C 
BRANCH  14  15
ATOM     15  C   UNL     1       1.018   2.523  20.275  0.00  0.00    +0.000 C 
BRANCH  15  17
ATOM     16  C   UNL     1       2.136   4.473  21.400  0.00  0.00    +0.000 C 
ATOM     17  C   UNL     1       2.012   2.958  21.347  0.00  0.00    +0.000 C 
ENDBRANCH  15  17
ENDBRANCH  14  15
ENDBRANCH  10  14
ENDBRANCH   1  11
BRANCH   2  18
ATOM     18  N   UNL     1       2.753   7.223  18.831  0.00  0.00    +0.000 N 
ATOM     19  C   UNL     1       2.126   8.394  18.405  0.00  0.00    +0.000 C 
ATOM     20  O   UNL     1       2.264   8.920  17.306  0.00  0.00    +0.000 OA
ATOM     21  H   UNL     1       2.621   6.883  19.774  0.00  0.00    +0.000 HD
BRANCH  19  22
ATOM     22  C   UNL     1       1.186   9.051  19.357  0.00  0.00    +0.000 A 
ATOM     23  C   UNL     1       0.196   9.932  18.887  0.00  0.00    +0.000 A 
ATOM     24  F   UNL     1       0.091  10.255  17.592  0.00  0.00    +0.000 F 
ATOM     25  C   UNL     1      -0.738  10.510  19.755  0.00  0.00    +0.000 A 
ATOM     26  C   UNL     1      -0.697  10.217  21.114  0.00  0.00    +0.000 A 
ATOM     27  C   UNL     1       0.288   9.358  21.587  0.00  0.00    +0.000 A 
ATOM     28  F   UNL     1       0.329   9.065  22.893  0.00  0.00    +0.000 F 
ATOM     29  C   UNL     1       1.220   8.786  20.725  0.00  0.00    +0.000 A 
ATOM     30  F   UNL     1       2.142   7.960  21.245  0.00  0.00    +0.000 F 
ENDBRANCH  19  22
ENDBRANCH   2  18
TORSDOF 6
ENDMDL
MODEL 6
REMARK VINA RESULT:      -7.5      4.132      6.551
REMARK  Name = 
REMARK  7 active torsions:
REMARK  status: ('A' for Active; 'I' for Inactive)
REMARK    1  A    between atoms: C_1  and  C_2
REMARK    2  A    between atoms: C_2  and  C_3
REMARK    3  A    between atoms: C_3  and  C_4
REMARK    4  A    between atoms: C_4  and  N_5
REMARK    5  A    between atoms: C_6  and  C_8
REMARK    6  A    between atoms: C_9  and  N_10
REMARK    7  A    between atoms: C_11  and  C_13
REMARK                            x       y       z     vdW  Elec       q    Type
REMARK                         _______ _______ _______ _____ _____    ______ ____
ROOT
ATOM      1  C   UNL     1       3.284   5.199  17.581  0.00  0.00    +0.000 A 
ATOM      2  C   UNL     1       3.405   6.522  17.990  0.00  0.00    +0.000 A 
ATOM      3  N   UNL     1       4.568   7.072  17.542  0.00  0.00    +0.000 NA
ATOM      4  C   UNL     1       5.180   6.135  16.871  0.00  0.00    +0.000 A 
ATOM      5  C   UNL     1       6.415   6.163  16.166  0.00  0.00    +0.000 A 
ATOM      6  C   UNL     1       6.823   5.069  15.497  0.00  0.00    +0.000 A 
ATOM      7  C   UNL     1       6.029   3.853  15.482  0.00  0.00    +0.000 A 
ATOM      8  C   UNL     1       4.867   3.821  16.160  0.00  0.00    +0.000 A 
ATOM      9  N   UNL     1       4.445   4.957  16.857  0.00  0.00    +0.000 N 
ENDROOT
BRANCH   1  11
ATOM     10  N   UNL     1       2.648   3.193  18.676  0.00  0.00    +0.000 N 
ATOM     11  C   UNL     1       2.278   4.201  17.810  0.00  0.00    +0.000 C 
ATOM     12  O   UNL     1       1.153   4.248  17.319  0.00  0.00    +0.000 OA
ATOM     13  H   UNL     1       3.393   3.405  19.329  0.00  0.00    +0.000 HD
BRANCH  10  14
ATOM     14  C   UNL     1       1.709   2.148  19.038  0.00  0.00    +0.000 C 
BRANCH  14  15
ATOM     15  C   UNL     1       1.040   2.470  20.367  0.00  0.00    +0.000 C 
BRANCH  15  17
ATOM     16  C   UNL     1       2.145   4.460  21.436  0.00  0.00    +0.000 C 
ATOM     17  C   UNL     1       2.056   2.942  21.404  0.00  0.00    +0.000 C 
ENDBRANCH  15  17
ENDBRANCH  14  15
ENDBRANCH  10  14
ENDBRANCH   1  11
BRANCH   2  18
ATOM     18  N   UNL     1       2.519   7.266  18.753  0.00  0.00    +0.000 N 
ATOM     19  C   UNL     1       2.055   8.524  18.367  0.00  0.00    +0.000 C 
ATOM     20  O   UNL     1       2.398   9.134  17.360  0.00  0.00    +0.000 OA
ATOM     21  H   UNL     1       2.220   6.854  19.626  0.00  0.00    +0.000 HD
BRANCH  19  22
ATOM     22  C   UNL     1       1.035   9.174  19.237  0.00  0.00    +0.000 A 
ATOM     23  C   UNL     1       1.147   9.108  20.637  0.00  0.00    +0.000 A 
ATOM     24  F   UNL     1       2.129   8.425  21.239  0.00  0.00    +0.000 F 
ATOM     25  C   UNL     1       0.236   9.765  21.473  0.00  0.00    +0.000 A 
ATOM     26  C   UNL     1      -0.808  10.500  20.922  0.00  0.00    +0.000 A 
ATOM     27  C   UNL     1      -0.932  10.557  19.539  0.00  0.00    +0.000 A 
ATOM     28  F   UNL     1      -1.930  11.270  19.000  0.00  0.00    +0.000 F 
ATOM     29  C   UNL     1      -0.029   9.901  18.706  0.00  0.00    +0.000 A 
ATOM     30  F   UNL     1      -0.202  10.001  17.378  0.00  0.00    +0.000 F 
ENDBRANCH  19  22
ENDBRANCH   2  18
TORSDOF 6
ENDMDL
MODEL 7
REMARK VINA RESULT:      -7.4      2.724      6.490
REMARK  Name = 
REMARK  7 active torsions:
REMARK  status: ('A' for Active; 'I' for Inactive)
REMARK    1  A    between atoms: C_1  and  C_2
REMARK    2  A    between atoms: C_2  and  C_3
REMARK    3  A    between atoms: C_3  and  C_4
REMARK    4  A    between atoms: C_4  and  N_5
REMARK    5  A    between atoms: C_6  and  C_8
REMARK    6  A    between atoms: C_9  and  N_10
REMARK    7  A    between atoms: C_11  and  C_13
REMARK                            x       y       z     vdW  Elec       q    Type
REMARK                         _______ _______ _______ _____ _____    ______ ____
ROOT
ATOM      1  C   UNL     1       4.286   3.777  18.440  0.00  0.00    +0.000 A 
ATOM      2  C   UNL     1       3.867   3.475  17.150  0.00  0.00    +0.000 A 
ATOM      3  N   UNL     1       2.550   3.131  17.127  0.00  0.00    +0.000 NA
ATOM      4  C   UNL     1       2.132   3.202  18.362  0.00  0.00    +0.000 A 
ATOM      5  C   UNL     1       0.842   2.975  18.913  0.00  0.00    +0.000 A 
ATOM      6  C   UNL     1       0.639   3.163  20.230  0.00  0.00    +0.000 A 
ATOM      7  C   UNL     1       1.715   3.589  21.107  0.00  0.00    +0.000 A 
ATOM      8  C   UNL     1       2.941   3.790  20.589  0.00  0.00    +0.000 A 
ATOM      9  N   UNL     1       3.151   3.593  19.220  0.00  0.00    +0.000 N 
ENDROOT
BRANCH   1  11
ATOM     10  N   UNL     1       6.547   4.378  18.045  0.00  0.00    +0.000 N 
ATOM     11  C   UNL     1       5.559   4.162  18.982  0.00  0.00    +0.000 C 
ATOM     12  O   UNL     1       5.758   4.336  20.182  0.00  0.00    +0.000 OA
ATOM     13  H   UNL     1       6.242   4.602  17.106  0.00  0.00    +0.000 HD
BRANCH  10  14
ATOM     14  C   UNL     1       7.866   4.824  18.451  0.00  0.00    +0.000 C 
BRANCH  14  15
ATOM     15  C   UNL     1       7.832   6.293  18.850  0.00  0.00    +0.000 C 
BRANCH  15  17
ATOM     16  C   UNL     1       8.039   8.558  17.779  0.00  0.00    +0.000 C 
ATOM     17  C   UNL     1       7.405   7.180  17.683  0.00  0.00    +0.000 C 
ENDBRANCH  15  17
ENDBRANCH  14  15
ENDBRANCH  10  14
ENDBRANCH   1  11
BRANCH   2  18
ATOM     18  N   UNL     1       4.614   3.492  15.982  0.00  0.00    +0.000 N 
ATOM     19  C   UNL     1       5.058   4.670  15.382  0.00  0.00    +0.000 C 
ATOM     20  O   UNL     1       4.813   5.807  15.770  0.00  0.00    +0.000 OA
ATOM     21  H   UNL     1       4.822   2.593  15.568  0.00  0.00    +0.000 HD
BRANCH  19  22
ATOM     22  C   UNL     1       5.928   4.538  14.179  0.00  0.00    +0.000 A 
ATOM     23  C   UNL     1       5.472   3.851  13.040  0.00  0.00    +0.000 A 
ATOM     24  F   UNL     1       4.276   3.251  13.007  0.00  0.00    +0.000 F 
ATOM     25  C   UNL     1       6.248   3.770  11.878  0.00  0.00    +0.000 A 
ATOM     26  C   UNL     1       7.500   4.376  11.834  0.00  0.00    +0.000 A 
ATOM     27  C   UNL     1       7.962   5.043  12.961  0.00  0.00    +0.000 A 
ATOM     28  F   UNL     1       9.163   5.636  12.925  0.00  0.00    +0.000 F 
ATOM     29  C   UNL     1       7.194   5.121  14.120  0.00  0.00    +0.000 A 
ATOM     30  F   UNL     1       7.697   5.786  15.172  0.00  0.00    +0.000 F 
ENDBRANCH  19  22
ENDBRANCH   2  18
TORSDOF 6
ENDMDL
MODEL 8
REMARK VINA RESULT:      -7.4      4.469      6.578
REMARK  Name = 
REMARK  7 active torsions:
REMARK  status: ('A' for Active; 'I' for Inactive)
REMARK    1  A    between atoms: C_1  and  C_2
REMARK    2  A    between atoms: C_2  and  C_3
REMARK    3  A    between atoms: C_3  and  C_4
REMARK    4  A    between atoms: C_4  and  N_5
REMARK    5  A    between atoms: C_6  and  C_8
REMARK    6  A    between atoms: C_9  and  N_10
REMARK    7  A    between atoms: C_11  and  C_13
REMARK                            x       y       z     vdW  Elec       q    Type
REMARK                         _______ _______ _______ _____ _____    ______ ____
ROOT
ATOM      1  C   UNL     1       3.007   5.711  17.774  0.00  0.00    +0.000 A 
ATOM      2  C   UNL     1       3.140   7.094  17.791  0.00  0.00    +0.000 A 
ATOM      3  N   UNL     1       4.342   7.480  17.282  0.00  0.00    +0.000 NA
ATOM      4  C   UNL     1       4.968   6.383  16.951  0.00  0.00    +0.000 A 
ATOM      5  C   UNL     1       6.243   6.195  16.352  0.00  0.00    +0.000 A 
ATOM      6  C   UNL     1       6.661   4.951  16.055  0.00  0.00    +0.000 A 
ATOM      7  C   UNL     1       5.836   3.789  16.338  0.00  0.00    +0.000 A 
ATOM      8  C   UNL     1       4.635   3.965  16.919  0.00  0.00    +0.000 A 
ATOM      9  N   UNL     1       4.203   5.259  17.229  0.00  0.00    +0.000 N 
ENDROOT
BRANCH   1  11
ATOM     10  N   UNL     1       1.849   4.703  19.583  0.00  0.00    +0.000 N 
ATOM     11  C   UNL     1       1.961   4.830  18.214  0.00  0.00    +0.000 C 
ATOM     12  O   UNL     1       1.188   4.262  17.448  0.00  0.00    +0.000 OA
ATOM     13  H   UNL     1       2.223   5.460  20.142  0.00  0.00    +0.000 HD
BRANCH  10  14
ATOM     14  C   UNL     1       0.800   3.887  20.165  0.00  0.00    +0.000 C 
BRANCH  14  15
ATOM     15  C   UNL     1       1.365   2.555  20.642  0.00  0.00    +0.000 C 
BRANCH  15  17
ATOM     16  C   UNL     1       3.863   2.315  20.484  0.00  0.00    +0.000 C 
ATOM     17  C   UNL     1       2.697   2.740  21.364  0.00  0.00    +0.000 C 
ENDBRANCH  15  17
ENDBRANCH  14  15
ENDBRANCH  10  14
ENDBRANCH   1  11
BRANCH   2  18
ATOM     18  N   UNL     1       2.230   8.035  18.246  0.00  0.00    +0.000 N 
ATOM     19  C   UNL     1       1.850   8.138  19.585  0.00  0.00    +0.000 C 
ATOM     20  O   UNL     1       2.223   7.403  20.493  0.00  0.00    +0.000 OA
ATOM     21  H   UNL     1       1.836   8.655  17.551  0.00  0.00    +0.000 HD
BRANCH  19  22
ATOM     22  C   UNL     1       0.932   9.253  19.951  0.00  0.00    +0.000 A 
ATOM     23  C   UNL     1       0.145   9.881  18.969  0.00  0.00    +0.000 A 
ATOM     24  F   UNL     1       0.225   9.545  17.676  0.00  0.00    +0.000 F 
ATOM     25  C   UNL     1      -0.770  10.887  19.301  0.00  0.00    +0.000 A 
ATOM     26  C   UNL     1      -0.915  11.285  20.626  0.00  0.00    +0.000 A 
ATOM     27  C   UNL     1      -0.130  10.679  21.599  0.00  0.00    +0.000 A 
ATOM     28  F   UNL     1      -0.268  11.051  22.878  0.00  0.00    +0.000 F 
ATOM     29  C   UNL     1       0.785   9.681  21.270  0.00  0.00    +0.000 A 
ATOM     30  F   UNL     1       1.508   9.131  22.259  0.00  0.00    +0.000 F 
ENDBRANCH  19  22
ENDBRANCH   2  18
TORSDOF 6
ENDMDL
MODEL 9
REMARK VINA RESULT:      -7.4      4.576      6.284
REMARK  Name = 
REMARK  7 active torsions:
REMARK  status: ('A' for Active; 'I' for Inactive)
REMARK    1  A    between atoms: C_1  and  C_2
REMARK    2  A    between atoms: C_2  and  C_3
REMARK    3  A    between atoms: C_3  and  C_4
REMARK    4  A    between atoms: C_4  and  N_5
REMARK    5  A    between atoms: C_6  and  C_8
REMARK    6  A    between atoms: C_9  and  N_10
REMARK    7  A    between atoms: C_11  and  C_13
REMARK                            x       y       z     vdW  Elec       q    Type
REMARK                         _______ _______ _______ _____ _____    ______ ____
ROOT
ATOM      1  C   UNL     1       3.542   5.747  18.381  0.00  0.00    +0.000 A 
ATOM      2  C   UNL     1       2.559   6.272  19.211  0.00  0.00    +0.000 A 
ATOM      3  N   UNL     1       1.741   5.294  19.687  0.00  0.00    +0.000 NA
ATOM      4  C   UNL     1       2.177   4.173  19.179  0.00  0.00    +0.000 A 
ATOM      5  C   UNL     1       1.719   2.840  19.358  0.00  0.00    +0.000 A 
ATOM      6  C   UNL     1       2.370   1.827  18.759  0.00  0.00    +0.000 A 
ATOM      7  C   UNL     1       3.536   2.066  17.925  0.00  0.00    +0.000 A 
ATOM      8  C   UNL     1       3.962   3.329  17.743  0.00  0.00    +0.000 A 
ATOM      9  N   UNL     1       3.282   4.382  18.365  0.00  0.00    +0.000 N 
ENDROOT
BRANCH   1  11
ATOM     10  N   UNL     1       5.874   5.961  18.000  0.00  0.00    +0.000 N 
ATOM     11  C   UNL     1       4.605   6.353  17.629  0.00  0.00    +0.000 C 
ATOM     12  O   UNL     1       4.417   7.128  16.695  0.00  0.00    +0.000 OA
ATOM     13  H   UNL     1       5.954   5.069  18.474  0.00  0.00    +0.000 HD
BRANCH  10  14
ATOM     14  C   UNL     1       7.038   6.455  17.289  0.00  0.00    +0.000 C 
BRANCH  14  15
ATOM     15  C   UNL     1       7.882   7.337  18.198  0.00  0.00    +0.000 C 
BRANCH  15  17
ATOM     16  C   UNL     1       8.813   9.643  18.566  0.00  0.00    +0.000 C 
ATOM     17  C   UNL     1       7.845   8.797  17.754  0.00  0.00    +0.000 C 
ENDBRANCH  15  17
ENDBRANCH  14  15
ENDBRANCH  10  14
ENDBRANCH   1  11
BRANCH   2  18
ATOM     18  N   UNL     1       2.356   7.598  19.563  0.00  0.00    +0.000 N 
ATOM     19  C   UNL     1       1.699   8.510  18.738  0.00  0.00    +0.000 C 
ATOM     20  O   UNL     1       1.272   8.278  17.612  0.00  0.00    +0.000 OA
ATOM     21  H   UNL     1       2.720   7.886  20.461  0.00  0.00    +0.000 HD
BRANCH  19  22
ATOM     22  C   UNL     1       1.470   9.879  19.279  0.00  0.00    +0.000 A 
ATOM     23  C   UNL     1       1.928  11.009  18.578  0.00  0.00    +0.000 A 
ATOM     24  F   UNL     1       2.626  10.902  17.440  0.00  0.00    +0.000 F 
ATOM     25  C   UNL     1       1.669  12.306  19.036  0.00  0.00    +0.000 A 
ATOM     26  C   UNL     1       0.944  12.498  20.208  0.00  0.00    +0.000 A 
ATOM     27  C   UNL     1       0.500  11.385  20.913  0.00  0.00    +0.000 A 
ATOM     28  F   UNL     1      -0.205  11.561  22.037  0.00  0.00    +0.000 F 
ATOM     29  C   UNL     1       0.761  10.094  20.461  0.00  0.00    +0.000 A 
ATOM     30  F   UNL     1       0.299   9.062  21.185  0.00  0.00    +0.000 F 
ENDBRANCH  19  22
ENDBRANCH   2  18
TORSDOF 6
ENDMDL
