MODEL 1
REMARK VINA RESULT:      -7.1      0.000      0.000
REMARK  Name = 
REMARK  6 active torsions:
REMARK  status: ('A' for Active; 'I' for Inactive)
REMARK    1  A    between atoms: C_1  and  C_2
REMARK    2  A    between atoms: C_2  and  C_3
REMARK    3  A    between atoms: C_2  and  N_4
REMARK    4  A    between atoms: N_9  and  C_10
REMARK    5  A    between atoms: N_19  and  C_20
REMARK    6  A    between atoms: C_25  and  N_26
REMARK                            x       y       z     vdW  Elec       q    Type
REMARK                         _______ _______ _______ _____ _____    ______ ____
ROOT
ATOM      1  N   UNL     1       2.725   4.222  19.942  0.00  0.00    +0.000 N 
ATOM      2  C   UNL     1       3.825   3.567  19.462  0.00  0.00    +0.000 A 
ATOM      3  N   UNL     1       4.583   4.351  18.732  0.00  0.00    +0.000 NA
ATOM      4  C   UNL     1       3.922   5.565  18.717  0.00  0.00    +0.000 A 
ATOM      5  C   UNL     1       4.222   6.791  18.103  0.00  0.00    +0.000 A 
ATOM      6  N   UNL     1       5.332   6.967  17.268  0.00  0.00    +0.000 N 
ATOM      7  N   UNL     1       3.388   7.841  18.339  0.00  0.00    +0.000 NA
ATOM      8  C   UNL     1       2.264   7.657  19.061  0.00  0.00    +0.000 A 
ATOM      9  N   UNL     1       1.370   8.703  19.199  0.00  0.00    +0.000 N 
ATOM     10  N   UNL     1       1.890   6.509  19.667  0.00  0.00    +0.000 NA
ATOM     11  C   UNL     1       2.758   5.513  19.468  0.00  0.00    +0.000 A 
ATOM     12  H   UNL     1       5.840   7.819  17.460  0.00  0.00    +0.000 HD
ATOM     13  H   UNL     1       0.518   8.356  19.620  0.00  0.00    +0.000 HD
ENDROOT
BRANCH   6  14
ATOM     14  C   UNL     1       5.867   6.057  16.344  0.00  0.00    +0.000 A 
ATOM     15  C   UNL     1       7.202   5.619  16.431  0.00  0.00    +0.000 A 
ATOM     16  C   UNL     1       7.750   4.741  15.497  0.00  0.00    +0.000 A 
ATOM     17  C   UNL     1       6.965   4.278  14.453  0.00  0.00    +0.000 A 
ATOM     18  C   UNL     1       5.640   4.702  14.348  0.00  0.00    +0.000 A 
ATOM     19 CL   UNL     1       4.667   4.117  13.052  0.00  0.00    +0.000 Cl
ATOM     20  C   UNL     1       5.091   5.584  15.284  0.00  0.00    +0.000 A 
ENDBRANCH   6  14
BRANCH   9  21
ATOM     21  C   UNL     1       1.251   9.709  18.139  0.00  0.00    +0.000 C 
ATOM     22  C   UNL     1      -0.205   9.986  17.713  0.00  0.00    +0.000 C 
ATOM     23  C   UNL     1      -1.021  10.696  18.791  0.00  0.00    +0.000 C 
ATOM     24  C   UNL     1      -0.358  11.992  19.245  0.00  0.00    +0.000 C 
ATOM     25  C   UNL     1       1.092  11.765  19.672  0.00  0.00    +0.000 C 
ATOM     26  C   UNL     1       1.937  11.039  18.606  0.00  0.00    +0.000 C 
BRANCH  26  27
ATOM     27  N   UNL     1       2.209  11.972  17.494  0.00  0.00    +0.000 NA
ATOM     28  H   UNL     1       1.744  11.658  16.644  0.00  0.00    +0.000 HD
ATOM     29  H   UNL     1       3.203  11.976  17.292  0.00  0.00    +0.000 HD
ENDBRANCH  26  27
ENDBRANCH   9  21
BRANCH   1  31
ATOM     30  C   UNL     1       0.560   2.996  20.078  0.00  0.00    +0.000 C 
ATOM     31  C   UNL     1       1.718   3.656  20.831  0.00  0.00    +0.000 C 
ATOM     32  C   UNL     1       2.337   2.657  21.813  0.00  0.00    +0.000 C 
ENDBRANCH   1  31
TORSDOF 4
ENDMDL
MODEL 2
REMARK VINA RESULT:      -6.9      0.963      1.182
REMARK  Name = 
REMARK  6 active torsions:
REMARK  status: ('A' for Active; 'I' for Inactive)
REMARK    1  A    between atoms: C_1  and  C_2
REMARK    2  A    between atoms: C_2  and  C_3
REMARK    3  A    between atoms: C_2  and  N_4
REMARK    4  A    between atoms: N_9  and  C_10
REMARK    5  A    between atoms: N_19  and  C_20
REMARK    6  A    between atoms: C_25  and  N_26
REMARK                            x       y       z     vdW  Elec       q    Type
REMARK                         _______ _______ _______ _____ _____    ______ ____
ROOT
ATOM      1  N   UNL     1       2.949   4.141  19.862  0.00  0.00    +0.000 N 
ATOM      2  C   UNL     1       3.936   3.433  19.236  0.00  0.00    +0.000 A 
ATOM      3  N   UNL     1       4.603   4.172  18.382  0.00  0.00    +0.000 NA
ATOM      4  C   UNL     1       3.996   5.412  18.440  0.00  0.00    +0.000 A 
ATOM      5  C   UNL     1       4.246   6.614  17.760  0.00  0.00    +0.000 A 
ATOM      6  N   UNL     1       5.221   6.730  16.763  0.00  0.00    +0.000 N 
ATOM      7  N   UNL     1       3.499   7.703  18.097  0.00  0.00    +0.000 NA
ATOM      8  C   UNL     1       2.492   7.577  18.985  0.00  0.00    +0.000 A 
ATOM      9  N   UNL     1       1.671   8.662  19.233  0.00  0.00    +0.000 N 
ATOM     10  N   UNL     1       2.171   6.456  19.666  0.00  0.00    +0.000 NA
ATOM     11  C   UNL     1       2.959   5.421  19.360  0.00  0.00    +0.000 A 
ATOM     12  H   UNL     1       5.785   7.563  16.856  0.00  0.00    +0.000 HD
ATOM     13  H   UNL     1       0.880   8.358  19.786  0.00  0.00    +0.000 HD
ENDROOT
BRANCH   6  14
ATOM     14  C   UNL     1       5.573   5.784  15.788  0.00  0.00    +0.000 A 
ATOM     15  C   UNL     1       4.863   4.578  15.645  0.00  0.00    +0.000 A 
ATOM     16  C   UNL     1       5.227   3.618  14.702  0.00  0.00    +0.000 A 
ATOM     17  C   UNL     1       6.315   3.852  13.875  0.00  0.00    +0.000 A 
ATOM     18  C   UNL     1       7.034   5.041  14.003  0.00  0.00    +0.000 A 
ATOM     19 CL   UNL     1       8.381   5.329  12.969  0.00  0.00    +0.000 Cl
ATOM     20  C   UNL     1       6.669   6.002  14.951  0.00  0.00    +0.000 A 
ENDBRANCH   6  14
BRANCH   9  21
ATOM     21  C   UNL     1       1.430   9.655  18.181  0.00  0.00    +0.000 C 
ATOM     22  C   UNL     1      -0.058   9.812  17.810  0.00  0.00    +0.000 C 
ATOM     23  C   UNL     1      -0.888  10.452  18.920  0.00  0.00    +0.000 C 
ATOM     24  C   UNL     1      -0.317  11.798  19.352  0.00  0.00    +0.000 C 
ATOM     25  C   UNL     1       1.161  11.690  19.725  0.00  0.00    +0.000 C 
ATOM     26  C   UNL     1       2.022  11.037  18.627  0.00  0.00    +0.000 C 
BRANCH  26  27
ATOM     27  N   UNL     1       2.176  11.988  17.508  0.00  0.00    +0.000 NA
ATOM     28  H   UNL     1       3.160  12.199  17.352  0.00  0.00    +0.000 HD
ATOM     29  H   UNL     1       1.730  12.868  17.749  0.00  0.00    +0.000 HD
ENDBRANCH  26  27
ENDBRANCH   9  21
BRANCH   1  31
ATOM     30  C   UNL     1       0.683   3.243  20.382  0.00  0.00    +0.000 C 
ATOM     31  C   UNL     1       2.068   3.632  20.906  0.00  0.00    +0.000 C 
ATOM     32  C   UNL     1       2.698   2.446  21.642  0.00  0.00    +0.000 C 
ENDBRANCH   1  31
TORSDOF 4
ENDMDL
MODEL 3
REMARK VINA RESULT:      -6.8      0.801      1.051
REMARK  Name = 
REMARK  6 active torsions:
REMARK  status: ('A' for Active; 'I' for Inactive)
REMARK    1  A    between atoms: C_1  and  C_2
REMARK    2  A    between atoms: C_2  and  C_3
REMARK    3  A    between atoms: C_2  and  N_4
REMARK    4  A    between atoms: N_9  and  C_10
REMARK    5  A    between atoms: N_19  and  C_20
REMARK    6  A    between atoms: C_25  and  N_26
REMARK                            x       y       z     vdW  Elec       q    Type
REMARK                         _______ _______ _______ _____ _____    ______ ____
ROOT
ATOM      1  N   UNL     1       3.068   3.664  19.277  0.00  0.00    +0.000 N 
ATOM      2  C   UNL     1       4.111   3.028  18.661  0.00  0.00    +0.000 A 
ATOM      3  N   UNL     1       4.808   3.847  17.911  0.00  0.00    +0.000 NA
ATOM      4  C   UNL     1       4.166   5.065  18.026  0.00  0.00    +0.000 A 
ATOM      5  C   UNL     1       4.426   6.321  17.457  0.00  0.00    +0.000 A 
ATOM      6  N   UNL     1       5.456   6.536  16.534  0.00  0.00    +0.000 N 
ATOM      7  N   UNL     1       3.631   7.364  17.829  0.00  0.00    +0.000 NA
ATOM      8  C   UNL     1       2.575   7.148  18.640  0.00  0.00    +0.000 A 
ATOM      9  N   UNL     1       1.713   8.191  18.919  0.00  0.00    +0.000 N 
ATOM     10  N   UNL     1       2.243   5.970  19.211  0.00  0.00    +0.000 NA
ATOM     11  C   UNL     1       3.076   4.980  18.877  0.00  0.00    +0.000 A 
ATOM     12  H   UNL     1       5.991   7.371  16.726  0.00  0.00    +0.000 HD
ATOM     13  H   UNL     1       0.898   7.829  19.397  0.00  0.00    +0.000 HD
ENDROOT
BRANCH   6  14
ATOM     14  C   UNL     1       5.891   5.676  15.514  0.00  0.00    +0.000 A 
ATOM     15  C   UNL     1       7.256   5.391  15.326  0.00  0.00    +0.000 A 
ATOM     16  C   UNL     1       7.699   4.565  14.294  0.00  0.00    +0.000 A 
ATOM     17  C   UNL     1       6.775   4.001  13.427  0.00  0.00    +0.000 A 
ATOM     18  C   UNL     1       5.418   4.273  13.596  0.00  0.00    +0.000 A 
ATOM     19 CL   UNL     1       4.274   3.565  12.521  0.00  0.00    +0.000 Cl
ATOM     20  C   UNL     1       4.975   5.104  14.630  0.00  0.00    +0.000 A 
ENDBRANCH   6  14
BRANCH   9  21
ATOM     21  C   UNL     1       1.511   9.258  17.933  0.00  0.00    +0.000 C 
ATOM     22  C   UNL     1       0.028   9.504  17.586  0.00  0.00    +0.000 C 
ATOM     23  C   UNL     1      -0.766  10.109  18.741  0.00  0.00    +0.000 C 
ATOM     24  C   UNL     1      -0.133  11.399  19.251  0.00  0.00    +0.000 C 
ATOM     25  C   UNL     1       1.341  11.203  19.604  0.00  0.00    +0.000 C 
ATOM     26  C   UNL     1       2.166  10.582  18.459  0.00  0.00    +0.000 C 
BRANCH  26  27
ATOM     27  N   UNL     1       2.355  11.595  17.401  0.00  0.00    +0.000 NA
ATOM     28  H   UNL     1       2.473  11.145  16.494  0.00  0.00    +0.000 HD
ATOM     29  H   UNL     1       3.210  12.112  17.577  0.00  0.00    +0.000 HD
ENDBRANCH  26  27
ENDBRANCH   9  21
BRANCH   1  31
ATOM     30  C   UNL     1       2.185   3.709  21.608  0.00  0.00    +0.000 C 
ATOM     31  C   UNL     1       2.140   3.056  20.223  0.00  0.00    +0.000 C 
ATOM     32  C   UNL     1       0.705   3.073  19.687  0.00  0.00    +0.000 C 
ENDBRANCH   1  31
TORSDOF 4
ENDMDL
MODEL 4
REMARK VINA RESULT:      -6.2      5.821      9.374
REMARK  Name = 
REMARK  6 active torsions:
REMARK  status: ('A' for Active; 'I' for Inactive)
REMARK    1  A    between atoms: C_1  and  C_2
REMARK    2  A    between atoms: C_2  and  C_3
REMARK    3  A    between atoms: C_2  and  N_4
REMARK    4  A    between atoms: N_9  and  C_10
REMARK    5  A    between atoms: N_19  and  C_20
REMARK    6  A    between atoms: C_25  and  N_26
REMARK                            x       y       z     vdW  Elec       q    Type
REMARK                         _______ _______ _______ _____ _____    ______ ____
ROOT
ATOM      1  N   UNL     1       1.035  11.145  19.329  0.00  0.00    +0.000 N 
ATOM      2  C   UNL     1       1.958  11.823  18.582  0.00  0.00    +0.000 A 
ATOM      3  N   UNL     1       2.062  13.077  18.953  0.00  0.00    +0.000 NA
ATOM      4  C   UNL     1       1.138  13.221  19.971  0.00  0.00    +0.000 A 
ATOM      5  C   UNL     1       0.773  14.324  20.759  0.00  0.00    +0.000 A 
ATOM      6  N   UNL     1       1.310  15.602  20.567  0.00  0.00    +0.000 N 
ATOM      7  N   UNL     1      -0.143  14.123  21.748  0.00  0.00    +0.000 NA
ATOM      8  C   UNL     1      -0.739  12.920  21.877  0.00  0.00    +0.000 A 
ATOM      9  N   UNL     1      -1.746  12.761  22.810  0.00  0.00    +0.000 N 
ATOM     10  N   UNL     1      -0.463  11.817  21.148  0.00  0.00    +0.000 NA
ATOM     11  C   UNL     1       0.483  12.028  20.228  0.00  0.00    +0.000 A 
ATOM     12  H   UNL     1       1.579  16.052  21.431  0.00  0.00    +0.000 HD
ATOM     13  H   UNL     1      -2.192  11.865  22.666  0.00  0.00    +0.000 HD
ENDROOT
BRANCH   6  14
ATOM     14  C   UNL     1       1.633  16.227  19.353  0.00  0.00    +0.000 A 
ATOM     15  C   UNL     1       2.926  16.143  18.805  0.00  0.00    +0.000 A 
ATOM     16  C   UNL     1       3.263  16.788  17.616  0.00  0.00    +0.000 A 
ATOM     17  C   UNL     1       2.303  17.532  16.946  0.00  0.00    +0.000 A 
ATOM     18  C   UNL     1       1.016  17.628  17.475  0.00  0.00    +0.000 A 
ATOM     19 CL   UNL     1      -0.175  18.547  16.636  0.00  0.00    +0.000 Cl
ATOM     20  C   UNL     1       0.679  16.983  18.669  0.00  0.00    +0.000 A 
ENDBRANCH   6  14
BRANCH   9  21
ATOM     21  C   UNL     1      -2.598  13.900  23.169  0.00  0.00    +0.000 C 
ATOM     22  C   UNL     1      -3.744  14.153  22.167  0.00  0.00    +0.000 C 
ATOM     23  C   UNL     1      -4.808  13.059  22.186  0.00  0.00    +0.000 C 
ATOM     24  C   UNL     1      -5.380  12.845  23.583  0.00  0.00    +0.000 C 
ATOM     25  C   UNL     1      -4.277  12.596  24.611  0.00  0.00    +0.000 C 
ATOM     26  C   UNL     1      -3.181  13.680  24.608  0.00  0.00    +0.000 C 
BRANCH  26  27
ATOM     27  N   UNL     1      -3.726  14.914  25.207  0.00  0.00    +0.000 NA
ATOM     28  H   UNL     1      -4.559  14.706  25.755  0.00  0.00    +0.000 HD
ATOM     29  H   UNL     1      -4.019  15.547  24.470  0.00  0.00    +0.000 HD
ENDBRANCH  26  27
ENDBRANCH   9  21
BRANCH   1  31
ATOM     30  C   UNL     1       1.377   9.068  17.994  0.00  0.00    +0.000 C 
ATOM     31  C   UNL     1       0.723   9.726  19.213  0.00  0.00    +0.000 C 
ATOM     32  C   UNL     1       1.106   8.963  20.483  0.00  0.00    +0.000 C 
ENDBRANCH   1  31
TORSDOF 4
ENDMDL
MODEL 5
REMARK VINA RESULT:      -6.1      6.557     10.594
REMARK  Name = 
REMARK  6 active torsions:
REMARK  status: ('A' for Active; 'I' for Inactive)
REMARK    1  A    between atoms: C_1  and  C_2
REMARK    2  A    between atoms: C_2  and  C_3
REMARK    3  A    between atoms: C_2  and  N_4
REMARK    4  A    between atoms: N_9  and  C_10
REMARK    5  A    between atoms: N_19  and  C_20
REMARK    6  A    between atoms: C_25  and  N_26
REMARK                            x       y       z     vdW  Elec       q    Type
REMARK                         _______ _______ _______ _____ _____    ______ ____
ROOT
ATOM      1  N   UNL     1      -0.616  11.877  18.864  0.00  0.00    +0.000 N 
ATOM      2  C   UNL     1       0.328  12.696  18.308  0.00  0.00    +0.000 A 
ATOM      3  N   UNL     1       0.230  13.926  18.751  0.00  0.00    +0.000 NA
ATOM      4  C   UNL     1      -0.849  13.906  19.614  0.00  0.00    +0.000 A 
ATOM      5  C   UNL     1      -1.453  14.910  20.387  0.00  0.00    +0.000 A 
ATOM      6  N   UNL     1      -1.042  16.248  20.345  0.00  0.00    +0.000 N 
ATOM      7  N   UNL     1      -2.481  14.551  21.206  0.00  0.00    +0.000 NA
ATOM      8  C   UNL     1      -2.948  13.285  21.180  0.00  0.00    +0.000 A 
ATOM      9  N   UNL     1      -4.062  12.962  21.932  0.00  0.00    +0.000 N 
ATOM     10  N   UNL     1      -2.440  12.267  20.452  0.00  0.00    +0.000 NA
ATOM     11  C   UNL     1      -1.395  12.636  19.706  0.00  0.00    +0.000 A 
ATOM     12  H   UNL     1      -0.961  16.666  21.261  0.00  0.00    +0.000 HD
ATOM     13  H   UNL     1      -4.376  12.035  21.676  0.00  0.00    +0.000 HD
ENDROOT
BRANCH   6  14
ATOM     14  C   UNL     1      -0.610  16.981  19.229  0.00  0.00    +0.000 A 
ATOM     15  C   UNL     1      -1.475  17.853  18.543  0.00  0.00    +0.000 A 
ATOM     16  C   UNL     1      -1.063  18.559  17.414  0.00  0.00    +0.000 A 
ATOM     17  C   UNL     1       0.235  18.408  16.950  0.00  0.00    +0.000 A 
ATOM     18  C   UNL     1       1.107  17.546  17.615  0.00  0.00    +0.000 A 
ATOM     19 CL   UNL     1       2.720  17.367  17.039  0.00  0.00    +0.000 Cl
ATOM     20  C   UNL     1       0.692  16.836  18.746  0.00  0.00    +0.000 A 
ENDBRANCH   6  14
BRANCH   9  21
ATOM     21  C   UNL     1      -5.083  13.979  22.205  0.00  0.00    +0.000 C 
ATOM     22  C   UNL     1      -6.366  13.805  21.368  0.00  0.00    +0.000 C 
ATOM     23  C   UNL     1      -7.171  12.567  21.755  0.00  0.00    +0.000 C 
ATOM     24  C   UNL     1      -7.516  12.555  23.241  0.00  0.00    +0.000 C 
ATOM     25  C   UNL     1      -6.271  12.730  24.110  0.00  0.00    +0.000 C 
ATOM     26  C   UNL     1      -5.432  13.967  23.734  0.00  0.00    +0.000 C 
BRANCH  26  27
ATOM     27  N   UNL     1      -6.146  15.182  24.174  0.00  0.00    +0.000 NA
ATOM     28  H   UNL     1      -5.593  16.014  23.970  0.00  0.00    +0.000 HD
ATOM     29  H   UNL     1      -6.264  15.158  25.181  0.00  0.00    +0.000 HD
ENDBRANCH  26  27
ENDBRANCH   9  21
BRANCH   1  31
ATOM     30  C   UNL     1      -1.763  10.104  17.540  0.00  0.00    +0.000 C 
ATOM     31  C   UNL     1      -0.743  10.444  18.631  0.00  0.00    +0.000 C 
ATOM     32  C   UNL     1       0.609   9.809  18.294  0.00  0.00    +0.000 C 
ENDBRANCH   1  31
TORSDOF 4
ENDMDL
MODEL 6
REMARK VINA RESULT:      -6.0      5.736      9.796
REMARK  Name = 
REMARK  6 active torsions:
REMARK  status: ('A' for Active; 'I' for Inactive)
REMARK    1  A    between atoms: C_1  and  C_2
REMARK    2  A    between atoms: C_2  and  C_3
REMARK    3  A    between atoms: C_2  and  N_4
REMARK    4  A    between atoms: N_9  and  C_10
REMARK    5  A    between atoms: N_19  and  C_20
REMARK    6  A    between atoms: C_25  and  N_26
REMARK                            x       y       z     vdW  Elec       q    Type
REMARK                         _______ _______ _______ _____ _____    ______ ____
ROOT
ATOM      1  N   UNL     1      -0.188  15.356  19.972  0.00  0.00    +0.000 N 
ATOM      2  C   UNL     1       0.719  14.606  19.276  0.00  0.00    +0.000 A 
ATOM      3  N   UNL     1       0.253  13.413  18.993  0.00  0.00    +0.000 NA
ATOM      4  C   UNL     1      -1.006  13.382  19.561  0.00  0.00    +0.000 A 
ATOM      5  C   UNL     1      -1.991  12.383  19.609  0.00  0.00    +0.000 A 
ATOM      6  N   UNL     1      -1.795  11.102  19.081  0.00  0.00    +0.000 N 
ATOM      7  N   UNL     1      -3.180  12.690  20.199  0.00  0.00    +0.000 NA
ATOM      8  C   UNL     1      -3.343  13.888  20.798  0.00  0.00    +0.000 A 
ATOM      9  N   UNL     1      -4.512  14.145  21.489  0.00  0.00    +0.000 N 
ATOM     10  N   UNL     1      -2.442  14.894  20.816  0.00  0.00    +0.000 NA
ATOM     11  C   UNL     1      -1.309  14.586  20.178  0.00  0.00    +0.000 A 
ATOM     12  H   UNL     1      -2.583  10.772  18.541  0.00  0.00    +0.000 HD
ATOM     13  H   UNL     1      -4.407  15.006  22.008  0.00  0.00    +0.000 HD
ENDROOT
BRANCH   6  14
ATOM     14  C   UNL     1      -0.622  10.333  19.099  0.00  0.00    +0.000 A 
ATOM     15  C   UNL     1       0.075  10.026  17.916  0.00  0.00    +0.000 A 
ATOM     16  C   UNL     1       1.222   9.235  17.922  0.00  0.00    +0.000 A 
ATOM     17  C   UNL     1       1.701   8.736  19.124  0.00  0.00    +0.000 A 
ATOM     18  C   UNL     1       1.024   9.028  20.308  0.00  0.00    +0.000 A 
ATOM     19 CL   UNL     1       1.626   8.411  21.799  0.00  0.00    +0.000 Cl
ATOM     20  C   UNL     1      -0.129   9.819  20.301  0.00  0.00    +0.000 A 
ENDBRANCH   6  14
BRANCH   9  21
ATOM     21  C   UNL     1      -5.243  13.044  22.127  0.00  0.00    +0.000 C 
ATOM     22  C   UNL     1      -5.600  13.316  23.603  0.00  0.00    +0.000 C 
ATOM     23  C   UNL     1      -6.648  14.413  23.774  0.00  0.00    +0.000 C 
ATOM     24  C   UNL     1      -7.916  14.116  22.980  0.00  0.00    +0.000 C 
ATOM     25  C   UNL     1      -7.608  13.836  21.510  0.00  0.00    +0.000 C 
ATOM     26  C   UNL     1      -6.544  12.740  21.306  0.00  0.00    +0.000 C 
BRANCH  26  27
ATOM     27  N   UNL     1      -7.139  11.428  21.631  0.00  0.00    +0.000 NA
ATOM     28  H   UNL     1      -8.152  11.505  21.705  0.00  0.00    +0.000 HD
ATOM     29  H   UNL     1      -6.808  11.123  22.540  0.00  0.00    +0.000 HD
ENDBRANCH  26  27
ENDBRANCH   9  21
BRANCH   1  31
ATOM     30  C   UNL     1       0.770  16.876  21.699  0.00  0.00    +0.000 C 
ATOM     31  C   UNL     1      -0.008  16.742  20.386  0.00  0.00    +0.000 C 
ATOM     32  C   UNL     1       0.672  17.570  19.292  0.00  0.00    +0.000 C 
ENDBRANCH   1  31
TORSDOF 4
ENDMDL
MODEL 7
REMARK VINA RESULT:      -6.0      5.152      9.225
REMARK  Name = 
REMARK  6 active torsions:
REMARK  status: ('A' for Active; 'I' for Inactive)
REMARK    1  A    between atoms: C_1  and  C_2
REMARK    2  A    between atoms: C_2  and  C_3
REMARK    3  A    between atoms: C_2  and  N_4
REMARK    4  A    between atoms: N_9  and  C_10
REMARK    5  A    between atoms: N_19  and  C_20
REMARK    6  A    between atoms: C_25  and  N_26
REMARK                            x       y       z     vdW  Elec       q    Type
REMARK                         _______ _______ _______ _____ _____    ______ ____
ROOT
ATOM      1  N   UNL     1       0.790   9.633  19.667  0.00  0.00    +0.000 N 
ATOM      2  C   UNL     1      -0.459   9.386  20.166  0.00  0.00    +0.000 A 
ATOM      3  N   UNL     1      -1.225  10.449  20.116  0.00  0.00    +0.000 NA
ATOM      4  C   UNL     1      -0.421  11.439  19.584  0.00  0.00    +0.000 A 
ATOM      5  C   UNL     1      -0.662  12.791  19.294  0.00  0.00    +0.000 A 
ATOM      6  N   UNL     1      -1.873  13.425  19.594  0.00  0.00    +0.000 N 
ATOM      7  N   UNL     1       0.336  13.501  18.698  0.00  0.00    +0.000 NA
ATOM      8  C   UNL     1       1.540  12.927  18.495  0.00  0.00    +0.000 A 
ATOM      9  N   UNL     1       2.576  13.691  17.992  0.00  0.00    +0.000 N 
ATOM     10  N   UNL     1       1.861  11.643  18.763  0.00  0.00    +0.000 NA
ATOM     11  C   UNL     1       0.844  10.955  19.291  0.00  0.00    +0.000 A 
ATOM     12  H   UNL     1      -2.217  14.000  18.838  0.00  0.00    +0.000 HD
ATOM     13  H   UNL     1       3.437  13.164  18.056  0.00  0.00    +0.000 HD
ENDROOT
BRANCH   6  14
ATOM     14  C   UNL     1      -2.689  13.235  20.720  0.00  0.00    +0.000 A 
ATOM     15  C   UNL     1      -2.176  13.340  22.026  0.00  0.00    +0.000 A 
ATOM     16  C   UNL     1      -2.973  13.119  23.148  0.00  0.00    +0.000 A 
ATOM     17  C   UNL     1      -4.310  12.791  22.983  0.00  0.00    +0.000 A 
ATOM     18  C   UNL     1      -4.837  12.680  21.696  0.00  0.00    +0.000 A 
ATOM     19 CL   UNL     1      -6.500  12.279  21.497  0.00  0.00    +0.000 Cl
ATOM     20  C   UNL     1      -4.036  12.899  20.570  0.00  0.00    +0.000 A 
ENDBRANCH   6  14
BRANCH   9  21
ATOM     21  C   UNL     1       2.631  15.129  18.276  0.00  0.00    +0.000 C 
ATOM     22  C   UNL     1       2.985  15.456  19.741  0.00  0.00    +0.000 C 
ATOM     23  C   UNL     1       4.424  15.097  20.105  0.00  0.00    +0.000 C 
ATOM     24  C   UNL     1       5.429  15.762  19.169  0.00  0.00    +0.000 C 
ATOM     25  C   UNL     1       5.113  15.469  17.702  0.00  0.00    +0.000 C 
ATOM     26  C   UNL     1       3.662  15.810  17.309  0.00  0.00    +0.000 C 
BRANCH  26  27
ATOM     27  N   UNL     1       3.515  17.278  17.248  0.00  0.00    +0.000 NA
ATOM     28  H   UNL     1       2.590  17.529  16.902  0.00  0.00    +0.000 HD
ATOM     29  H   UNL     1       4.181  17.656  16.582  0.00  0.00    +0.000 HD
ENDBRANCH  26  27
ENDBRANCH   9  21
BRANCH   1  31
ATOM     30  C   UNL     1       1.681   7.438  20.440  0.00  0.00    +0.000 C 
ATOM     31  C   UNL     1       1.859   8.652  19.524  0.00  0.00    +0.000 C 
ATOM     32  C   UNL     1       2.004   8.191  18.071  0.00  0.00    +0.000 C 
ENDBRANCH   1  31
TORSDOF 4
ENDMDL
MODEL 8
REMARK VINA RESULT:      -5.9      4.093      7.278
REMARK  Name = 
REMARK  6 active torsions:
REMARK  status: ('A' for Active; 'I' for Inactive)
REMARK    1  A    between atoms: C_1  and  C_2
REMARK    2  A    between atoms: C_2  and  C_3
REMARK    3  A    between atoms: C_2  and  N_4
REMARK    4  A    between atoms: N_9  and  C_10
REMARK    5  A    between atoms: N_19  and  C_20
REMARK    6  A    between atoms: C_25  and  N_26
REMARK                            x       y       z     vdW  Elec       q    Type
REMARK                         _______ _______ _______ _____ _____    ______ ____
ROOT
ATOM      1  N   UNL     1      -2.371  10.955  17.256  0.00  0.00    +0.000 N 
ATOM      2  C   UNL     1      -2.165   9.613  17.416  0.00  0.00    +0.000 A 
ATOM      3  N   UNL     1      -1.208   9.364  18.278  0.00  0.00    +0.000 NA
ATOM      4  C   UNL     1      -0.755  10.609  18.671  0.00  0.00    +0.000 A 
ATOM      5  C   UNL     1       0.256  11.002  19.561  0.00  0.00    +0.000 A 
ATOM      6  N   UNL     1       1.091  10.086  20.211  0.00  0.00    +0.000 N 
ATOM      7  N   UNL     1       0.417  12.336  19.791  0.00  0.00    +0.000 NA
ATOM      8  C   UNL     1      -0.315  13.230  19.096  0.00  0.00    +0.000 A 
ATOM      9  N   UNL     1      -0.064  14.580  19.256  0.00  0.00    +0.000 N 
ATOM     10  N   UNL     1      -1.290  12.937  18.207  0.00  0.00    +0.000 NA
ATOM     11  C   UNL     1      -1.467  11.622  18.049  0.00  0.00    +0.000 A 
ATOM     12  H   UNL     1       1.214  10.290  21.193  0.00  0.00    +0.000 HD
ATOM     13  H   UNL     1      -0.575  15.097  18.553  0.00  0.00    +0.000 HD
ENDROOT
BRANCH   6  14
ATOM     14  C   UNL     1       1.624   8.894  19.699  0.00  0.00    +0.000 A 
ATOM     15  C   UNL     1       2.170   8.830  18.404  0.00  0.00    +0.000 A 
ATOM     16  C   UNL     1       2.672   7.641  17.876  0.00  0.00    +0.000 A 
ATOM     17  C   UNL     1       2.640   6.486  18.642  0.00  0.00    +0.000 A 
ATOM     18  C   UNL     1       2.101   6.529  19.928  0.00  0.00    +0.000 A 
ATOM     19 CL   UNL     1       2.070   5.093  20.879  0.00  0.00    +0.000 Cl
ATOM     20  C   UNL     1       1.596   7.721  20.456  0.00  0.00    +0.000 A 
ENDBRANCH   6  14
BRANCH   9  21
ATOM     21  C   UNL     1       1.288  15.038  19.596  0.00  0.00    +0.000 C 
ATOM     22  C   UNL     1       1.984  15.806  18.454  0.00  0.00    +0.000 C 
ATOM     23  C   UNL     1       1.349  17.165  18.171  0.00  0.00    +0.000 C 
ATOM     24  C   UNL     1       1.290  18.036  19.422  0.00  0.00    +0.000 C 
ATOM     25  C   UNL     1       0.610  17.311  20.583  0.00  0.00    +0.000 C 
ATOM     26  C   UNL     1       1.224  15.930  20.884  0.00  0.00    +0.000 C 
BRANCH  26  27
ATOM     27  N   UNL     1       2.543  16.120  21.522  0.00  0.00    +0.000 NA
ATOM     28  H   UNL     1       2.971  15.219  21.729  0.00  0.00    +0.000 HD
ATOM     29  H   UNL     1       2.422  16.591  22.412  0.00  0.00    +0.000 HD
ENDBRANCH  26  27
ENDBRANCH   9  21
BRANCH   1  31
ATOM     30  C   UNL     1      -3.599  10.830  15.091  0.00  0.00    +0.000 C 
ATOM     31  C   UNL     1      -3.398  11.565  16.419  0.00  0.00    +0.000 C 
ATOM     32  C   UNL     1      -4.733  11.673  17.161  0.00  0.00    +0.000 C 
ENDBRANCH   1  31
TORSDOF 4
ENDMDL
MODEL 9
REMARK VINA RESULT:      -5.9      4.173      7.338
REMARK  Name = 
REMARK  6 active torsions:
REMARK  status: ('A' for Active; 'I' for Inactive)
REMARK    1  A    between atoms: C_1  and  C_2
REMARK    2  A    between atoms: C_2  and  C_3
REMARK    3  A    between atoms: C_2  and  N_4
REMARK    4  A    between atoms: N_9  and  C_10
REMARK    5  A    between atoms: N_19  and  C_20
REMARK    6  A    between atoms: C_25  and  N_26
REMARK                            x       y       z     vdW  Elec       q    Type
REMARK                         _______ _______ _______ _____ _____    ______ ____
ROOT
ATOM      1  N   UNL     1      -2.326  10.945  17.277  0.00  0.00    +0.000 N 
ATOM      2  C   UNL     1      -2.261   9.630  17.647  0.00  0.00    +0.000 A 
ATOM      3  N   UNL     1      -1.387   9.434  18.605  0.00  0.00    +0.000 NA
ATOM      4  C   UNL     1      -0.840  10.681  18.845  0.00  0.00    +0.000 A 
ATOM      5  C   UNL     1       0.147  11.117  19.742  0.00  0.00    +0.000 A 
ATOM      6  N   UNL     1       0.848  10.242  20.580  0.00  0.00    +0.000 N 
ATOM      7  N   UNL     1       0.422  12.451  19.785  0.00  0.00    +0.000 NA
ATOM      8  C   UNL     1      -0.177  13.289  18.914  0.00  0.00    +0.000 A 
ATOM      9  N   UNL     1       0.194  14.620  18.893  0.00  0.00    +0.000 N 
ATOM     10  N   UNL     1      -1.119  12.949  18.007  0.00  0.00    +0.000 NA
ATOM     11  C   UNL     1      -1.412  11.645  18.030  0.00  0.00    +0.000 A 
ATOM     12  H   UNL     1       0.930  10.582  21.527  0.00  0.00    +0.000 HD
ATOM     13  H   UNL     1      -0.221  15.066  18.086  0.00  0.00    +0.000 HD
ENDROOT
BRANCH   6  14
ATOM     14  C   UNL     1       1.295   8.944  20.289  0.00  0.00    +0.000 A 
ATOM     15  C   UNL     1       1.031   7.865  21.153  0.00  0.00    +0.000 A 
ATOM     16  C   UNL     1       1.499   6.580  20.887  0.00  0.00    +0.000 A 
ATOM     17  C   UNL     1       2.243   6.347  19.740  0.00  0.00    +0.000 A 
ATOM     18  C   UNL     1       2.516   7.404  18.872  0.00  0.00    +0.000 A 
ATOM     19 CL   UNL     1       3.434   7.108  17.445  0.00  0.00    +0.000 Cl
ATOM     20  C   UNL     1       2.048   8.694  19.140  0.00  0.00    +0.000 A 
ENDBRANCH   6  14
BRANCH   9  21
ATOM     21  C   UNL     1       1.560  15.006  19.263  0.00  0.00    +0.000 C 
ATOM     22  C   UNL     1       2.247  15.913  18.222  0.00  0.00    +0.000 C 
ATOM     23  C   UNL     1       1.631  17.308  18.141  0.00  0.00    +0.000 C 
ATOM     24  C   UNL     1       1.613  18.000  19.500  0.00  0.00    +0.000 C 
ATOM     25  C   UNL     1       0.943  17.133  20.566  0.00  0.00    +0.000 C 
ATOM     26  C   UNL     1       1.538  15.714  20.662  0.00  0.00    +0.000 C 
BRANCH  26  27
ATOM     27  N   UNL     1       2.872  15.795  21.290  0.00  0.00    +0.000 NA
ATOM     28  H   UNL     1       3.137  14.892  21.680  0.00  0.00    +0.000 HD
ATOM     29  H   UNL     1       2.839  16.444  22.070  0.00  0.00    +0.000 HD
ENDBRANCH  26  27
ENDBRANCH   9  21
BRANCH   1  31
ATOM     30  C   UNL     1      -3.293  10.685  14.995  0.00  0.00    +0.000 C 
ATOM     31  C   UNL     1      -3.236  11.507  16.286  0.00  0.00    +0.000 C 
ATOM     32  C   UNL     1      -4.647  11.679  16.855  0.00  0.00    +0.000 C 
ENDBRANCH   1  31
TORSDOF 4
ENDMDL
