MODEL 1
REMARK VINA RESULT:      -7.0      0.000      0.000
REMARK  Name = 
REMARK  7 active torsions:
REMARK  status: ('A' for Active; 'I' for Inactive)
REMARK    1  A    between atoms: C_1  and  N_2
REMARK    2  A    between atoms: C_12  and  O_13
REMARK    3  A    between atoms: C_19  and  C_20
REMARK    4  A    between atoms: C_20  and  C_21
REMARK    5  A    between atoms: C_20  and  O_22
REMARK    6  A    between atoms: C_20  and  C_23
REMARK    7  A    between atoms: C_23  and  O_24
REMARK                            x       y       z     vdW  Elec       q    Type
REMARK                         _______ _______ _______ _____ _____    ______ ____
ROOT
ATOM      1  C   UNL     1       3.956   7.736  17.751  0.00  0.00    +0.000 C 
ATOM      2  N   UNL     1       3.791   6.280  17.662  0.00  0.00    +0.000 N 
ATOM      3  C   UNL     1       4.602   5.584  16.739  0.00  0.00    +0.000 A 
ATOM      4  C   UNL     1       5.439   6.215  15.796  0.00  0.00    +0.000 A 
ATOM      5  C   UNL     1       6.239   5.497  14.909  0.00  0.00    +0.000 A 
ATOM      6  C   UNL     1       6.208   4.110  14.921  0.00  0.00    +0.000 A 
ATOM      7  C   UNL     1       5.382   3.447  15.823  0.00  0.00    +0.000 A 
ATOM      8  C   UNL     1       4.585   4.176  16.730  0.00  0.00    +0.000 A 
ATOM      9  C   UNL     1       3.741   3.454  17.701  0.00  0.00    +0.000 A 
ATOM     10  O   UNL     1       3.664   2.224  17.688  0.00  0.00    +0.000 OA
ATOM     11  C   UNL     1       2.987   4.220  18.731  0.00  0.00    +0.000 A 
ATOM     12  C   UNL     1       2.289   3.547  19.772  0.00  0.00    +0.000 A 
ATOM     13  C   UNL     1       1.632   4.261  20.794  0.00  0.00    +0.000 A 
ATOM     14  C   UNL     1       1.619   5.635  20.698  0.00  0.00    +0.000 A 
ATOM     15  C   UNL     1       2.231   6.261  19.617  0.00  0.00    +0.000 A 
ATOM     16  C   UNL     1       3.011   5.618  18.650  0.00  0.00    +0.000 A 
ATOM     17  C   UNL     1       1.948   7.694  19.739  0.00  0.00    +0.000 C 
ATOM     18  C   UNL     1       0.908   7.762  20.834  0.00  0.00    +0.000 C 
ATOM     19  O   UNL     1       1.073   6.535  21.613  0.00  0.00    +0.000 OA
ENDROOT
BRANCH  12  20
ATOM     20  O   UNL     1       2.224   2.179  19.845  0.00  0.00    +0.000 OA
ATOM     21  H   UNL     1       2.670   1.905  20.679  0.00  0.00    +0.000 HD
ENDBRANCH  12  20
BRANCH  18  22
ATOM     22  C   UNL     1       1.063   9.163  21.536  0.00  0.00    +0.000 C 
ATOM     23  C   UNL     1      -0.092   9.534  22.459  0.00  0.00    +0.000 C 
BRANCH  22  24
ATOM     24  O   UNL     1       2.274   9.224  22.318  0.00  0.00    +0.000 OA
ATOM     25  H   UNL     1       2.123   9.868  23.036  0.00  0.00    +0.000 HD
ENDBRANCH  22  24
BRANCH  22  26
ATOM     26  C   UNL     1       1.184  10.290  20.452  0.00  0.00    +0.000 C 
BRANCH  26  27
ATOM     27  O   UNL     1       1.250  11.602  21.021  0.00  0.00    +0.000 OA
ATOM     28  H   UNL     1       0.317  11.869  21.148  0.00  0.00    +0.000 HD
ENDBRANCH  26  27
ENDBRANCH  22  26
ENDBRANCH  18  22
TORSDOF 5
ENDMDL
MODEL 2
REMARK VINA RESULT:      -6.8      0.769      1.157
REMARK  Name = 
REMARK  7 active torsions:
REMARK  status: ('A' for Active; 'I' for Inactive)
REMARK    1  A    between atoms: C_1  and  N_2
REMARK    2  A    between atoms: C_12  and  O_13
REMARK    3  A    between atoms: C_19  and  C_20
REMARK    4  A    between atoms: C_20  and  C_21
REMARK    5  A    between atoms: C_20  and  O_22
REMARK    6  A    between atoms: C_20  and  C_23
REMARK    7  A    between atoms: C_23  and  O_24
REMARK                            x       y       z     vdW  Elec       q    Type
REMARK                         _______ _______ _______ _____ _____    ______ ____
ROOT
ATOM      1  C   UNL     1       3.898   7.691  17.539  0.00  0.00    +0.000 C 
ATOM      2  N   UNL     1       3.794   6.227  17.536  0.00  0.00    +0.000 N 
ATOM      3  C   UNL     1       4.629   5.514  16.649  0.00  0.00    +0.000 A 
ATOM      4  C   UNL     1       5.436   6.123  15.666  0.00  0.00    +0.000 A 
ATOM      5  C   UNL     1       6.262   5.388  14.817  0.00  0.00    +0.000 A 
ATOM      6  C   UNL     1       6.289   4.004  14.910  0.00  0.00    +0.000 A 
ATOM      7  C   UNL     1       5.495   3.361  15.854  0.00  0.00    +0.000 A 
ATOM      8  C   UNL     1       4.672   4.108  16.722  0.00  0.00    +0.000 A 
ATOM      9  C   UNL     1       3.863   3.408  17.739  0.00  0.00    +0.000 A 
ATOM     10  O   UNL     1       3.837   2.178  17.797  0.00  0.00    +0.000 OA
ATOM     11  C   UNL     1       3.082   4.202  18.728  0.00  0.00    +0.000 A 
ATOM     12  C   UNL     1       2.416   3.562  19.810  0.00  0.00    +0.000 A 
ATOM     13  C   UNL     1       1.734   4.306  20.793  0.00  0.00    +0.000 A 
ATOM     14  C   UNL     1       1.663   5.670  20.618  0.00  0.00    +0.000 A 
ATOM     15  C   UNL     1       2.244   6.258  19.498  0.00  0.00    +0.000 A 
ATOM     16  C   UNL     1       3.046   5.592  18.565  0.00  0.00    +0.000 A 
ATOM     17  C   UNL     1       1.902   7.682  19.539  0.00  0.00    +0.000 C 
ATOM     18  C   UNL     1       0.864   7.770  20.634  0.00  0.00    +0.000 C 
ATOM     19  O   UNL     1       1.083   6.599  21.482  0.00  0.00    +0.000 OA
ENDROOT
BRANCH  12  20
ATOM     20  O   UNL     1       2.409   2.199  19.962  0.00  0.00    +0.000 OA
ATOM     21  H   UNL     1       2.178   2.006  20.901  0.00  0.00    +0.000 HD
ENDBRANCH  12  20
BRANCH  18  22
ATOM     22  C   UNL     1       0.963   9.215  21.253  0.00  0.00    +0.000 C 
ATOM     23  C   UNL     1       2.045   9.370  22.316  0.00  0.00    +0.000 C 
BRANCH  22  24
ATOM     24  O   UNL     1       1.217  10.203  20.234  0.00  0.00    +0.000 OA
ATOM     25  H   UNL     1       2.161  10.446  20.294  0.00  0.00    +0.000 HD
ENDBRANCH  22  24
BRANCH  22  26
ATOM     26  C   UNL     1      -0.406   9.606  21.911  0.00  0.00    +0.000 C 
BRANCH  26  27
ATOM     27  O   UNL     1      -0.886   8.613  22.824  0.00  0.00    +0.000 OA
ATOM     28  H   UNL     1      -0.087   8.289  23.288  0.00  0.00    +0.000 HD
ENDBRANCH  26  27
ENDBRANCH  22  26
ENDBRANCH  18  22
TORSDOF 5
ENDMDL
MODEL 3
REMARK VINA RESULT:      -6.6      1.087      1.219
REMARK  Name = 
REMARK  7 active torsions:
REMARK  status: ('A' for Active; 'I' for Inactive)
REMARK    1  A    between atoms: C_1  and  N_2
REMARK    2  A    between atoms: C_12  and  O_13
REMARK    3  A    between atoms: C_19  and  C_20
REMARK    4  A    between atoms: C_20  and  C_21
REMARK    5  A    between atoms: C_20  and  O_22
REMARK    6  A    between atoms: C_20  and  C_23
REMARK    7  A    between atoms: C_23  and  O_24
REMARK                            x       y       z     vdW  Elec       q    Type
REMARK                         _______ _______ _______ _____ _____    ______ ____
ROOT
ATOM      1  C   UNL     1       3.722   8.095  17.135  0.00  0.00    +0.000 C 
ATOM      2  N   UNL     1       3.695   6.667  17.476  0.00  0.00    +0.000 N 
ATOM      3  C   UNL     1       4.561   5.809  16.764  0.00  0.00    +0.000 A 
ATOM      4  C   UNL     1       5.326   6.211  15.649  0.00  0.00    +0.000 A 
ATOM      5  C   UNL     1       6.183   5.339  14.980  0.00  0.00    +0.000 A 
ATOM      6  C   UNL     1       6.285   4.018  15.392  0.00  0.00    +0.000 A 
ATOM      7  C   UNL     1       5.533   3.576  16.475  0.00  0.00    +0.000 A 
ATOM      8  C   UNL     1       4.679   4.463  17.162  0.00  0.00    +0.000 A 
ATOM      9  C   UNL     1       3.916   3.982  18.330  0.00  0.00    +0.000 A 
ATOM     10  O   UNL     1       3.956   2.799  18.674  0.00  0.00    +0.000 OA
ATOM     11  C   UNL     1       3.101   4.944  19.122  0.00  0.00    +0.000 A 
ATOM     12  C   UNL     1       2.479   4.543  20.337  0.00  0.00    +0.000 A 
ATOM     13  C   UNL     1       1.766   5.462  21.132  0.00  0.00    +0.000 A 
ATOM     14  C   UNL     1       1.621   6.741  20.645  0.00  0.00    +0.000 A 
ATOM     15  C   UNL     1       2.161   7.079  19.408  0.00  0.00    +0.000 A 
ATOM     16  C   UNL     1       2.991   6.255  18.640  0.00  0.00    +0.000 A 
ATOM     17  C   UNL     1       1.744   8.455  19.122  0.00  0.00    +0.000 C 
ATOM     18  C   UNL     1       0.712   8.744  20.187  0.00  0.00    +0.000 C 
ATOM     19  O   UNL     1       1.000   7.817  21.280  0.00  0.00    +0.000 OA
ENDROOT
BRANCH  12  20
ATOM     20  O   UNL     1       2.545   3.255  20.803  0.00  0.00    +0.000 OA
ATOM     21  H   UNL     1       2.080   3.229  21.671  0.00  0.00    +0.000 HD
ENDBRANCH  12  20
BRANCH  18  22
ATOM     22  C   UNL     1       0.739  10.297  20.450  0.00  0.00    +0.000 C 
ATOM     23  C   UNL     1      -0.637  10.925  20.641  0.00  0.00    +0.000 C 
BRANCH  22  24
ATOM     24  O   UNL     1       1.522  10.616  21.618  0.00  0.00    +0.000 OA
ATOM     25  H   UNL     1       1.487   9.841  22.211  0.00  0.00    +0.000 HD
ENDBRANCH  22  24
BRANCH  22  26
ATOM     26  C   UNL     1       1.429  11.027  19.246  0.00  0.00    +0.000 C 
BRANCH  26  27
ATOM     27  O   UNL     1       0.489  11.625  18.347  0.00  0.00    +0.000 OA
ATOM     28  H   UNL     1       0.956  12.399  17.971  0.00  0.00    +0.000 HD
ENDBRANCH  26  27
ENDBRANCH  22  26
ENDBRANCH  18  22
TORSDOF 5
ENDMDL
MODEL 4
REMARK VINA RESULT:      -6.5      2.127      6.704
REMARK  Name = 
REMARK  7 active torsions:
REMARK  status: ('A' for Active; 'I' for Inactive)
REMARK    1  A    between atoms: C_1  and  N_2
REMARK    2  A    between atoms: C_12  and  O_13
REMARK    3  A    between atoms: C_19  and  C_20
REMARK    4  A    between atoms: C_20  and  C_21
REMARK    5  A    between atoms: C_20  and  O_22
REMARK    6  A    between atoms: C_20  and  C_23
REMARK    7  A    between atoms: C_23  and  O_24
REMARK                            x       y       z     vdW  Elec       q    Type
REMARK                         _______ _______ _______ _____ _____    ______ ____
ROOT
ATOM      1  C   UNL     1       3.482   7.832  17.455  0.00  0.00    +0.000 C 
ATOM      2  N   UNL     1       3.039   6.990  18.573  0.00  0.00    +0.000 N 
ATOM      3  C   UNL     1       2.121   7.548  19.489  0.00  0.00    +0.000 A 
ATOM      4  C   UNL     1       1.729   8.903  19.483  0.00  0.00    +0.000 A 
ATOM      5  C   UNL     1       0.808   9.417  20.393  0.00  0.00    +0.000 A 
ATOM      6  C   UNL     1       0.260   8.590  21.363  0.00  0.00    +0.000 A 
ATOM      7  C   UNL     1       0.633   7.251  21.416  0.00  0.00    +0.000 A 
ATOM      8  C   UNL     1       1.554   6.729  20.484  0.00  0.00    +0.000 A 
ATOM      9  C   UNL     1       1.910   5.298  20.536  0.00  0.00    +0.000 A 
ATOM     10  O   UNL     1       1.473   4.564  21.424  0.00  0.00    +0.000 OA
ATOM     11  C   UNL     1       2.794   4.723  19.485  0.00  0.00    +0.000 A 
ATOM     12  C   UNL     1       3.031   3.321  19.421  0.00  0.00    +0.000 A 
ATOM     13  C   UNL     1       3.808   2.757  18.389  0.00  0.00    +0.000 A 
ATOM     14  C   UNL     1       4.398   3.622  17.496  0.00  0.00    +0.000 A 
ATOM     15  C   UNL     1       4.224   4.995  17.640  0.00  0.00    +0.000 A 
ATOM     16  C   UNL     1       3.361   5.605  18.556  0.00  0.00    +0.000 A 
ATOM     17  C   UNL     1       5.059   5.639  16.622  0.00  0.00    +0.000 C 
ATOM     18  C   UNL     1       5.906   4.508  16.086  0.00  0.00    +0.000 C 
ATOM     19  O   UNL     1       5.163   3.284  16.380  0.00  0.00    +0.000 OA
ENDROOT
BRANCH  12  20
ATOM     20  O   UNL     1       2.516   2.449  20.345  0.00  0.00    +0.000 OA
ATOM     21  H   UNL     1       3.276   2.023  20.807  0.00  0.00    +0.000 HD
ENDBRANCH  12  20
BRANCH  18  22
ATOM     22  C   UNL     1       6.268   4.866  14.595  0.00  0.00    +0.000 C 
ATOM     23  C   UNL     1       5.822   3.826  13.573  0.00  0.00    +0.000 C 
BRANCH  22  24
ATOM     24  O   UNL     1       5.686   6.127  14.205  0.00  0.00    +0.000 OA
ATOM     25  H   UNL     1       5.135   5.961  13.417  0.00  0.00    +0.000 HD
ENDBRANCH  22  24
BRANCH  22  26
ATOM     26  C   UNL     1       7.820   5.036  14.451  0.00  0.00    +0.000 C 
BRANCH  26  27
ATOM     27  O   UNL     1       8.193   5.750  13.269  0.00  0.00    +0.000 OA
ATOM     28  H   UNL     1       9.166   5.656  13.213  0.00  0.00    +0.000 HD
ENDBRANCH  26  27
ENDBRANCH  22  26
ENDBRANCH  18  22
TORSDOF 5
ENDMDL
MODEL 5
REMARK VINA RESULT:      -6.5      2.631      4.490
REMARK  Name = 
REMARK  7 active torsions:
REMARK  status: ('A' for Active; 'I' for Inactive)
REMARK    1  A    between atoms: C_1  and  N_2
REMARK    2  A    between atoms: C_12  and  O_13
REMARK    3  A    between atoms: C_19  and  C_20
REMARK    4  A    between atoms: C_20  and  C_21
REMARK    5  A    between atoms: C_20  and  O_22
REMARK    6  A    between atoms: C_20  and  C_23
REMARK    7  A    between atoms: C_23  and  O_24
REMARK                            x       y       z     vdW  Elec       q    Type
REMARK                         _______ _______ _______ _____ _____    ______ ____
ROOT
ATOM      1  C   UNL     1       0.971   6.464  20.974  0.00  0.00    +0.000 C 
ATOM      2  N   UNL     1       2.143   5.957  20.250  0.00  0.00    +0.000 N 
ATOM      3  C   UNL     1       2.552   4.632  20.515  0.00  0.00    +0.000 A 
ATOM      4  C   UNL     1       2.005   3.829  21.537  0.00  0.00    +0.000 A 
ATOM      5  C   UNL     1       2.423   2.518  21.761  0.00  0.00    +0.000 A 
ATOM      6  C   UNL     1       3.428   1.971  20.976  0.00  0.00    +0.000 A 
ATOM      7  C   UNL     1       4.008   2.735  19.969  0.00  0.00    +0.000 A 
ATOM      8  C   UNL     1       3.573   4.056  19.734  0.00  0.00    +0.000 A 
ATOM      9  C   UNL     1       4.178   4.837  18.637  0.00  0.00    +0.000 A 
ATOM     10  O   UNL     1       5.107   4.383  17.968  0.00  0.00    +0.000 OA
ATOM     11  C   UNL     1       3.641   6.189  18.318  0.00  0.00    +0.000 A 
ATOM     12  C   UNL     1       4.100   6.901  17.174  0.00  0.00    +0.000 A 
ATOM     13  C   UNL     1       3.549   8.149  16.821  0.00  0.00    +0.000 A 
ATOM     14  C   UNL     1       2.613   8.692  17.671  0.00  0.00    +0.000 A 
ATOM     15  C   UNL     1       2.254   8.014  18.832  0.00  0.00    +0.000 A 
ATOM     16  C   UNL     1       2.661   6.719  19.166  0.00  0.00    +0.000 A 
ATOM     17  C   UNL     1       1.340   8.890  19.571  0.00  0.00    +0.000 C 
ATOM     18  C   UNL     1       1.441  10.210  18.842  0.00  0.00    +0.000 C 
ATOM     19  O   UNL     1       1.909   9.884  17.496  0.00  0.00    +0.000 OA
ENDROOT
BRANCH  12  20
ATOM     20  O   UNL     1       5.086   6.415  16.356  0.00  0.00    +0.000 OA
ATOM     21  H   UNL     1       5.128   6.998  15.563  0.00  0.00    +0.000 HD
ENDBRANCH  12  20
BRANCH  18  22
ATOM     22  C   UNL     1       0.066  10.954  19.034  0.00  0.00    +0.000 C 
ATOM     23  C   UNL     1      -0.265  11.297  20.483  0.00  0.00    +0.000 C 
BRANCH  22  24
ATOM     24  O   UNL     1       0.028  12.184  18.283  0.00  0.00    +0.000 OA
ATOM     25  H   UNL     1      -0.005  12.917  18.927  0.00  0.00    +0.000 HD
ENDBRANCH  22  24
BRANCH  22  26
ATOM     26  C   UNL     1      -1.101  10.065  18.481  0.00  0.00    +0.000 C 
BRANCH  26  27
ATOM     27  O   UNL     1      -1.124  10.007  17.051  0.00  0.00    +0.000 OA
ATOM     28  H   UNL     1      -2.033   9.725  16.824  0.00  0.00    +0.000 HD
ENDBRANCH  26  27
ENDBRANCH  22  26
ENDBRANCH  18  22
TORSDOF 5
ENDMDL
MODEL 6
REMARK VINA RESULT:      -6.5      2.483      4.392
REMARK  Name = 
REMARK  7 active torsions:
REMARK  status: ('A' for Active; 'I' for Inactive)
REMARK    1  A    between atoms: C_1  and  N_2
REMARK    2  A    between atoms: C_12  and  O_13
REMARK    3  A    between atoms: C_19  and  C_20
REMARK    4  A    between atoms: C_20  and  C_21
REMARK    5  A    between atoms: C_20  and  O_22
REMARK    6  A    between atoms: C_20  and  C_23
REMARK    7  A    between atoms: C_23  and  O_24
REMARK                            x       y       z     vdW  Elec       q    Type
REMARK                         _______ _______ _______ _____ _____    ______ ____
ROOT
ATOM      1  C   UNL     1       1.003   6.311  20.911  0.00  0.00    +0.000 C 
ATOM      2  N   UNL     1       2.209   5.845  20.216  0.00  0.00    +0.000 N 
ATOM      3  C   UNL     1       2.650   4.530  20.481  0.00  0.00    +0.000 A 
ATOM      4  C   UNL     1       2.099   3.702  21.481  0.00  0.00    +0.000 A 
ATOM      5  C   UNL     1       2.550   2.402  21.704  0.00  0.00    +0.000 A 
ATOM      6  C   UNL     1       3.592   1.892  20.944  0.00  0.00    +0.000 A 
ATOM      7  C   UNL     1       4.176   2.682  19.959  0.00  0.00    +0.000 A 
ATOM      8  C   UNL     1       3.708   3.992  19.723  0.00  0.00    +0.000 A 
ATOM      9  C   UNL     1       4.319   4.801  18.651  0.00  0.00    +0.000 A 
ATOM     10  O   UNL     1       5.279   4.381  18.003  0.00  0.00    +0.000 OA
ATOM     11  C   UNL     1       3.752   6.139  18.328  0.00  0.00    +0.000 A 
ATOM     12  C   UNL     1       4.220   6.875  17.204  0.00  0.00    +0.000 A 
ATOM     13  C   UNL     1       3.643   8.110  16.845  0.00  0.00    +0.000 A 
ATOM     14  C   UNL     1       2.668   8.617  17.674  0.00  0.00    +0.000 A 
ATOM     15  C   UNL     1       2.297   7.918  18.819  0.00  0.00    +0.000 A 
ATOM     16  C   UNL     1       2.733   6.632  19.153  0.00  0.00    +0.000 A 
ATOM     17  C   UNL     1       1.338   8.760  19.540  0.00  0.00    +0.000 C 
ATOM     18  C   UNL     1       1.420  10.089  18.825  0.00  0.00    +0.000 C 
ATOM     19  O   UNL     1       1.934   9.789  17.490  0.00  0.00    +0.000 OA
ENDROOT
BRANCH  12  20
ATOM     20  O   UNL     1       5.243   6.426  16.408  0.00  0.00    +0.000 OA
ATOM     21  H   UNL     1       5.548   5.564  16.777  0.00  0.00    +0.000 HD
ENDBRANCH  12  20
BRANCH  18  22
ATOM     22  C   UNL     1       0.018  10.789  18.986  0.00  0.00    +0.000 C 
ATOM     23  C   UNL     1      -1.053  10.278  18.030  0.00  0.00    +0.000 C 
BRANCH  22  24
ATOM     24  O   UNL     1      -0.493  10.634  20.326  0.00  0.00    +0.000 OA
ATOM     25  H   UNL     1      -0.402  11.496  20.773  0.00  0.00    +0.000 HD
ENDBRANCH  22  24
BRANCH  22  26
ATOM     26  C   UNL     1       0.166  12.333  18.749  0.00  0.00    +0.000 C 
BRANCH  26  27
ATOM     27  O   UNL     1       1.246  12.658  17.868  0.00  0.00    +0.000 OA
ATOM     28  H   UNL     1       1.668  13.446  18.267  0.00  0.00    +0.000 HD
ENDBRANCH  26  27
ENDBRANCH  22  26
ENDBRANCH  18  22
TORSDOF 5
ENDMDL
MODEL 7
REMARK VINA RESULT:      -6.3      3.069      7.911
REMARK  Name = 
REMARK  7 active torsions:
REMARK  status: ('A' for Active; 'I' for Inactive)
REMARK    1  A    between atoms: C_1  and  N_2
REMARK    2  A    between atoms: C_12  and  O_13
REMARK    3  A    between atoms: C_19  and  C_20
REMARK    4  A    between atoms: C_20  and  C_21
REMARK    5  A    between atoms: C_20  and  O_22
REMARK    6  A    between atoms: C_20  and  C_23
REMARK    7  A    between atoms: C_23  and  O_24
REMARK                            x       y       z     vdW  Elec       q    Type
REMARK                         _______ _______ _______ _____ _____    ______ ____
ROOT
ATOM      1  C   UNL     1       0.047   8.461  22.239  0.00  0.00    +0.000 C 
ATOM      2  N   UNL     1       0.180   9.538  21.251  0.00  0.00    +0.000 N 
ATOM      3  C   UNL     1      -0.274  10.823  21.619  0.00  0.00    +0.000 A 
ATOM      4  C   UNL     1      -0.985  11.097  22.806  0.00  0.00    +0.000 A 
ATOM      5  C   UNL     1      -1.405  12.381  23.145  0.00  0.00    +0.000 A 
ATOM      6  C   UNL     1      -1.147  13.441  22.288  0.00  0.00    +0.000 A 
ATOM      7  C   UNL     1      -0.465  13.212  21.097  0.00  0.00    +0.000 A 
ATOM      8  C   UNL     1      -0.027  11.914  20.763  0.00  0.00    +0.000 A 
ATOM      9  C   UNL     1       0.725  11.699  19.511  0.00  0.00    +0.000 A 
ATOM     10  O   UNL     1       0.916  12.620  18.716  0.00  0.00    +0.000 OA
ATOM     11  C   UNL     1       1.284  10.351  19.214  0.00  0.00    +0.000 A 
ATOM     12  C   UNL     1       2.140  10.150  18.095  0.00  0.00    +0.000 A 
ATOM     13  C   UNL     1       2.733   8.897  17.843  0.00  0.00    +0.000 A 
ATOM     14  C   UNL     1       2.385   7.854  18.672  0.00  0.00    +0.000 A 
ATOM     15  C   UNL     1       1.472   8.060  19.702  0.00  0.00    +0.000 A 
ATOM     16  C   UNL     1       0.957   9.303  20.084  0.00  0.00    +0.000 A 
ATOM     17  C   UNL     1       1.225   6.754  20.320  0.00  0.00    +0.000 C 
ATOM     18  C   UNL     1       1.878   5.778  19.368  0.00  0.00    +0.000 C 
ATOM     19  O   UNL     1       2.881   6.551  18.636  0.00  0.00    +0.000 OA
ENDROOT
BRANCH  12  20
ATOM     20  O   UNL     1       2.439  11.155  17.212  0.00  0.00    +0.000 OA
ATOM     21  H   UNL     1       3.338  11.490  17.437  0.00  0.00    +0.000 HD
ENDBRANCH  12  20
BRANCH  18  22
ATOM     22  C   UNL     1       2.319   4.527  20.216  0.00  0.00    +0.000 C 
ATOM     23  C   UNL     1       3.598   3.856  19.729  0.00  0.00    +0.000 C 
BRANCH  22  24
ATOM     24  O   UNL     1       2.519   4.879  21.601  0.00  0.00    +0.000 OA
ATOM     25  H   UNL     1       2.333   5.833  21.687  0.00  0.00    +0.000 HD
ENDBRANCH  22  24
BRANCH  22  26
ATOM     26  C   UNL     1       1.182   3.446  20.198  0.00  0.00    +0.000 C 
BRANCH  26  27
ATOM     27  O   UNL     1       0.981   2.831  21.475  0.00  0.00    +0.000 OA
ATOM     28  H   UNL     1       0.715   3.563  22.068  0.00  0.00    +0.000 HD
ENDBRANCH  26  27
ENDBRANCH  22  26
ENDBRANCH  18  22
TORSDOF 5
ENDMDL
MODEL 8
REMARK VINA RESULT:      -6.3      7.061      9.455
REMARK  Name = 
REMARK  7 active torsions:
REMARK  status: ('A' for Active; 'I' for Inactive)
REMARK    1  A    between atoms: C_1  and  N_2
REMARK    2  A    between atoms: C_12  and  O_13
REMARK    3  A    between atoms: C_19  and  C_20
REMARK    4  A    between atoms: C_20  and  C_21
REMARK    5  A    between atoms: C_20  and  O_22
REMARK    6  A    between atoms: C_20  and  C_23
REMARK    7  A    between atoms: C_23  and  O_24
REMARK                            x       y       z     vdW  Elec       q    Type
REMARK                         _______ _______ _______ _____ _____    ______ ____
ROOT
ATOM      1  C   UNL     1      -4.889  13.045  19.511  0.00  0.00    +0.000 C 
ATOM      2  N   UNL     1      -3.676  12.219  19.514  0.00  0.00    +0.000 N 
ATOM      3  C   UNL     1      -3.367  11.506  18.335  0.00  0.00    +0.000 A 
ATOM      4  C   UNL     1      -4.229  11.416  17.221  0.00  0.00    +0.000 A 
ATOM      5  C   UNL     1      -3.885  10.715  16.067  0.00  0.00    +0.000 A 
ATOM      6  C   UNL     1      -2.667  10.055  15.997  0.00  0.00    +0.000 A 
ATOM      7  C   UNL     1      -1.795  10.103  17.080  0.00  0.00    +0.000 A 
ATOM      8  C   UNL     1      -2.138  10.826  18.241  0.00  0.00    +0.000 A 
ATOM      9  C   UNL     1      -1.184  10.891  19.366  0.00  0.00    +0.000 A 
ATOM     10  O   UNL     1      -0.122  10.267  19.339  0.00  0.00    +0.000 OA
ATOM     11  C   UNL     1      -1.498  11.745  20.545  0.00  0.00    +0.000 A 
ATOM     12  C   UNL     1      -0.534  11.949  21.572  0.00  0.00    +0.000 A 
ATOM     13  C   UNL     1      -0.792  12.811  22.656  0.00  0.00    +0.000 A 
ATOM     14  C   UNL     1      -2.042  13.381  22.728  0.00  0.00    +0.000 A 
ATOM     15  C   UNL     1      -2.996  13.088  21.758  0.00  0.00    +0.000 A 
ATOM     16  C   UNL     1      -2.758  12.353  20.592  0.00  0.00    +0.000 A 
ATOM     17  C   UNL     1      -4.240  13.745  22.171  0.00  0.00    +0.000 C 
ATOM     18  C   UNL     1      -3.952  14.200  23.584  0.00  0.00    +0.000 C 
ATOM     19  O   UNL     1      -2.496  14.294  23.680  0.00  0.00    +0.000 OA
ENDROOT
BRANCH  12  20
ATOM     20  O   UNL     1       0.690  11.330  21.560  0.00  0.00    +0.000 OA
ATOM     21  H   UNL     1       1.179  11.626  22.363  0.00  0.00    +0.000 HD
ENDBRANCH  12  20
BRANCH  18  22
ATOM     22  C   UNL     1      -4.839  15.474  23.851  0.00  0.00    +0.000 C 
ATOM     23  C   UNL     1      -5.068  16.349  22.623  0.00  0.00    +0.000 C 
BRANCH  22  24
ATOM     24  O   UNL     1      -6.136  15.108  24.365  0.00  0.00    +0.000 OA
ATOM     25  H   UNL     1      -6.590  14.596  23.669  0.00  0.00    +0.000 HD
ENDBRANCH  22  24
BRANCH  22  26
ATOM     26  C   UNL     1      -4.167  16.368  24.950  0.00  0.00    +0.000 C 
BRANCH  26  27
ATOM     27  O   UNL     1      -2.966  16.999  24.494  0.00  0.00    +0.000 OA
ATOM     28  H   UNL     1      -3.167  17.957  24.496  0.00  0.00    +0.000 HD
ENDBRANCH  26  27
ENDBRANCH  22  26
ENDBRANCH  18  22
TORSDOF 5
ENDMDL
MODEL 9
REMARK VINA RESULT:      -6.3      7.387      9.817
REMARK  Name = 
REMARK  7 active torsions:
REMARK  status: ('A' for Active; 'I' for Inactive)
REMARK    1  A    between atoms: C_1  and  N_2
REMARK    2  A    between atoms: C_12  and  O_13
REMARK    3  A    between atoms: C_19  and  C_20
REMARK    4  A    between atoms: C_20  and  C_21
REMARK    5  A    between atoms: C_20  and  O_22
REMARK    6  A    between atoms: C_20  and  C_23
REMARK    7  A    between atoms: C_23  and  O_24
REMARK                            x       y       z     vdW  Elec       q    Type
REMARK                         _______ _______ _______ _____ _____    ______ ____
ROOT
ATOM      1  C   UNL     1      -5.578  12.625  19.056  0.00  0.00    +0.000 C 
ATOM      2  N   UNL     1      -4.234  12.037  19.125  0.00  0.00    +0.000 N 
ATOM      3  C   UNL     1      -3.723  11.437  17.954  0.00  0.00    +0.000 A 
ATOM      4  C   UNL     1      -4.478  11.229  16.781  0.00  0.00    +0.000 A 
ATOM      5  C   UNL     1      -3.935  10.647  15.637  0.00  0.00    +0.000 A 
ATOM      6  C   UNL     1      -2.613  10.226  15.637  0.00  0.00    +0.000 A 
ATOM      7  C   UNL     1      -1.838  10.395  16.780  0.00  0.00    +0.000 A 
ATOM      8  C   UNL     1      -2.384  10.999  17.931  0.00  0.00    +0.000 A 
ATOM      9  C   UNL     1      -1.534  11.199  19.121  0.00  0.00    +0.000 A 
ATOM     10  O   UNL     1      -0.375  10.784  19.154  0.00  0.00    +0.000 OA
ATOM     11  C   UNL     1      -2.078  11.937  20.295  0.00  0.00    +0.000 A 
ATOM     12  C   UNL     1      -1.238  12.278  21.392  0.00  0.00    +0.000 A 
ATOM     13  C   UNL     1      -1.721  13.038  22.475  0.00  0.00    +0.000 A 
ATOM     14  C   UNL     1      -3.059  13.364  22.473  0.00  0.00    +0.000 A 
ATOM     15  C   UNL     1      -3.876  12.936  21.431  0.00  0.00    +0.000 A 
ATOM     16  C   UNL     1      -3.430  12.300  20.268  0.00  0.00    +0.000 A 
ATOM     17  C   UNL     1      -5.245  13.336  21.771  0.00  0.00    +0.000 C 
ATOM     18  C   UNL     1      -5.139  13.785  23.211  0.00  0.00    +0.000 C 
ATOM     19  O   UNL     1      -3.736  14.143  23.412  0.00  0.00    +0.000 OA
ENDROOT
BRANCH  12  20
ATOM     20  O   UNL     1       0.079  11.898  21.452  0.00  0.00    +0.000 OA
ATOM     21  H   UNL     1       0.212  11.426  22.306  0.00  0.00    +0.000 HD
ENDBRANCH  12  20
BRANCH  18  22
ATOM     22  C   UNL     1      -6.264  14.862  23.445  0.00  0.00    +0.000 C 
ATOM     23  C   UNL     1      -7.138  15.132  22.225  0.00  0.00    +0.000 C 
BRANCH  22  24
ATOM     24  O   UNL     1      -7.140  14.476  24.523  0.00  0.00    +0.000 OA
ATOM     25  H   UNL     1      -7.963  14.991  24.427  0.00  0.00    +0.000 HD
ENDBRANCH  22  24
BRANCH  22  26
ATOM     26  C   UNL     1      -5.614  16.223  23.872  0.00  0.00    +0.000 C 
BRANCH  26  27
ATOM     27  O   UNL     1      -4.751  16.094  25.007  0.00  0.00    +0.000 OA
ATOM     28  H   UNL     1      -5.006  16.827  25.603  0.00  0.00    +0.000 HD
ENDBRANCH  26  27
ENDBRANCH  22  26
ENDBRANCH  18  22
TORSDOF 5
ENDMDL
