MODEL 1
REMARK VINA RESULT:      -7.8      0.000      0.000
REMARK  Name = 
REMARK  5 active torsions:
REMARK  status: ('A' for Active; 'I' for Inactive)
REMARK    1  A    between atoms: C_1  and  O_2
REMARK    2  A    between atoms: O_2  and  N_3
REMARK    3  A    between atoms: C_4  and  C_5
REMARK    4  A    between atoms: C_6  and  C_7
REMARK    5  A    between atoms: N_20  and  C_21
REMARK                            x       y       z     vdW  Elec       q    Type
REMARK                         _______ _______ _______ _____ _____    ______ ____
ROOT
ATOM      1  C   UNL     1       3.483   4.348  19.317  0.00  0.00    +0.000 C 
ATOM      2  C   UNL     1       2.474   5.108  20.220  0.00  0.00    +0.000 C 
ATOM      3  C   UNL     1       1.153   4.327  20.428  0.00  0.00    +0.000 C 
ATOM      4  C   UNL     1       1.350   2.806  20.533  0.00  0.00    +0.000 C 
ATOM      5  C   UNL     1       2.289   2.444  21.684  0.00  0.00    +0.000 C 
ATOM      6  C   UNL     1       3.684   2.440  21.051  0.00  0.00    +0.000 C 
ATOM      7  C   UNL     1       3.462   2.824  19.577  0.00  0.00    +0.000 C 
ATOM      8  N   UNL     1       2.109   2.264  19.403  0.00  0.00    +0.000 NA
ATOM      9  C   UNL     1       1.498   2.420  18.096  0.00  0.00    +0.000 C 
ENDROOT
BRANCH   2  10
ATOM     10  C   UNL     1       2.174   6.517  19.714  0.00  0.00    +0.000 A 
ATOM     11  C   UNL     1       2.399   6.846  18.371  0.00  0.00    +0.000 A 
ATOM     12  C   UNL     1       2.157   8.143  17.909  0.00  0.00    +0.000 A 
ATOM     13  C   UNL     1       1.688   9.129  18.778  0.00  0.00    +0.000 A 
ATOM     14 CL   UNL     1       1.440  10.716  18.143  0.00  0.00    +0.000 Cl
ATOM     15  C   UNL     1       1.444   8.810  20.118  0.00  0.00    +0.000 A 
ATOM     16 CL   UNL     1       0.860   9.970  21.258  0.00  0.00    +0.000 Cl
ATOM     17  C   UNL     1       1.682   7.512  20.576  0.00  0.00    +0.000 A 
ENDBRANCH   2  10
BRANCH   1  19
ATOM     18  N   UNL     1       5.971   4.363  19.274  0.00  0.00    +0.000 NA
ATOM     19  C   UNL     1       4.851   4.994  19.447  0.00  0.00    +0.000 C 
BRANCH  18  21
ATOM     20  C   UNL     1       7.294   5.982  18.306  0.00  0.00    +0.000 C 
ATOM     21  O   UNL     1       7.015   5.273  19.506  0.00  0.00    +0.000 OA
ENDBRANCH  18  21
ENDBRANCH   1  19
TORSDOF 3
ENDMDL
MODEL 2
REMARK VINA RESULT:      -7.6      2.145      4.083
REMARK  Name = 
REMARK  5 active torsions:
REMARK  status: ('A' for Active; 'I' for Inactive)
REMARK    1  A    between atoms: C_1  and  O_2
REMARK    2  A    between atoms: O_2  and  N_3
REMARK    3  A    between atoms: C_4  and  C_5
REMARK    4  A    between atoms: C_6  and  C_7
REMARK    5  A    between atoms: N_20  and  C_21
REMARK                            x       y       z     vdW  Elec       q    Type
REMARK                         _______ _______ _______ _____ _____    ______ ____
ROOT
ATOM      1  C   UNL     1       3.619   5.061  18.829  0.00  0.00    +0.000 C 
ATOM      2  C   UNL     1       3.372   6.206  17.809  0.00  0.00    +0.000 C 
ATOM      3  C   UNL     1       4.685   6.753  17.197  0.00  0.00    +0.000 C 
ATOM      4  C   UNL     1       5.748   5.668  16.957  0.00  0.00    +0.000 C 
ATOM      5  C   UNL     1       5.225   4.570  16.030  0.00  0.00    +0.000 C 
ATOM      6  C   UNL     1       4.592   3.543  16.974  0.00  0.00    +0.000 C 
ATOM      7  C   UNL     1       4.770   4.128  18.388  0.00  0.00    +0.000 C 
ATOM      8  N   UNL     1       6.018   4.879  18.161  0.00  0.00    +0.000 NA
ATOM      9  C   UNL     1       6.556   5.612  19.293  0.00  0.00    +0.000 C 
ENDROOT
BRANCH   2  10
ATOM     10  C   UNL     1       2.553   7.352  18.397  0.00  0.00    +0.000 A 
ATOM     11  C   UNL     1       2.125   8.405  17.579  0.00  0.00    +0.000 A 
ATOM     12  C   UNL     1       1.402   9.473  18.118  0.00  0.00    +0.000 A 
ATOM     13  C   UNL     1       1.096   9.506  19.480  0.00  0.00    +0.000 A 
ATOM     14 CL   UNL     1       0.225  10.872  20.080  0.00  0.00    +0.000 Cl
ATOM     15  C   UNL     1       1.503   8.454  20.306  0.00  0.00    +0.000 A 
ATOM     16 CL   UNL     1       1.163   8.416  22.000  0.00  0.00    +0.000 Cl
ATOM     17  C   UNL     1       2.221   7.385  19.763  0.00  0.00    +0.000 A 
ENDBRANCH   2  10
BRANCH   1  19
ATOM     18  N   UNL     1       2.025   3.761  20.230  0.00  0.00    +0.000 NA
ATOM     19  C   UNL     1       2.304   4.354  19.111  0.00  0.00    +0.000 C 
BRANCH  18  21
ATOM     20  C   UNL     1       0.657   2.492  18.879  0.00  0.00    +0.000 C 
ATOM     21  O   UNL     1       0.743   3.200  20.109  0.00  0.00    +0.000 OA
ENDBRANCH  18  21
ENDBRANCH   1  19
TORSDOF 3
ENDMDL
MODEL 3
REMARK VINA RESULT:      -7.5      2.434      4.854
REMARK  Name = 
REMARK  5 active torsions:
REMARK  status: ('A' for Active; 'I' for Inactive)
REMARK    1  A    between atoms: C_1  and  O_2
REMARK    2  A    between atoms: O_2  and  N_3
REMARK    3  A    between atoms: C_4  and  C_5
REMARK    4  A    between atoms: C_6  and  C_7
REMARK    5  A    between atoms: N_20  and  C_21
REMARK                            x       y       z     vdW  Elec       q    Type
REMARK                         _______ _______ _______ _____ _____    ______ ____
ROOT
ATOM      1  C   UNL     1       4.824   4.373  17.476  0.00  0.00    +0.000 C 
ATOM      2  C   UNL     1       4.457   5.812  17.022  0.00  0.00    +0.000 C 
ATOM      3  C   UNL     1       5.703   6.677  16.715  0.00  0.00    +0.000 C 
ATOM      4  C   UNL     1       6.852   5.889  16.065  0.00  0.00    +0.000 C 
ATOM      5  C   UNL     1       6.408   5.235  14.756  0.00  0.00    +0.000 C 
ATOM      6  C   UNL     1       5.887   3.857  15.176  0.00  0.00    +0.000 C 
ATOM      7  C   UNL     1       6.043   3.813  16.707  0.00  0.00    +0.000 C 
ATOM      8  N   UNL     1       7.216   4.698  16.836  0.00  0.00    +0.000 NA
ATOM      9  C   UNL     1       7.711   4.938  18.178  0.00  0.00    +0.000 C 
ENDROOT
BRANCH   2  10
ATOM     10  C   UNL     1       3.553   6.532  18.019  0.00  0.00    +0.000 A 
ATOM     11  C   UNL     1       3.276   5.954  19.265  0.00  0.00    +0.000 A 
ATOM     12  C   UNL     1       2.424   6.594  20.170  0.00  0.00    +0.000 A 
ATOM     13  C   UNL     1       1.834   7.817  19.844  0.00  0.00    +0.000 A 
ATOM     14 CL   UNL     1       0.769   8.534  20.999  0.00  0.00    +0.000 Cl
ATOM     15  C   UNL     1       2.114   8.413  18.610  0.00  0.00    +0.000 A 
ATOM     16 CL   UNL     1       1.429   9.926  18.131  0.00  0.00    +0.000 Cl
ATOM     17  C   UNL     1       2.970   7.774  17.710  0.00  0.00    +0.000 A 
ENDBRANCH   2  10
BRANCH   1  19
ATOM     18  N   UNL     1       3.446   2.387  18.069  0.00  0.00    +0.000 NA
ATOM     19  C   UNL     1       3.583   3.500  17.417  0.00  0.00    +0.000 C 
BRANCH  18  21
ATOM     20  C   UNL     1       1.207   2.397  18.612  0.00  0.00    +0.000 C 
ATOM     21  O   UNL     1       2.189   1.851  17.741  0.00  0.00    +0.000 OA
ENDBRANCH  18  21
ENDBRANCH   1  19
TORSDOF 3
ENDMDL
MODEL 4
REMARK VINA RESULT:      -7.5      2.227      4.468
REMARK  Name = 
REMARK  5 active torsions:
REMARK  status: ('A' for Active; 'I' for Inactive)
REMARK    1  A    between atoms: C_1  and  O_2
REMARK    2  A    between atoms: O_2  and  N_3
REMARK    3  A    between atoms: C_4  and  C_5
REMARK    4  A    between atoms: C_6  and  C_7
REMARK    5  A    between atoms: N_20  and  C_21
REMARK                            x       y       z     vdW  Elec       q    Type
REMARK                         _______ _______ _______ _____ _____    ______ ____
ROOT
ATOM      1  C   UNL     1       3.862   4.952  18.378  0.00  0.00    +0.000 C 
ATOM      2  C   UNL     1       3.524   6.322  17.729  0.00  0.00    +0.000 C 
ATOM      3  C   UNL     1       4.786   7.094  17.273  0.00  0.00    +0.000 C 
ATOM      4  C   UNL     1       5.894   6.183  16.717  0.00  0.00    +0.000 C 
ATOM      5  C   UNL     1       5.397   5.363  15.527  0.00  0.00    +0.000 C 
ATOM      6  C   UNL     1       4.848   4.077  16.153  0.00  0.00    +0.000 C 
ATOM      7  C   UNL     1       5.043   4.249  17.671  0.00  0.00    +0.000 C 
ATOM      8  N   UNL     1       6.244   5.105  17.644  0.00  0.00    +0.000 NA
ATOM      9  C   UNL     1       6.782   5.519  18.927  0.00  0.00    +0.000 C 
ENDROOT
BRANCH   2  10
ATOM     10  C   UNL     1       2.668   7.207  18.631  0.00  0.00    +0.000 A 
ATOM     11  C   UNL     1       2.378   6.806  19.941  0.00  0.00    +0.000 A 
ATOM     12  C   UNL     1       1.568   7.597  20.762  0.00  0.00    +0.000 A 
ATOM     13  C   UNL     1       1.036   8.797  20.287  0.00  0.00    +0.000 A 
ATOM     14 CL   UNL     1       0.020   9.707  21.347  0.00  0.00    +0.000 Cl
ATOM     15  C   UNL     1       1.330   9.217  18.986  0.00  0.00    +0.000 A 
ATOM     16 CL   UNL     1       0.715  10.690  18.323  0.00  0.00    +0.000 Cl
ATOM     17  C   UNL     1       2.144   8.427  18.171  0.00  0.00    +0.000 A 
ENDBRANCH   2  10
BRANCH   1  19
ATOM     18  N   UNL     1       1.754   3.966  17.497  0.00  0.00    +0.000 NA
ATOM     19  C   UNL     1       2.595   4.120  18.472  0.00  0.00    +0.000 C 
BRANCH  18  21
ATOM     20  C   UNL     1       1.210   2.210  18.886  0.00  0.00    +0.000 C 
ATOM     21  O   UNL     1       0.699   3.164  17.965  0.00  0.00    +0.000 OA
ENDBRANCH  18  21
ENDBRANCH   1  19
TORSDOF 3
ENDMDL
MODEL 5
REMARK VINA RESULT:      -7.4      3.391      4.680
REMARK  Name = 
REMARK  5 active torsions:
REMARK  status: ('A' for Active; 'I' for Inactive)
REMARK    1  A    between atoms: C_1  and  O_2
REMARK    2  A    between atoms: O_2  and  N_3
REMARK    3  A    between atoms: C_4  and  C_5
REMARK    4  A    between atoms: C_6  and  C_7
REMARK    5  A    between atoms: N_20  and  C_21
REMARK                            x       y       z     vdW  Elec       q    Type
REMARK                         _______ _______ _______ _____ _____    ______ ____
ROOT
ATOM      1  C   UNL     1       3.432   2.640  19.649  0.00  0.00    +0.000 C 
ATOM      2  C   UNL     1       3.562   4.141  19.270  0.00  0.00    +0.000 C 
ATOM      3  C   UNL     1       2.200   4.788  18.920  0.00  0.00    +0.000 C 
ATOM      4  C   UNL     1       1.035   4.264  19.776  0.00  0.00    +0.000 C 
ATOM      5  C   UNL     1       1.289   4.496  21.266  0.00  0.00    +0.000 C 
ATOM      6  C   UNL     1       2.015   3.229  21.730  0.00  0.00    +0.000 C 
ATOM      7  C   UNL     1       2.153   2.356  20.469  0.00  0.00    +0.000 C 
ATOM      8  N   UNL     1       0.943   2.803  19.756  0.00  0.00    +0.000 NA
ATOM      9  C   UNL     1       0.686   2.201  18.460  0.00  0.00    +0.000 C 
ENDROOT
BRANCH   2  10
ATOM     10  C   UNL     1       4.560   4.379  18.140  0.00  0.00    +0.000 A 
ATOM     11  C   UNL     1       4.523   3.585  16.987  0.00  0.00    +0.000 A 
ATOM     12  C   UNL     1       5.454   3.778  15.962  0.00  0.00    +0.000 A 
ATOM     13  C   UNL     1       6.436   4.764  16.074  0.00  0.00    +0.000 A 
ATOM     14 CL   UNL     1       7.571   4.925  14.783  0.00  0.00    +0.000 Cl
ATOM     15  C   UNL     1       6.476   5.575  17.213  0.00  0.00    +0.000 A 
ATOM     16 CL   UNL     1       7.655   6.819  17.429  0.00  0.00    +0.000 Cl
ATOM     17  C   UNL     1       5.540   5.383  18.233  0.00  0.00    +0.000 A 
ENDBRANCH   2  10
BRANCH   1  19
ATOM     18  N   UNL     1       4.770   1.405  21.345  0.00  0.00    +0.000 NA
ATOM     19  C   UNL     1       4.722   2.179  20.306  0.00  0.00    +0.000 C 
BRANCH  18  21
ATOM     20  C   UNL     1       6.293  -0.066  22.253  0.00  0.00    +0.000 C 
ATOM     21  O   UNL     1       6.122   1.225  21.682  0.00  0.00    +0.000 OA
ENDBRANCH  18  21
ENDBRANCH   1  19
TORSDOF 3
ENDMDL
MODEL 6
REMARK VINA RESULT:      -7.3      2.121      4.455
REMARK  Name = 
REMARK  5 active torsions:
REMARK  status: ('A' for Active; 'I' for Inactive)
REMARK    1  A    between atoms: C_1  and  O_2
REMARK    2  A    between atoms: O_2  and  N_3
REMARK    3  A    between atoms: C_4  and  C_5
REMARK    4  A    between atoms: C_6  and  C_7
REMARK    5  A    between atoms: N_20  and  C_21
REMARK                            x       y       z     vdW  Elec       q    Type
REMARK                         _______ _______ _______ _____ _____    ______ ____
ROOT
ATOM      1  C   UNL     1       5.056   5.038  18.226  0.00  0.00    +0.000 C 
ATOM      2  C   UNL     1       4.024   5.904  17.454  0.00  0.00    +0.000 C 
ATOM      3  C   UNL     1       4.687   6.829  16.403  0.00  0.00    +0.000 C 
ATOM      4  C   UNL     1       5.898   6.190  15.702  0.00  0.00    +0.000 C 
ATOM      5  C   UNL     1       5.511   4.890  14.997  0.00  0.00    +0.000 C 
ATOM      6  C   UNL     1       5.728   3.803  16.055  0.00  0.00    +0.000 C 
ATOM      7  C   UNL     1       6.205   4.552  17.313  0.00  0.00    +0.000 C 
ATOM      8  N   UNL     1       6.887   5.681  16.654  0.00  0.00    +0.000 NA
ATOM      9  C   UNL     1       7.503   6.670  17.520  0.00  0.00    +0.000 C 
ENDROOT
BRANCH   2  10
ATOM     10  C   UNL     1       3.131   6.724  18.381  0.00  0.00    +0.000 A 
ATOM     11  C   UNL     1       2.757   6.215  19.631  0.00  0.00    +0.000 A 
ATOM     12  C   UNL     1       1.914   6.947  20.473  0.00  0.00    +0.000 A 
ATOM     13  C   UNL     1       1.430   8.195  20.078  0.00  0.00    +0.000 A 
ATOM     14 CL   UNL     1       0.369   9.029  21.155  0.00  0.00    +0.000 Cl
ATOM     15  C   UNL     1       1.807   8.723  18.838  0.00  0.00    +0.000 A 
ATOM     16 CL   UNL     1       1.256  10.262  18.276  0.00  0.00    +0.000 Cl
ATOM     17  C   UNL     1       2.655   7.992  18.003  0.00  0.00    +0.000 A 
ENDBRANCH   2  10
BRANCH   1  19
ATOM     18  N   UNL     1       4.911   3.025  19.681  0.00  0.00    +0.000 NA
ATOM     19  C   UNL     1       4.323   3.932  18.965  0.00  0.00    +0.000 C 
BRANCH  18  21
ATOM     20  C   UNL     1       2.783   2.216  19.325  0.00  0.00    +0.000 C 
ATOM     21  O   UNL     1       3.919   2.163  20.178  0.00  0.00    +0.000 OA
ENDBRANCH  18  21
ENDBRANCH   1  19
TORSDOF 3
ENDMDL
MODEL 7
REMARK VINA RESULT:      -7.2      3.297      5.814
REMARK  Name = 
REMARK  5 active torsions:
REMARK  status: ('A' for Active; 'I' for Inactive)
REMARK    1  A    between atoms: C_1  and  O_2
REMARK    2  A    between atoms: O_2  and  N_3
REMARK    3  A    between atoms: C_4  and  C_5
REMARK    4  A    between atoms: C_6  and  C_7
REMARK    5  A    between atoms: N_20  and  C_21
REMARK                            x       y       z     vdW  Elec       q    Type
REMARK                         _______ _______ _______ _____ _____    ______ ____
ROOT
ATOM      1  C   UNL     1       5.013   6.266  16.852  0.00  0.00    +0.000 C 
ATOM      2  C   UNL     1       5.106   5.473  18.183  0.00  0.00    +0.000 C 
ATOM      3  C   UNL     1       6.425   4.672  18.311  0.00  0.00    +0.000 C 
ATOM      4  C   UNL     1       7.641   5.396  17.711  0.00  0.00    +0.000 C 
ATOM      5  C   UNL     1       7.861   6.758  18.369  0.00  0.00    +0.000 C 
ATOM      6  C   UNL     1       7.039   7.730  17.517  0.00  0.00    +0.000 C 
ATOM      7  C   UNL     1       6.378   6.860  16.432  0.00  0.00    +0.000 C 
ATOM      8  N   UNL     1       7.412   5.814  16.326  0.00  0.00    +0.000 NA
ATOM      9  C   UNL     1       7.170   4.748  15.372  0.00  0.00    +0.000 C 
ENDROOT
BRANCH   2  10
ATOM     10  C   UNL     1       3.910   4.550  18.404  0.00  0.00    +0.000 A 
ATOM     11  C   UNL     1       3.349   3.853  17.326  0.00  0.00    +0.000 A 
ATOM     12  C   UNL     1       2.235   3.030  17.516  0.00  0.00    +0.000 A 
ATOM     13  C   UNL     1       1.663   2.893  18.782  0.00  0.00    +0.000 A 
ATOM     14 CL   UNL     1       0.270   1.884  18.936  0.00  0.00    +0.000 Cl
ATOM     15  C   UNL     1       2.222   3.571  19.870  0.00  0.00    +0.000 A 
ATOM     16 CL   UNL     1       1.579   3.452  21.470  0.00  0.00    +0.000 Cl
ATOM     17  C   UNL     1       3.339   4.387  19.678  0.00  0.00    +0.000 A 
ENDBRANCH   2  10
BRANCH   1  19
ATOM     18  N   UNL     1       3.387   7.699  18.074  0.00  0.00    +0.000 NA
ATOM     19  C   UNL     1       3.886   7.280  16.953  0.00  0.00    +0.000 C 
BRANCH  18  21
ATOM     20  C   UNL     1       1.628   8.896  18.958  0.00  0.00    +0.000 C 
ATOM     21  O   UNL     1       2.351   8.598  17.771  0.00  0.00    +0.000 OA
ENDBRANCH  18  21
ENDBRANCH   1  19
TORSDOF 3
ENDMDL
MODEL 8
REMARK VINA RESULT:      -7.2      3.299      4.651
REMARK  Name = 
REMARK  5 active torsions:
REMARK  status: ('A' for Active; 'I' for Inactive)
REMARK    1  A    between atoms: C_1  and  O_2
REMARK    2  A    between atoms: O_2  and  N_3
REMARK    3  A    between atoms: C_4  and  C_5
REMARK    4  A    between atoms: C_6  and  C_7
REMARK    5  A    between atoms: N_20  and  C_21
REMARK                            x       y       z     vdW  Elec       q    Type
REMARK                         _______ _______ _______ _____ _____    ______ ____
ROOT
ATOM      1  C   UNL     1       2.541   4.844  20.098  0.00  0.00    +0.000 C 
ATOM      2  C   UNL     1       3.068   4.540  18.670  0.00  0.00    +0.000 C 
ATOM      3  C   UNL     1       3.332   3.031  18.439  0.00  0.00    +0.000 C 
ATOM      4  C   UNL     1       2.314   2.117  19.141  0.00  0.00    +0.000 C 
ATOM      5  C   UNL     1       0.887   2.414  18.679  0.00  0.00    +0.000 C 
ATOM      6  C   UNL     1       0.386   3.484  19.654  0.00  0.00    +0.000 C 
ATOM      7  C   UNL     1       1.568   3.753  20.604  0.00  0.00    +0.000 C 
ATOM      8  N   UNL     1       2.189   2.416  20.569  0.00  0.00    +0.000 NA
ATOM      9  C   UNL     1       3.389   2.231  21.363  0.00  0.00    +0.000 C 
ENDROOT
BRANCH   2  10
ATOM     10  C   UNL     1       4.314   5.348  18.316  0.00  0.00    +0.000 A 
ATOM     11  C   UNL     1       4.288   6.252  17.247  0.00  0.00    +0.000 A 
ATOM     12  C   UNL     1       5.435   6.972  16.898  0.00  0.00    +0.000 A 
ATOM     13  C   UNL     1       6.623   6.799  17.611  0.00  0.00    +0.000 A 
ATOM     14 CL   UNL     1       8.007   7.700  17.105  0.00  0.00    +0.000 Cl
ATOM     15  C   UNL     1       6.659   5.912  18.691  0.00  0.00    +0.000 A 
ATOM     16 CL   UNL     1       8.087   5.643  19.627  0.00  0.00    +0.000 Cl
ATOM     17  C   UNL     1       5.510   5.198  19.040  0.00  0.00    +0.000 A 
ENDBRANCH   2  10
BRANCH   1  19
ATOM     18  N   UNL     1       1.422   6.789  21.174  0.00  0.00    +0.000 NA
ATOM     19  C   UNL     1       1.982   6.256  20.133  0.00  0.00    +0.000 C 
BRANCH  18  21
ATOM     20  C   UNL     1       1.192   8.954  21.927  0.00  0.00    +0.000 C 
ATOM     21  O   UNL     1       1.005   8.083  20.819  0.00  0.00    +0.000 OA
ENDBRANCH  18  21
ENDBRANCH   1  19
TORSDOF 3
ENDMDL
MODEL 9
REMARK VINA RESULT:      -7.2      4.003      5.591
REMARK  Name = 
REMARK  5 active torsions:
REMARK  status: ('A' for Active; 'I' for Inactive)
REMARK    1  A    between atoms: C_1  and  O_2
REMARK    2  A    between atoms: O_2  and  N_3
REMARK    3  A    between atoms: C_4  and  C_5
REMARK    4  A    between atoms: C_6  and  C_7
REMARK    5  A    between atoms: N_20  and  C_21
REMARK                            x       y       z     vdW  Elec       q    Type
REMARK                         _______ _______ _______ _____ _____    ______ ____
ROOT
ATOM      1  C   UNL     1       3.849   4.665  18.787  0.00  0.00    +0.000 C 
ATOM      2  C   UNL     1       3.635   3.998  17.401  0.00  0.00    +0.000 C 
ATOM      3  C   UNL     1       3.412   2.469  17.501  0.00  0.00    +0.000 C 
ATOM      4  C   UNL     1       2.603   2.048  18.739  0.00  0.00    +0.000 C 
ATOM      5  C   UNL     1       1.229   2.719  18.761  0.00  0.00    +0.000 C 
ATOM      6  C   UNL     1       1.456   4.026  19.528  0.00  0.00    +0.000 C 
ATOM      7  C   UNL     1       2.955   4.035  19.880  0.00  0.00    +0.000 C 
ATOM      8  N   UNL     1       3.168   2.580  19.981  0.00  0.00    +0.000 NA
ATOM      9  C   UNL     1       4.511   2.136  20.309  0.00  0.00    +0.000 C 
ENDROOT
BRANCH   2  10
ATOM     10  C   UNL     1       4.766   4.299  16.421  0.00  0.00    +0.000 A 
ATOM     11  C   UNL     1       5.851   5.089  16.818  0.00  0.00    +0.000 A 
ATOM     12  C   UNL     1       6.875   5.394  15.915  0.00  0.00    +0.000 A 
ATOM     13  C   UNL     1       6.829   4.917  14.605  0.00  0.00    +0.000 A 
ATOM     14 CL   UNL     1       8.113   5.358  13.537  0.00  0.00    +0.000 Cl
ATOM     15  C   UNL     1       5.758   4.113  14.199  0.00  0.00    +0.000 A 
ATOM     16 CL   UNL     1       5.627   3.479  12.596  0.00  0.00    +0.000 Cl
ATOM     17  C   UNL     1       4.740   3.806  15.104  0.00  0.00    +0.000 A 
ENDBRANCH   2  10
BRANCH   1  19
ATOM     18  N   UNL     1       2.684   6.754  18.103  0.00  0.00    +0.000 NA
ATOM     19  C   UNL     1       3.708   6.170  18.642  0.00  0.00    +0.000 C 
BRANCH  18  21
ATOM     20  C   UNL     1       1.724   8.825  17.786  0.00  0.00    +0.000 C 
ATOM     21  O   UNL     1       2.924   8.139  18.119  0.00  0.00    +0.000 OA
ENDBRANCH  18  21
ENDBRANCH   1  19
TORSDOF 3
ENDMDL
