MODEL 1
REMARK VINA RESULT:      -8.5      0.000      0.000
REMARK  Name = 
REMARK  9 active torsions:
REMARK  status: ('A' for Active; 'I' for Inactive)
REMARK    1  A    between atoms: C_1  and  N_2
REMARK    2  A    between atoms: C_5  and  C_6
REMARK    3  A    between atoms: N_8  and  C_9
REMARK    4  A    between atoms: C_9  and  C_10
REMARK    5  A    between atoms: C_11  and  C_12
REMARK    6  A    between atoms: C_14  and  C_15
REMARK    7  A    between atoms: N_22  and  C_23
REMARK    8  A    between atoms: C_23  and  C_24
REMARK    9  A    between atoms: C_23  and  C_25
REMARK                            x       y       z     vdW  Elec       q    Type
REMARK                         _______ _______ _______ _____ _____    ______ ____
ROOT
ATOM      1  C   UNL     1      -0.907  10.725  23.081  0.00  0.00    +0.000 C 
ATOM      2  N   UNL     1      -0.424   9.341  23.021  0.00  0.00    +0.000 N 
ATOM      3  C   UNL     1       0.287   9.030  21.848  0.00  0.00    +0.000 A 
ATOM      4  C   UNL     1       0.783   7.715  21.713  0.00  0.00    +0.000 A 
ATOM      5  C   UNL     1       1.466   7.357  20.539  0.00  0.00    +0.000 A 
ATOM      6  C   UNL     1       1.622   8.330  19.554  0.00  0.00    +0.000 A 
ATOM      7  C   UNL     1       2.177   8.441  18.267  0.00  0.00    +0.000 A 
ATOM      8  N   UNL     1       2.053   9.655  17.743  0.00  0.00    +0.000 NA
ATOM      9  N   UNL     1       1.376  10.353  18.684  0.00  0.00    +0.000 N 
ATOM     10  C   UNL     1       1.084   9.600  19.800  0.00  0.00    +0.000 A 
ATOM     11  N   UNL     1       0.437   9.982  20.902  0.00  0.00    +0.000 NA
ATOM     12  H   UNL     1      -1.189   8.677  23.095  0.00  0.00    +0.000 HD
ENDROOT
BRANCH   5  13
ATOM     13  C   UNL     1       1.965   5.972  20.323  0.00  0.00    +0.000 C 
ATOM     14  O   UNL     1       1.171   5.043  20.326  0.00  0.00    +0.000 OA
ATOM     15  N   UNL     1       3.324   5.802  20.112  0.00  0.00    +0.000 N 
ATOM     16  H   UNL     1       3.894   6.546  19.786  0.00  0.00    +0.000 HD
BRANCH  15  17
ATOM     17  C   UNL     1       3.858   4.470  19.893  0.00  0.00    +0.000 C 
BRANCH  17  18
ATOM     18  C   UNL     1       4.601   4.419  18.593  0.00  0.00    +0.000 A 
ATOM     19  C   UNL     1       4.080   4.043  17.398  0.00  0.00    +0.000 A 
ATOM     20  C   UNL     1       2.685   3.531  17.173  0.00  0.00    +0.000 C 
ATOM     21  C   UNL     1       4.886   4.114  16.192  0.00  0.00    +0.000 A 
ATOM     22  C   UNL     1       6.148   4.587  16.217  0.00  0.00    +0.000 A 
ATOM     23  C   UNL     1       7.006   4.686  14.998  0.00  0.00    +0.000 C 
ATOM     24  N   UNL     1       6.677   4.987  17.412  0.00  0.00    +0.000 N 
ATOM     25  C   UNL     1       6.021   4.919  18.621  0.00  0.00    +0.000 A 
ATOM     26  O   UNL     1       6.574   5.245  19.665  0.00  0.00    +0.000 OA
ATOM     27  H   UNL     1       7.631   5.333  17.454  0.00  0.00    +0.000 HD
ENDBRANCH  17  18
ENDBRANCH  15  17
ENDBRANCH   5  13
BRANCH   9  28
ATOM     28  C   UNL     1       1.051  11.742  18.386  0.00  0.00    +0.000 C 
ATOM     29  C   UNL     1      -0.448  12.029  18.453  0.00  0.00    +0.000 C 
ATOM     30  C   UNL     1       1.820  12.763  19.227  0.00  0.00    +0.000 C 
ENDBRANCH   9  28
TORSDOF 4
ENDMDL
MODEL 2
REMARK VINA RESULT:      -7.7      4.251      6.729
REMARK  Name = 
REMARK  9 active torsions:
REMARK  status: ('A' for Active; 'I' for Inactive)
REMARK    1  A    between atoms: C_1  and  N_2
REMARK    2  A    between atoms: C_5  and  C_6
REMARK    3  A    between atoms: N_8  and  C_9
REMARK    4  A    between atoms: C_9  and  C_10
REMARK    5  A    between atoms: C_11  and  C_12
REMARK    6  A    between atoms: C_14  and  C_15
REMARK    7  A    between atoms: N_22  and  C_23
REMARK    8  A    between atoms: C_23  and  C_24
REMARK    9  A    between atoms: C_23  and  C_25
REMARK                            x       y       z     vdW  Elec       q    Type
REMARK                         _______ _______ _______ _____ _____    ______ ____
ROOT
ATOM      1  C   UNL     1      -4.262  10.081  13.610  0.00  0.00    +0.000 C 
ATOM      2  N   UNL     1      -3.070   9.868  14.440  0.00  0.00    +0.000 N 
ATOM      3  C   UNL     1      -3.178  10.383  15.744  0.00  0.00    +0.000 A 
ATOM      4  C   UNL     1      -2.072  10.222  16.606  0.00  0.00    +0.000 A 
ATOM      5  C   UNL     1      -2.128  10.756  17.903  0.00  0.00    +0.000 A 
ATOM      6  C   UNL     1      -3.290  11.426  18.281  0.00  0.00    +0.000 A 
ATOM      7  C   UNL     1      -3.786  12.116  19.401  0.00  0.00    +0.000 A 
ATOM      8  N   UNL     1      -5.018  12.583  19.230  0.00  0.00    +0.000 NA
ATOM      9  N   UNL     1      -5.332  12.224  17.963  0.00  0.00    +0.000 N 
ATOM     10  C   UNL     1      -4.322  11.526  17.339  0.00  0.00    +0.000 A 
ATOM     11  N   UNL     1      -4.311  11.027  16.102  0.00  0.00    +0.000 NA
ATOM     12  H   UNL     1      -2.245  10.284  14.019  0.00  0.00    +0.000 HD
ENDROOT
BRANCH   5  13
ATOM     13  C   UNL     1      -0.972  10.658  18.834  0.00  0.00    +0.000 C 
ATOM     14  O   UNL     1      -1.153  10.820  20.032  0.00  0.00    +0.000 OA
ATOM     15  N   UNL     1       0.270  10.369  18.291  0.00  0.00    +0.000 N 
ATOM     16  H   UNL     1       0.358   9.923  17.409  0.00  0.00    +0.000 HD
BRANCH  15  17
ATOM     17  C   UNL     1       1.428  10.260  19.160  0.00  0.00    +0.000 C 
BRANCH  17  18
ATOM     18  C   UNL     1       1.752   8.818  19.410  0.00  0.00    +0.000 A 
ATOM     19  C   UNL     1       1.515   8.142  20.562  0.00  0.00    +0.000 A 
ATOM     20  C   UNL     1       0.961   8.736  21.827  0.00  0.00    +0.000 C 
ATOM     21  C   UNL     1       1.801   6.721  20.652  0.00  0.00    +0.000 A 
ATOM     22  C   UNL     1       2.269   6.031  19.592  0.00  0.00    +0.000 A 
ATOM     23  C   UNL     1       2.565   4.568  19.640  0.00  0.00    +0.000 C 
ATOM     24  N   UNL     1       2.491   6.697  18.419  0.00  0.00    +0.000 N 
ATOM     25  C   UNL     1       2.300   8.048  18.237  0.00  0.00    +0.000 A 
ATOM     26  O   UNL     1       2.572   8.592  17.174  0.00  0.00    +0.000 OA
ATOM     27  H   UNL     1       2.856   6.197  17.615  0.00  0.00    +0.000 HD
ENDBRANCH  17  18
ENDBRANCH  15  17
ENDBRANCH   5  13
BRANCH   9  28
ATOM     28  C   UNL     1      -6.637  12.626  17.455  0.00  0.00    +0.000 C 
ATOM     29  C   UNL     1      -7.698  12.719  18.551  0.00  0.00    +0.000 C 
ATOM     30  C   UNL     1      -6.624  13.911  16.626  0.00  0.00    +0.000 C 
ENDBRANCH   9  28
TORSDOF 4
ENDMDL
MODEL 3
REMARK VINA RESULT:      -7.7      1.136      1.802
REMARK  Name = 
REMARK  9 active torsions:
REMARK  status: ('A' for Active; 'I' for Inactive)
REMARK    1  A    between atoms: C_1  and  N_2
REMARK    2  A    between atoms: C_5  and  C_6
REMARK    3  A    between atoms: N_8  and  C_9
REMARK    4  A    between atoms: C_9  and  C_10
REMARK    5  A    between atoms: C_11  and  C_12
REMARK    6  A    between atoms: C_14  and  C_15
REMARK    7  A    between atoms: N_22  and  C_23
REMARK    8  A    between atoms: C_23  and  C_24
REMARK    9  A    between atoms: C_23  and  C_25
REMARK                            x       y       z     vdW  Elec       q    Type
REMARK                         _______ _______ _______ _____ _____    ______ ____
ROOT
ATOM      1  C   UNL     1      -1.015  10.581  23.220  0.00  0.00    +0.000 C 
ATOM      2  N   UNL     1      -0.488   9.220  23.071  0.00  0.00    +0.000 N 
ATOM      3  C   UNL     1       0.247   9.013  21.889  0.00  0.00    +0.000 A 
ATOM      4  C   UNL     1       0.786   7.727  21.670  0.00  0.00    +0.000 A 
ATOM      5  C   UNL     1       1.493   7.473  20.483  0.00  0.00    +0.000 A 
ATOM      6  C   UNL     1       1.630   8.517  19.571  0.00  0.00    +0.000 A 
ATOM      7  C   UNL     1       2.198   8.734  18.303  0.00  0.00    +0.000 A 
ATOM      8  N   UNL     1       2.042   9.978  17.863  0.00  0.00    +0.000 NA
ATOM      9  N   UNL     1       1.331  10.587  18.840  0.00  0.00    +0.000 N 
ATOM     10  C   UNL     1       1.050   9.750  19.897  0.00  0.00    +0.000 A 
ATOM     11  N   UNL     1       0.378  10.034  21.014  0.00  0.00    +0.000 NA
ATOM     12  H   UNL     1      -1.232   8.529  23.088  0.00  0.00    +0.000 HD
ENDROOT
BRANCH   5  13
ATOM     13  C   UNL     1       2.038   6.122  20.179  0.00  0.00    +0.000 C 
ATOM     14  O   UNL     1       1.276   5.168  20.126  0.00  0.00    +0.000 OA
ATOM     15  N   UNL     1       3.401   6.013  19.953  0.00  0.00    +0.000 N 
ATOM     16  H   UNL     1       3.944   6.795  19.672  0.00  0.00    +0.000 HD
BRANCH  15  17
ATOM     17  C   UNL     1       3.979   4.716  19.648  0.00  0.00    +0.000 C 
BRANCH  17  18
ATOM     18  C   UNL     1       4.806   4.800  18.401  0.00  0.00    +0.000 A 
ATOM     19  C   UNL     1       6.125   5.109  18.346  0.00  0.00    +0.000 A 
ATOM     20  C   UNL     1       6.982   5.505  19.517  0.00  0.00    +0.000 C 
ATOM     21  C   UNL     1       6.835   5.077  17.079  0.00  0.00    +0.000 A 
ATOM     22  C   UNL     1       6.219   4.705  15.939  0.00  0.00    +0.000 A 
ATOM     23  C   UNL     1       6.914   4.649  14.618  0.00  0.00    +0.000 C 
ATOM     24  N   UNL     1       4.894   4.371  15.986  0.00  0.00    +0.000 N 
ATOM     25  C   UNL     1       4.115   4.412  17.120  0.00  0.00    +0.000 A 
ATOM     26  O   UNL     1       2.918   4.152  17.081  0.00  0.00    +0.000 OA
ATOM     27  H   UNL     1       4.409   4.102  15.135  0.00  0.00    +0.000 HD
ENDBRANCH  17  18
ENDBRANCH  15  17
ENDBRANCH   5  13
BRANCH   9  28
ATOM     28  C   UNL     1       0.967  11.983  18.636  0.00  0.00    +0.000 C 
ATOM     29  C   UNL     1       2.004  12.754  17.821  0.00  0.00    +0.000 C 
ATOM     30  C   UNL     1      -0.428  12.190  18.044  0.00  0.00    +0.000 C 
ENDBRANCH   9  28
TORSDOF 4
ENDMDL
MODEL 4
REMARK VINA RESULT:      -7.4      2.529      4.331
REMARK  Name = 
REMARK  9 active torsions:
REMARK  status: ('A' for Active; 'I' for Inactive)
REMARK    1  A    between atoms: C_1  and  N_2
REMARK    2  A    between atoms: C_5  and  C_6
REMARK    3  A    between atoms: N_8  and  C_9
REMARK    4  A    between atoms: C_9  and  C_10
REMARK    5  A    between atoms: C_11  and  C_12
REMARK    6  A    between atoms: C_14  and  C_15
REMARK    7  A    between atoms: N_22  and  C_23
REMARK    8  A    between atoms: C_23  and  C_24
REMARK    9  A    between atoms: C_23  and  C_25
REMARK                            x       y       z     vdW  Elec       q    Type
REMARK                         _______ _______ _______ _____ _____    ______ ____
ROOT
ATOM      1  C   UNL     1      -4.398  10.765  17.917  0.00  0.00    +0.000 C 
ATOM      2  N   UNL     1      -3.159  10.183  17.388  0.00  0.00    +0.000 N 
ATOM      3  C   UNL     1      -2.023  10.430  18.179  0.00  0.00    +0.000 A 
ATOM      4  C   UNL     1      -0.790   9.906  17.737  0.00  0.00    +0.000 A 
ATOM      5  C   UNL     1       0.373  10.165  18.481  0.00  0.00    +0.000 A 
ATOM      6  C   UNL     1       0.249  10.936  19.635  0.00  0.00    +0.000 A 
ATOM      7  C   UNL     1       1.080  11.458  20.641  0.00  0.00    +0.000 A 
ATOM      8  N   UNL     1       0.420  12.157  21.558  0.00  0.00    +0.000 NA
ATOM      9  N   UNL     1      -0.865  12.126  21.135  0.00  0.00    +0.000 N 
ATOM     10  C   UNL     1      -1.027  11.405  19.973  0.00  0.00    +0.000 A 
ATOM     11  N   UNL     1      -2.155  11.176  19.299  0.00  0.00    +0.000 NA
ATOM     12  H   UNL     1      -2.957  10.525  16.454  0.00  0.00    +0.000 HD
ENDROOT
BRANCH   5  13
ATOM     13  C   UNL     1       1.706   9.678  18.032  0.00  0.00    +0.000 C 
ATOM     14  O   UNL     1       2.529  10.483  17.622  0.00  0.00    +0.000 OA
ATOM     15  N   UNL     1       1.957   8.318  18.116  0.00  0.00    +0.000 N 
ATOM     16  H   UNL     1       1.445   7.734  18.734  0.00  0.00    +0.000 HD
BRANCH  15  17
ATOM     17  C   UNL     1       3.245   7.796  17.694  0.00  0.00    +0.000 C 
BRANCH  17  18
ATOM     18  C   UNL     1       3.423   6.395  18.193  0.00  0.00    +0.000 A 
ATOM     19  C   UNL     1       4.152   5.425  17.587  0.00  0.00    +0.000 A 
ATOM     20  C   UNL     1       4.848   5.554  16.260  0.00  0.00    +0.000 C 
ATOM     21  C   UNL     1       4.314   4.126  18.215  0.00  0.00    +0.000 A 
ATOM     22  C   UNL     1       3.782   3.860  19.425  0.00  0.00    +0.000 A 
ATOM     23  C   UNL     1       3.934   2.542  20.110  0.00  0.00    +0.000 C 
ATOM     24  N   UNL     1       3.062   4.837  20.056  0.00  0.00    +0.000 N 
ATOM     25  C   UNL     1       2.807   6.084  19.532  0.00  0.00    +0.000 A 
ATOM     26  O   UNL     1       2.107   6.894  20.128  0.00  0.00    +0.000 OA
ATOM     27  H   UNL     1       2.642   4.651  20.962  0.00  0.00    +0.000 HD
ENDBRANCH  17  18
ENDBRANCH  15  17
ENDBRANCH   5  13
BRANCH   9  28
ATOM     28  C   UNL     1      -1.852  12.845  21.930  0.00  0.00    +0.000 C 
ATOM     29  C   UNL     1      -2.508  11.969  22.996  0.00  0.00    +0.000 C 
ATOM     30  C   UNL     1      -1.334  14.139  22.558  0.00  0.00    +0.000 C 
ENDBRANCH   9  28
TORSDOF 4
ENDMDL
MODEL 5
REMARK VINA RESULT:      -7.2      2.388      8.030
REMARK  Name = 
REMARK  9 active torsions:
REMARK  status: ('A' for Active; 'I' for Inactive)
REMARK    1  A    between atoms: C_1  and  N_2
REMARK    2  A    between atoms: C_5  and  C_6
REMARK    3  A    between atoms: N_8  and  C_9
REMARK    4  A    between atoms: C_9  and  C_10
REMARK    5  A    between atoms: C_11  and  C_12
REMARK    6  A    between atoms: C_14  and  C_15
REMARK    7  A    between atoms: N_22  and  C_23
REMARK    8  A    between atoms: C_23  and  C_24
REMARK    9  A    between atoms: C_23  and  C_25
REMARK                            x       y       z     vdW  Elec       q    Type
REMARK                         _______ _______ _______ _____ _____    ______ ____
ROOT
ATOM      1  C   UNL     1       2.632   3.819  21.355  0.00  0.00    +0.000 C 
ATOM      2  N   UNL     1       2.008   5.125  21.112  0.00  0.00    +0.000 N 
ATOM      3  C   UNL     1       2.501   5.797  19.979  0.00  0.00    +0.000 A 
ATOM      4  C   UNL     1       1.953   7.062  19.678  0.00  0.00    +0.000 A 
ATOM      5  C   UNL     1       2.447   7.780  18.577  0.00  0.00    +0.000 A 
ATOM      6  C   UNL     1       3.466   7.199  17.825  0.00  0.00    +0.000 A 
ATOM      7  C   UNL     1       4.261   7.519  16.710  0.00  0.00    +0.000 A 
ATOM      8  N   UNL     1       5.124   6.562  16.387  0.00  0.00    +0.000 NA
ATOM      9  N   UNL     1       4.921   5.605  17.323  0.00  0.00    +0.000 N 
ATOM     10  C   UNL     1       3.932   5.938  18.222  0.00  0.00    +0.000 A 
ATOM     11  N   UNL     1       3.486   5.222  19.255  0.00  0.00    +0.000 NA
ATOM     12  H   UNL     1       2.124   5.746  21.906  0.00  0.00    +0.000 HD
ENDROOT
BRANCH   5  13
ATOM     13  C   UNL     1       1.940   9.139  18.245  0.00  0.00    +0.000 C 
ATOM     14  O   UNL     1       2.344   9.697  17.236  0.00  0.00    +0.000 OA
ATOM     15  N   UNL     1       1.010   9.706  19.101  0.00  0.00    +0.000 N 
ATOM     16  H   UNL     1       0.452   9.148  19.704  0.00  0.00    +0.000 HD
BRANCH  15  17
ATOM     17  C   UNL     1       0.483  11.029  18.817  0.00  0.00    +0.000 C 
BRANCH  17  18
ATOM     18  C   UNL     1      -0.427  11.471  19.923  0.00  0.00    +0.000 A 
ATOM     19  C   UNL     1      -1.742  11.778  19.791  0.00  0.00    +0.000 A 
ATOM     20  C   UNL     1      -2.508  11.812  18.497  0.00  0.00    +0.000 C 
ATOM     21  C   UNL     1      -2.537  12.117  20.957  0.00  0.00    +0.000 A 
ATOM     22  C   UNL     1      -2.009  12.097  22.198  0.00  0.00    +0.000 A 
ATOM     23  C   UNL     1      -2.795  12.428  23.424  0.00  0.00    +0.000 C 
ATOM     24  N   UNL     1      -0.690  11.769  22.345  0.00  0.00    +0.000 N 
ATOM     25  C   UNL     1       0.166  11.478  21.307  0.00  0.00    +0.000 A 
ATOM     26  O   UNL     1       1.353  11.244  21.506  0.00  0.00    +0.000 OA
ATOM     27  H   UNL     1      -0.270  11.762  23.270  0.00  0.00    +0.000 HD
ENDBRANCH  17  18
ENDBRANCH  15  17
ENDBRANCH   5  13
BRANCH   9  28
ATOM     28  C   UNL     1       5.756   4.413  17.256  0.00  0.00    +0.000 C 
ATOM     29  C   UNL     1       5.776   3.778  15.867  0.00  0.00    +0.000 C 
ATOM     30  C   UNL     1       7.185   4.614  17.764  0.00  0.00    +0.000 C 
ENDBRANCH   9  28
TORSDOF 4
ENDMDL
MODEL 6
REMARK VINA RESULT:      -7.2      1.197      2.970
REMARK  Name = 
REMARK  9 active torsions:
REMARK  status: ('A' for Active; 'I' for Inactive)
REMARK    1  A    between atoms: C_1  and  N_2
REMARK    2  A    between atoms: C_5  and  C_6
REMARK    3  A    between atoms: N_8  and  C_9
REMARK    4  A    between atoms: C_9  and  C_10
REMARK    5  A    between atoms: C_11  and  C_12
REMARK    6  A    between atoms: C_14  and  C_15
REMARK    7  A    between atoms: N_22  and  C_23
REMARK    8  A    between atoms: C_23  and  C_24
REMARK    9  A    between atoms: C_23  and  C_25
REMARK                            x       y       z     vdW  Elec       q    Type
REMARK                         _______ _______ _______ _____ _____    ______ ____
ROOT
ATOM      1  C   UNL     1       2.224  12.900  17.800  0.00  0.00    +0.000 C 
ATOM      2  N   UNL     1       2.673  11.533  17.510  0.00  0.00    +0.000 N 
ATOM      3  C   UNL     1       2.135  10.556  18.366  0.00  0.00    +0.000 A 
ATOM      4  C   UNL     1       2.521   9.215  18.155  0.00  0.00    +0.000 A 
ATOM      5  C   UNL     1       2.034   8.217  19.014  0.00  0.00    +0.000 A 
ATOM      6  C   UNL     1       1.181   8.605  20.045  0.00  0.00    +0.000 A 
ATOM      7  C   UNL     1       0.493   8.010  21.117  0.00  0.00    +0.000 A 
ATOM      8  N   UNL     1      -0.220   8.875  21.830  0.00  0.00    +0.000 NA
ATOM      9  N   UNL     1       0.025  10.069  21.241  0.00  0.00    +0.000 N 
ATOM     10  C   UNL     1       0.870   9.966  20.158  0.00  0.00    +0.000 A 
ATOM     11  N   UNL     1       1.305  10.943  19.360  0.00  0.00    +0.000 NA
ATOM     12  H   UNL     1       3.685  11.456  17.562  0.00  0.00    +0.000 HD
ENDROOT
BRANCH   5  13
ATOM     13  C   UNL     1       2.449   6.796  18.866  0.00  0.00    +0.000 C 
ATOM     14  O   UNL     1       1.811   6.060  18.128  0.00  0.00    +0.000 OA
ATOM     15  N   UNL     1       3.564   6.373  19.573  0.00  0.00    +0.000 N 
ATOM     16  H   UNL     1       4.250   7.016  19.890  0.00  0.00    +0.000 HD
BRANCH  15  17
ATOM     17  C   UNL     1       4.009   4.996  19.458  0.00  0.00    +0.000 C 
BRANCH  17  18
ATOM     18  C   UNL     1       4.724   4.792  18.157  0.00  0.00    +0.000 A 
ATOM     19  C   UNL     1       4.259   4.077  17.102  0.00  0.00    +0.000 A 
ATOM     20  C   UNL     1       2.978   3.291  17.074  0.00  0.00    +0.000 C 
ATOM     21  C   UNL     1       5.014   4.021  15.863  0.00  0.00    +0.000 A 
ATOM     22  C   UNL     1       6.168   4.703  15.712  0.00  0.00    +0.000 A 
ATOM     23  C   UNL     1       6.968   4.681  14.451  0.00  0.00    +0.000 C 
ATOM     24  N   UNL     1       6.636   5.443  16.761  0.00  0.00    +0.000 N 
ATOM     25  C   UNL     1       6.028   5.528  17.993  0.00  0.00    +0.000 A 
ATOM     26  O   UNL     1       6.531   6.168  18.910  0.00  0.00    +0.000 OA
ATOM     27  H   UNL     1       7.511   5.952  16.672  0.00  0.00    +0.000 HD
ENDBRANCH  17  18
ENDBRANCH  15  17
ENDBRANCH   5  13
BRANCH   9  28
ATOM     28  C   UNL     1      -0.603  11.247  21.823  0.00  0.00    +0.000 C 
ATOM     29  C   UNL     1      -1.561  11.947  20.860  0.00  0.00    +0.000 C 
ATOM     30  C   UNL     1      -1.296  10.996  23.164  0.00  0.00    +0.000 C 
ENDBRANCH   9  28
TORSDOF 4
ENDMDL
MODEL 7
REMARK VINA RESULT:      -7.2      4.362      6.464
REMARK  Name = 
REMARK  9 active torsions:
REMARK  status: ('A' for Active; 'I' for Inactive)
REMARK    1  A    between atoms: C_1  and  N_2
REMARK    2  A    between atoms: C_5  and  C_6
REMARK    3  A    between atoms: N_8  and  C_9
REMARK    4  A    between atoms: C_9  and  C_10
REMARK    5  A    between atoms: C_11  and  C_12
REMARK    6  A    between atoms: C_14  and  C_15
REMARK    7  A    between atoms: N_22  and  C_23
REMARK    8  A    between atoms: C_23  and  C_24
REMARK    9  A    between atoms: C_23  and  C_25
REMARK                            x       y       z     vdW  Elec       q    Type
REMARK                         _______ _______ _______ _____ _____    ______ ____
ROOT
ATOM      1  C   UNL     1      -4.239  10.150  13.633  0.00  0.00    +0.000 C 
ATOM      2  N   UNL     1      -3.043   9.953  14.460  0.00  0.00    +0.000 N 
ATOM      3  C   UNL     1      -3.158  10.458  15.768  0.00  0.00    +0.000 A 
ATOM      4  C   UNL     1      -2.048  10.310  16.626  0.00  0.00    +0.000 A 
ATOM      5  C   UNL     1      -2.112  10.834  17.927  0.00  0.00    +0.000 A 
ATOM      6  C   UNL     1      -3.285  11.482  18.311  0.00  0.00    +0.000 A 
ATOM      7  C   UNL     1      -3.790  12.156  19.437  0.00  0.00    +0.000 A 
ATOM      8  N   UNL     1      -5.030  12.602  19.269  0.00  0.00    +0.000 NA
ATOM      9  N   UNL     1      -5.341  12.246  18.001  0.00  0.00    +0.000 N 
ATOM     10  C   UNL     1      -4.319  11.570  17.371  0.00  0.00    +0.000 A 
ATOM     11  N   UNL     1      -4.301  11.080  16.131  0.00  0.00    +0.000 NA
ATOM     12  H   UNL     1      -2.226  10.386  14.040  0.00  0.00    +0.000 HD
ENDROOT
BRANCH   5  13
ATOM     13  C   UNL     1      -0.952  10.750  18.856  0.00  0.00    +0.000 C 
ATOM     14  O   UNL     1      -0.669  11.718  19.547  0.00  0.00    +0.000 OA
ATOM     15  N   UNL     1      -0.249   9.558  18.902  0.00  0.00    +0.000 N 
ATOM     16  H   UNL     1      -0.660   8.702  18.611  0.00  0.00    +0.000 HD
BRANCH  15  17
ATOM     17  C   UNL     1       0.888   9.426  19.796  0.00  0.00    +0.000 C 
BRANCH  17  18
ATOM     18  C   UNL     1       1.847   8.404  19.266  0.00  0.00    +0.000 A 
ATOM     19  C   UNL     1       2.103   7.195  19.824  0.00  0.00    +0.000 A 
ATOM     20  C   UNL     1       1.535   6.692  21.123  0.00  0.00    +0.000 C 
ATOM     21  C   UNL     1       2.997   6.257  19.168  0.00  0.00    +0.000 A 
ATOM     22  C   UNL     1       3.561   6.542  17.976  0.00  0.00    +0.000 A 
ATOM     23  C   UNL     1       4.475   5.601  17.263  0.00  0.00    +0.000 C 
ATOM     24  N   UNL     1       3.293   7.749  17.393  0.00  0.00    +0.000 N 
ATOM     25  C   UNL     1       2.501   8.729  17.949  0.00  0.00    +0.000 A 
ATOM     26  O   UNL     1       2.346   9.812  17.397  0.00  0.00    +0.000 OA
ATOM     27  H   UNL     1       3.719   7.987  16.503  0.00  0.00    +0.000 HD
ENDBRANCH  17  18
ENDBRANCH  15  17
ENDBRANCH   5  13
BRANCH   9  28
ATOM     28  C   UNL     1      -6.653  12.629  17.498  0.00  0.00    +0.000 C 
ATOM     29  C   UNL     1      -7.696  12.770  18.605  0.00  0.00    +0.000 C 
ATOM     30  C   UNL     1      -6.651  13.878  16.615  0.00  0.00    +0.000 C 
ENDBRANCH   9  28
TORSDOF 4
ENDMDL
MODEL 8
REMARK VINA RESULT:      -7.1      2.369      7.988
REMARK  Name = 
REMARK  9 active torsions:
REMARK  status: ('A' for Active; 'I' for Inactive)
REMARK    1  A    between atoms: C_1  and  N_2
REMARK    2  A    between atoms: C_5  and  C_6
REMARK    3  A    between atoms: N_8  and  C_9
REMARK    4  A    between atoms: C_9  and  C_10
REMARK    5  A    between atoms: C_11  and  C_12
REMARK    6  A    between atoms: C_14  and  C_15
REMARK    7  A    between atoms: N_22  and  C_23
REMARK    8  A    between atoms: C_23  and  C_24
REMARK    9  A    between atoms: C_23  and  C_25
REMARK                            x       y       z     vdW  Elec       q    Type
REMARK                         _______ _______ _______ _____ _____    ______ ____
ROOT
ATOM      1  C   UNL     1       5.141   5.915  16.088  0.00  0.00    +0.000 C 
ATOM      2  N   UNL     1       4.471   7.030  16.767  0.00  0.00    +0.000 N 
ATOM      3  C   UNL     1       3.670   6.645  17.857  0.00  0.00    +0.000 A 
ATOM      4  C   UNL     1       2.989   7.661  18.561  0.00  0.00    +0.000 A 
ATOM      5  C   UNL     1       2.151   7.309  19.631  0.00  0.00    +0.000 A 
ATOM      6  C   UNL     1       2.032   5.958  19.949  0.00  0.00    +0.000 A 
ATOM      7  C   UNL     1       1.334   5.154  20.867  0.00  0.00    +0.000 A 
ATOM      8  N   UNL     1       1.598   3.858  20.739  0.00  0.00    +0.000 NA
ATOM      9  N   UNL     1       2.460   3.799  19.697  0.00  0.00    +0.000 N 
ATOM     10  C   UNL     1       2.755   5.040  19.177  0.00  0.00    +0.000 A 
ATOM     11  N   UNL     1       3.566   5.332  18.159  0.00  0.00    +0.000 NA
ATOM     12  H   UNL     1       3.880   7.553  16.127  0.00  0.00    +0.000 HD
ENDROOT
BRANCH   5  13
ATOM     13  C   UNL     1       1.371   8.336  20.375  0.00  0.00    +0.000 C 
ATOM     14  O   UNL     1       1.576   8.492  21.570  0.00  0.00    +0.000 OA
ATOM     15  N   UNL     1       0.447   9.084  19.663  0.00  0.00    +0.000 N 
ATOM     16  H   UNL     1       0.516   9.192  18.679  0.00  0.00    +0.000 HD
BRANCH  15  17
ATOM     17  C   UNL     1      -0.334  10.100  20.345  0.00  0.00    +0.000 C 
BRANCH  17  18
ATOM     18  C   UNL     1      -0.027  11.454  19.780  0.00  0.00    +0.000 A 
ATOM     19  C   UNL     1      -0.702  12.063  18.773  0.00  0.00    +0.000 A 
ATOM     20  C   UNL     1      -1.829  11.458  17.983  0.00  0.00    +0.000 C 
ATOM     21  C   UNL     1      -0.356  13.414  18.368  0.00  0.00    +0.000 A 
ATOM     22  C   UNL     1       0.610  14.111  19.002  0.00  0.00    +0.000 A 
ATOM     23  C   UNL     1       0.989  15.505  18.625  0.00  0.00    +0.000 C 
ATOM     24  N   UNL     1       1.283  13.515  20.032  0.00  0.00    +0.000 N 
ATOM     25  C   UNL     1       1.069  12.226  20.465  0.00  0.00    +0.000 A 
ATOM     26  O   UNL     1       1.747  11.734  21.360  0.00  0.00    +0.000 OA
ATOM     27  H   UNL     1       2.023  14.018  20.512  0.00  0.00    +0.000 HD
ENDBRANCH  17  18
ENDBRANCH  15  17
ENDBRANCH   5  13
BRANCH   9  28
ATOM     28  C   UNL     1       2.922   2.482  19.282  0.00  0.00    +0.000 C 
ATOM     29  C   UNL     1       2.681   2.208  17.798  0.00  0.00    +0.000 C 
ATOM     30  C   UNL     1       4.378   2.181  19.642  0.00  0.00    +0.000 C 
ENDBRANCH   9  28
TORSDOF 4
ENDMDL
MODEL 9
REMARK VINA RESULT:      -7.1      2.624      4.258
REMARK  Name = 
REMARK  9 active torsions:
REMARK  status: ('A' for Active; 'I' for Inactive)
REMARK    1  A    between atoms: C_1  and  N_2
REMARK    2  A    between atoms: C_5  and  C_6
REMARK    3  A    between atoms: N_8  and  C_9
REMARK    4  A    between atoms: C_9  and  C_10
REMARK    5  A    between atoms: C_11  and  C_12
REMARK    6  A    between atoms: C_14  and  C_15
REMARK    7  A    between atoms: N_22  and  C_23
REMARK    8  A    between atoms: C_23  and  C_24
REMARK    9  A    between atoms: C_23  and  C_25
REMARK                            x       y       z     vdW  Elec       q    Type
REMARK                         _______ _______ _______ _____ _____    ______ ____
ROOT
ATOM      1  C   UNL     1      -4.318  11.023  17.947  0.00  0.00    +0.000 C 
ATOM      2  N   UNL     1      -3.116  10.374  17.413  0.00  0.00    +0.000 N 
ATOM      3  C   UNL     1      -1.971  10.532  18.214  0.00  0.00    +0.000 A 
ATOM      4  C   UNL     1      -0.771   9.938  17.768  0.00  0.00    +0.000 A 
ATOM      5  C   UNL     1       0.401  10.107  18.523  0.00  0.00    +0.000 A 
ATOM      6  C   UNL     1       0.319  10.862  19.691  0.00  0.00    +0.000 A 
ATOM      7  C   UNL     1       1.175  11.309  20.713  0.00  0.00    +0.000 A 
ATOM      8  N   UNL     1       0.556  12.031  21.640  0.00  0.00    +0.000 NA
ATOM      9  N   UNL     1      -0.726  12.090  21.210  0.00  0.00    +0.000 N 
ATOM     10  C   UNL     1      -0.926  11.404  20.032  0.00  0.00    +0.000 A 
ATOM     11  N   UNL     1      -2.063  11.262  19.348  0.00  0.00    +0.000 NA
ATOM     12  H   UNL     1      -2.886  10.721  16.487  0.00  0.00    +0.000 HD
ENDROOT
BRANCH   5  13
ATOM     13  C   UNL     1       1.702   9.545  18.071  0.00  0.00    +0.000 C 
ATOM     14  O   UNL     1       2.488  10.264  17.471  0.00  0.00    +0.000 OA
ATOM     15  N   UNL     1       1.970   8.219  18.371  0.00  0.00    +0.000 N 
ATOM     16  H   UNL     1       1.508   7.753  19.115  0.00  0.00    +0.000 HD
BRANCH  15  17
ATOM     17  C   UNL     1       3.229   7.627  17.955  0.00  0.00    +0.000 C 
BRANCH  17  18
ATOM     18  C   UNL     1       3.249   6.167  18.289  0.00  0.00    +0.000 A 
ATOM     19  C   UNL     1       2.597   5.584  19.326  0.00  0.00    +0.000 A 
ATOM     20  C   UNL     1       1.802   6.306  20.378  0.00  0.00    +0.000 C 
ATOM     21  C   UNL     1       2.630   4.142  19.497  0.00  0.00    +0.000 A 
ATOM     22  C   UNL     1       3.270   3.345  18.617  0.00  0.00    +0.000 A 
ATOM     23  C   UNL     1       3.318   1.858  18.750  0.00  0.00    +0.000 C 
ATOM     24  N   UNL     1       3.913   3.920  17.556  0.00  0.00    +0.000 N 
ATOM     25  C   UNL     1       3.986   5.275  17.325  0.00  0.00    +0.000 A 
ATOM     26  O   UNL     1       4.626   5.727  16.383  0.00  0.00    +0.000 OA
ATOM     27  H   UNL     1       4.412   3.337  16.891  0.00  0.00    +0.000 HD
ENDBRANCH  17  18
ENDBRANCH  15  17
ENDBRANCH   5  13
BRANCH   9  28
ATOM     28  C   UNL     1      -1.670  12.855  22.014  0.00  0.00    +0.000 C 
ATOM     29  C   UNL     1      -2.486  11.980  22.964  0.00  0.00    +0.000 C 
ATOM     30  C   UNL     1      -1.046  14.023  22.780  0.00  0.00    +0.000 C 
ENDBRANCH   9  28
TORSDOF 4
ENDMDL
