MODEL 1
REMARK VINA RESULT:      -6.5      0.000      0.000
REMARK  Name = 
REMARK  2 active torsions:
REMARK  status: ('A' for Active; 'I' for Inactive)
REMARK    1  A    between atoms: C_2  and  C_3
REMARK    2  A    between atoms: C_21  and  O_22
REMARK                            x       y       z     vdW  Elec       q    Type
REMARK                         _______ _______ _______ _____ _____    ______ ____
ROOT
ATOM      1  O   UNL     1       8.201  11.063  23.230  0.00  0.00    +0.000 OA
ATOM      2  C   UNL     1       8.123  12.158  22.676  0.00  0.00    +0.000 C 
ATOM      3  N   UNL     1       8.630  12.400  21.393  0.00  0.00    +0.000 N 
ATOM      4  C   UNL     1       9.347  11.325  20.684  0.00  0.00    +0.000 C 
ATOM      5  C   UNL     1      10.838  11.621  20.461  0.00  0.00    +0.000 C 
ATOM      6  C   UNL     1      11.101  12.638  19.369  0.00  0.00    +0.000 A 
ATOM      7  N   UNL     1      11.728  12.184  18.266  0.00  0.00    +0.000 NA
ATOM      8  C   UNL     1      11.899  13.069  17.275  0.00  0.00    +0.000 A 
ATOM      9  N   UNL     1      11.515  14.353  17.280  0.00  0.00    +0.000 NA
ATOM     10  C   UNL     1      10.908  14.799  18.389  0.00  0.00    +0.000 A 
ATOM     11  N   UNL     1      10.433  16.107  18.429  0.00  0.00    +0.000 N 
ATOM     12  C   UNL     1      10.063  16.762  17.167  0.00  0.00    +0.000 C 
ATOM     13  C   UNL     1      10.208  18.267  17.453  0.00  0.00    +0.000 C 
ATOM     14  C   UNL     1      10.454  18.347  18.955  0.00  0.00    +0.000 C 
ATOM     15  C   UNL     1      11.237  17.057  19.215  0.00  0.00    +0.000 C 
ATOM     16  C   UNL     1      10.670  13.959  19.479  0.00  0.00    +0.000 A 
ATOM     17  C   UNL     1       9.844  14.401  20.656  0.00  0.00    +0.000 C 
ATOM     18  C   UNL     1       8.507  13.660  20.662  0.00  0.00    +0.000 C 
ENDROOT
BRANCH   2  19
ATOM     19  C   UNL     1       7.406  13.226  23.413  0.00  0.00    +0.000 A 
ATOM     20  C   UNL     1       6.015  13.169  23.471  0.00  0.00    +0.000 A 
ATOM     21  N   UNL     1       5.240  14.131  24.040  0.00  0.00    +0.000 NA
ATOM     22  C   UNL     1       5.889  15.186  24.586  0.00  0.00    +0.000 A 
ATOM     23  C   UNL     1       7.268  15.293  24.621  0.00  0.00    +0.000 A 
ATOM     24  F   UNL     1       7.858  16.368  25.158  0.00  0.00    +0.000 F 
ATOM     25  C   UNL     1       8.041  14.286  24.061  0.00  0.00    +0.000 A 
ENDBRANCH   2  19
BRANCH  14  26
ATOM     26  O   UNL     1       9.200  18.298  19.641  0.00  0.00    +0.000 OA
ATOM     27  H   UNL     1       8.546  18.659  19.014  0.00  0.00    +0.000 HD
ENDBRANCH  14  26
TORSDOF 2
ENDMDL
MODEL 2
REMARK VINA RESULT:      -6.4     10.008     12.715
REMARK  Name = 
REMARK  2 active torsions:
REMARK  status: ('A' for Active; 'I' for Inactive)
REMARK    1  A    between atoms: C_2  and  C_3
REMARK    2  A    between atoms: C_21  and  O_22
REMARK                            x       y       z     vdW  Elec       q    Type
REMARK                         _______ _______ _______ _____ _____    ______ ____
ROOT
ATOM      1  O   UNL     1      -3.594  14.706  24.997  0.00  0.00    +0.000 OA
ATOM      2  C   UNL     1      -3.687  13.901  24.073  0.00  0.00    +0.000 C 
ATOM      3  N   UNL     1      -2.572  13.368  23.414  0.00  0.00    +0.000 N 
ATOM      4  C   UNL     1      -1.222  13.826  23.789  0.00  0.00    +0.000 C 
ATOM      5  C   UNL     1      -0.506  14.609  22.678  0.00  0.00    +0.000 C 
ATOM      6  C   UNL     1       0.006  13.735  21.551  0.00  0.00    +0.000 A 
ATOM      7  N   UNL     1       1.345  13.656  21.415  0.00  0.00    +0.000 NA
ATOM      8  C   UNL     1       1.797  12.831  20.462  0.00  0.00    +0.000 A 
ATOM      9  N   UNL     1       1.050  12.089  19.632  0.00  0.00    +0.000 NA
ATOM     10  C   UNL     1      -0.281  12.190  19.763  0.00  0.00    +0.000 A 
ATOM     11  N   UNL     1      -1.107  11.398  18.970  0.00  0.00    +0.000 N 
ATOM     12  C   UNL     1      -0.588  10.116  18.471  0.00  0.00    +0.000 C 
ATOM     13  C   UNL     1      -1.411   9.832  17.202  0.00  0.00    +0.000 C 
ATOM     14  C   UNL     1      -2.497  10.902  17.205  0.00  0.00    +0.000 C 
ATOM     15  C   UNL     1      -1.772  12.085  17.852  0.00  0.00    +0.000 C 
ATOM     16  C   UNL     1      -0.859  13.012  20.732  0.00  0.00    +0.000 A 
ATOM     17  C   UNL     1      -2.339  13.004  20.999  0.00  0.00    +0.000 C 
ATOM     18  C   UNL     1      -2.621  12.361  22.355  0.00  0.00    +0.000 C 
ENDROOT
BRANCH   2  19
ATOM     19  C   UNL     1      -5.056  13.463  23.708  0.00  0.00    +0.000 A 
ATOM     20  C   UNL     1      -5.676  12.503  24.504  0.00  0.00    +0.000 A 
ATOM     21  N   UNL     1      -6.890  11.958  24.227  0.00  0.00    +0.000 NA
ATOM     22  C   UNL     1      -7.513  12.405  23.111  0.00  0.00    +0.000 A 
ATOM     23  C   UNL     1      -6.993  13.395  22.296  0.00  0.00    +0.000 A 
ATOM     24  F   UNL     1      -7.643  13.786  21.194  0.00  0.00    +0.000 F 
ATOM     25  C   UNL     1      -5.766  13.959  22.615  0.00  0.00    +0.000 A 
ENDBRANCH   2  19
BRANCH  14  26
ATOM     26  O   UNL     1      -3.574  10.477  18.045  0.00  0.00    +0.000 OA
ATOM     27  H   UNL     1      -3.908  11.288  18.471  0.00  0.00    +0.000 HD
ENDBRANCH  14  26
TORSDOF 2
ENDMDL
MODEL 3
REMARK VINA RESULT:      -6.3     10.858     14.365
REMARK  Name = 
REMARK  2 active torsions:
REMARK  status: ('A' for Active; 'I' for Inactive)
REMARK    1  A    between atoms: C_2  and  C_3
REMARK    2  A    between atoms: C_21  and  O_22
REMARK                            x       y       z     vdW  Elec       q    Type
REMARK                         _______ _______ _______ _____ _____    ______ ____
ROOT
ATOM      1  O   UNL     1      -0.403  12.794  18.333  0.00  0.00    +0.000 OA
ATOM      2  C   UNL     1      -1.030  13.042  19.362  0.00  0.00    +0.000 C 
ATOM      3  N   UNL     1      -2.228  12.399  19.695  0.00  0.00    +0.000 N 
ATOM      4  C   UNL     1      -2.813  11.425  18.757  0.00  0.00    +0.000 C 
ATOM      5  C   UNL     1      -4.152  11.875  18.154  0.00  0.00    +0.000 C 
ATOM      6  C   UNL     1      -5.317  11.780  19.118  0.00  0.00    +0.000 A 
ATOM      7  N   UNL     1      -6.269  10.874  18.818  0.00  0.00    +0.000 NA
ATOM      8  C   UNL     1      -7.264  10.744  19.707  0.00  0.00    +0.000 A 
ATOM      9  N   UNL     1      -7.403  11.429  20.850  0.00  0.00    +0.000 NA
ATOM     10  C   UNL     1      -6.461  12.341  21.129  0.00  0.00    +0.000 A 
ATOM     11  N   UNL     1      -6.520  13.039  22.332  0.00  0.00    +0.000 N 
ATOM     12  C   UNL     1      -7.190  12.412  23.479  0.00  0.00    +0.000 C 
ATOM     13  C   UNL     1      -7.637  13.592  24.361  0.00  0.00    +0.000 C 
ATOM     14  C   UNL     1      -6.981  14.812  23.724  0.00  0.00    +0.000 C 
ATOM     15  C   UNL     1      -6.983  14.433  22.240  0.00  0.00    +0.000 C 
ATOM     16  C   UNL     1      -5.374  12.550  20.277  0.00  0.00    +0.000 A 
ATOM     17  C   UNL     1      -4.227  13.445  20.661  0.00  0.00    +0.000 C 
ATOM     18  C   UNL     1      -2.979  12.607  20.933  0.00  0.00    +0.000 C 
ENDROOT
BRANCH   2  19
ATOM     19  C   UNL     1      -0.427  14.033  20.285  0.00  0.00    +0.000 A 
ATOM     20  C   UNL     1       0.514  13.587  21.210  0.00  0.00    +0.000 A 
ATOM     21  N   UNL     1       1.072  14.378  22.165  0.00  0.00    +0.000 NA
ATOM     22  C   UNL     1       0.682  15.674  22.181  0.00  0.00    +0.000 A 
ATOM     23  C   UNL     1      -0.204  16.211  21.264  0.00  0.00    +0.000 A 
ATOM     24  F   UNL     1      -0.572  17.495  21.339  0.00  0.00    +0.000 F 
ATOM     25  C   UNL     1      -0.740  15.393  20.280  0.00  0.00    +0.000 A 
ENDBRANCH   2  19
BRANCH  14  26
ATOM     26  O   UNL     1      -5.634  14.921  24.193  0.00  0.00    +0.000 OA
ATOM     27  H   UNL     1      -5.465  15.878  24.278  0.00  0.00    +0.000 HD
ENDBRANCH  14  26
TORSDOF 2
ENDMDL
MODEL 4
REMARK VINA RESULT:      -6.2     10.979     14.401
REMARK  Name = 
REMARK  2 active torsions:
REMARK  status: ('A' for Active; 'I' for Inactive)
REMARK    1  A    between atoms: C_2  and  C_3
REMARK    2  A    between atoms: C_21  and  O_22
REMARK                            x       y       z     vdW  Elec       q    Type
REMARK                         _______ _______ _______ _____ _____    ______ ____
ROOT
ATOM      1  O   UNL     1      -0.414  11.544  23.088  0.00  0.00    +0.000 OA
ATOM      2  C   UNL     1      -0.978  11.876  22.048  0.00  0.00    +0.000 C 
ATOM      3  N   UNL     1      -2.136  12.665  22.029  0.00  0.00    +0.000 N 
ATOM      4  C   UNL     1      -2.755  13.072  23.303  0.00  0.00    +0.000 C 
ATOM      5  C   UNL     1      -4.142  12.454  23.541  0.00  0.00    +0.000 C 
ATOM      6  C   UNL     1      -5.239  13.081  22.704  0.00  0.00    +0.000 A 
ATOM      7  N   UNL     1      -6.185  13.767  23.376  0.00  0.00    +0.000 NA
ATOM      8  C   UNL     1      -7.116  14.377  22.629  0.00  0.00    +0.000 A 
ATOM      9  N   UNL     1      -7.199  14.362  21.292  0.00  0.00    +0.000 NA
ATOM     10  C   UNL     1      -6.263  13.661  20.635  0.00  0.00    +0.000 A 
ATOM     11  N   UNL     1      -6.263  13.659  19.243  0.00  0.00    +0.000 N 
ATOM     12  C   UNL     1      -6.841  14.810  18.536  0.00  0.00    +0.000 C 
ATOM     13  C   UNL     1      -7.259  14.253  17.164  0.00  0.00    +0.000 C 
ATOM     14  C   UNL     1      -6.678  12.844  17.132  0.00  0.00    +0.000 C 
ATOM     15  C   UNL     1      -6.766  12.433  18.604  0.00  0.00    +0.000 C 
ATOM     16  C   UNL     1      -5.240  12.995  21.314  0.00  0.00    +0.000 A 
ATOM     17  C   UNL     1      -4.094  12.350  20.584  0.00  0.00    +0.000 C 
ATOM     18  C   UNL     1      -2.810  13.143  20.823  0.00  0.00    +0.000 C 
ENDROOT
BRANCH   2  19
ATOM     19  C   UNL     1      -0.342  11.446  20.780  0.00  0.00    +0.000 A 
ATOM     20  C   UNL     1       0.938  11.912  20.492  0.00  0.00    +0.000 A 
ATOM     21  N   UNL     1       1.592  11.661  19.326  0.00  0.00    +0.000 NA
ATOM     22  C   UNL     1       0.939  10.898  18.419  0.00  0.00    +0.000 A 
ATOM     23  C   UNL     1      -0.311  10.350  18.647  0.00  0.00    +0.000 A 
ATOM     24  F   UNL     1      -0.919   9.618  17.706  0.00  0.00    +0.000 F 
ATOM     25  C   UNL     1      -0.948  10.594  19.855  0.00  0.00    +0.000 A 
ENDBRANCH   2  19
BRANCH  14  26
ATOM     26  O   UNL     1      -5.306  12.910  16.730  0.00  0.00    +0.000 OA
ATOM     27  H   UNL     1      -4.790  12.873  17.557  0.00  0.00    +0.000 HD
ENDBRANCH  14  26
TORSDOF 2
ENDMDL
MODEL 5
REMARK VINA RESULT:      -6.1      9.961     12.678
REMARK  Name = 
REMARK  2 active torsions:
REMARK  status: ('A' for Active; 'I' for Inactive)
REMARK    1  A    between atoms: C_2  and  C_3
REMARK    2  A    between atoms: C_21  and  O_22
REMARK                            x       y       z     vdW  Elec       q    Type
REMARK                         _______ _______ _______ _____ _____    ______ ____
ROOT
ATOM      1  O   UNL     1      -3.490  15.236  24.885  0.00  0.00    +0.000 OA
ATOM      2  C   UNL     1      -3.620  14.408  23.986  0.00  0.00    +0.000 C 
ATOM      3  N   UNL     1      -2.533  13.763  23.383  0.00  0.00    +0.000 N 
ATOM      4  C   UNL     1      -1.162  14.123  23.787  0.00  0.00    +0.000 C 
ATOM      5  C   UNL     1      -0.350  14.805  22.676  0.00  0.00    +0.000 C 
ATOM      6  C   UNL     1       0.124  13.852  21.596  0.00  0.00    +0.000 A 
ATOM      7  N   UNL     1       1.455  13.660  21.509  0.00  0.00    +0.000 NA
ATOM      8  C   UNL     1       1.867  12.767  20.600  0.00  0.00    +0.000 A 
ATOM      9  N   UNL     1       1.088  12.059  19.771  0.00  0.00    +0.000 NA
ATOM     10  C   UNL     1      -0.234  12.271  19.852  0.00  0.00    +0.000 A 
ATOM     11  N   UNL     1      -1.097  11.520  19.059  0.00  0.00    +0.000 N 
ATOM     12  C   UNL     1      -0.671  10.184  18.622  0.00  0.00    +0.000 C 
ATOM     13  C   UNL     1      -1.475   9.922  17.336  0.00  0.00    +0.000 C 
ATOM     14  C   UNL     1      -2.468  11.076  17.266  0.00  0.00    +0.000 C 
ATOM     15  C   UNL     1      -1.668  12.219  17.897  0.00  0.00    +0.000 C 
ATOM     16  C   UNL     1      -0.772  13.173  20.773  0.00  0.00    +0.000 A 
ATOM     17  C   UNL     1      -2.256  13.294  20.990  0.00  0.00    +0.000 C 
ATOM     18  C   UNL     1      -2.632  12.725  22.357  0.00  0.00    +0.000 C 
ENDROOT
BRANCH   2  19
ATOM     19  C   UNL     1      -5.008  14.070  23.589  0.00  0.00    +0.000 A 
ATOM     20  C   UNL     1      -5.702  14.969  22.783  0.00  0.00    +0.000 A 
ATOM     21  N   UNL     1      -7.005  14.816  22.424  0.00  0.00    +0.000 NA
ATOM     22  C   UNL     1      -7.632  13.707  22.882  0.00  0.00    +0.000 A 
ATOM     23  C   UNL     1      -7.001  12.737  23.640  0.00  0.00    +0.000 A 
ATOM     24  F   UNL     1      -7.674  11.669  24.082  0.00  0.00    +0.000 F 
ATOM     25  C   UNL     1      -5.663  12.898  23.970  0.00  0.00    +0.000 A 
ENDBRANCH   2  19
BRANCH  14  26
ATOM     26  O   UNL     1      -3.602  10.770  18.083  0.00  0.00    +0.000 OA
ATOM     27  H   UNL     1      -3.237  10.502  18.947  0.00  0.00    +0.000 HD
ENDBRANCH  14  26
TORSDOF 2
ENDMDL
MODEL 6
REMARK VINA RESULT:      -6.1     10.946     14.446
REMARK  Name = 
REMARK  2 active torsions:
REMARK  status: ('A' for Active; 'I' for Inactive)
REMARK    1  A    between atoms: C_2  and  C_3
REMARK    2  A    between atoms: C_21  and  O_22
REMARK                            x       y       z     vdW  Elec       q    Type
REMARK                         _______ _______ _______ _____ _____    ______ ____
ROOT
ATOM      1  O   UNL     1      -0.429  11.987  23.156  0.00  0.00    +0.000 OA
ATOM      2  C   UNL     1      -1.051  12.247  22.127  0.00  0.00    +0.000 C 
ATOM      3  N   UNL     1      -2.253  12.966  22.126  0.00  0.00    +0.000 N 
ATOM      4  C   UNL     1      -2.848  13.383  23.408  0.00  0.00    +0.000 C 
ATOM      5  C   UNL     1      -4.185  12.695  23.721  0.00  0.00    +0.000 C 
ATOM      6  C   UNL     1      -5.348  13.226  22.907  0.00  0.00    +0.000 A 
ATOM      7  N   UNL     1      -6.308  13.881  23.590  0.00  0.00    +0.000 NA
ATOM      8  C   UNL     1      -7.300  14.407  22.860  0.00  0.00    +0.000 A 
ATOM      9  N   UNL     1      -7.431  14.338  21.528  0.00  0.00    +0.000 NA
ATOM     10  C   UNL     1      -6.481  13.668  20.860  0.00  0.00    +0.000 A 
ATOM     11  N   UNL     1      -6.531  13.615  19.470  0.00  0.00    +0.000 N 
ATOM     12  C   UNL     1      -7.202  14.704  18.746  0.00  0.00    +0.000 C 
ATOM     13  C   UNL     1      -7.636  14.073  17.411  0.00  0.00    +0.000 C 
ATOM     14  C   UNL     1      -6.974  12.700  17.406  0.00  0.00    +0.000 C 
ATOM     15  C   UNL     1      -6.984  12.339  18.894  0.00  0.00    +0.000 C 
ATOM     16  C   UNL     1      -5.395  13.089  21.521  0.00  0.00    +0.000 A 
ATOM     17  C   UNL     1      -4.241  12.484  20.770  0.00  0.00    +0.000 C 
ATOM     18  C   UNL     1      -2.998  13.359  20.931  0.00  0.00    +0.000 C 
ENDROOT
BRANCH   2  19
ATOM     19  C   UNL     1      -0.437  11.808  20.851  0.00  0.00    +0.000 A 
ATOM     20  C   UNL     1      -0.709  10.520  20.397  0.00  0.00    +0.000 A 
ATOM     21  N   UNL     1      -0.141   9.970  19.291  0.00  0.00    +0.000 NA
ATOM     22  C   UNL     1       0.725  10.752  18.604  0.00  0.00    +0.000 A 
ATOM     23  C   UNL     1       1.009  12.060  18.954  0.00  0.00    +0.000 A 
ATOM     24  F   UNL     1       1.889  12.781  18.250  0.00  0.00    +0.000 F 
ATOM     25  C   UNL     1       0.395  12.611  20.070  0.00  0.00    +0.000 A 
ENDBRANCH   2  19
BRANCH  14  26
ATOM     26  O   UNL     1      -5.624  12.830  16.949  0.00  0.00    +0.000 OA
ATOM     27  H   UNL     1      -5.333  11.925  16.735  0.00  0.00    +0.000 HD
ENDBRANCH  14  26
TORSDOF 2
ENDMDL
MODEL 7
REMARK VINA RESULT:      -6.0     10.699     14.421
REMARK  Name = 
REMARK  2 active torsions:
REMARK  status: ('A' for Active; 'I' for Inactive)
REMARK    1  A    between atoms: C_2  and  C_3
REMARK    2  A    between atoms: C_21  and  O_22
REMARK                            x       y       z     vdW  Elec       q    Type
REMARK                         _______ _______ _______ _____ _____    ______ ____
ROOT
ATOM      1  O   UNL     1      -0.666  14.362  24.219  0.00  0.00    +0.000 OA
ATOM      2  C   UNL     1      -1.227  14.273  23.130  0.00  0.00    +0.000 C 
ATOM      3  N   UNL     1      -2.621  14.272  22.990  0.00  0.00    +0.000 N 
ATOM      4  C   UNL     1      -3.469  14.317  24.194  0.00  0.00    +0.000 C 
ATOM      5  C   UNL     1      -4.290  13.039  24.420  0.00  0.00    +0.000 C 
ATOM      6  C   UNL     1      -5.473  12.901  23.483  0.00  0.00    +0.000 A 
ATOM      7  N   UNL     1      -6.695  12.967  24.048  0.00  0.00    +0.000 NA
ATOM      8  C   UNL     1      -7.739  12.912  23.210  0.00  0.00    +0.000 A 
ATOM      9  N   UNL     1      -7.683  12.793  21.876  0.00  0.00    +0.000 NA
ATOM     10  C   UNL     1      -6.463  12.710  21.326  0.00  0.00    +0.000 A 
ATOM     11  N   UNL     1      -6.341  12.646  19.941  0.00  0.00    +0.000 N 
ATOM     12  C   UNL     1      -7.399  13.239  19.111  0.00  0.00    +0.000 C 
ATOM     13  C   UNL     1      -7.315  12.482  17.774  0.00  0.00    +0.000 C 
ATOM     14  C   UNL     1      -6.047  11.644  17.891  0.00  0.00    +0.000 C 
ATOM     15  C   UNL     1      -6.019  11.321  19.387  0.00  0.00    +0.000 C 
ATOM     16  C   UNL     1      -5.306  12.767  22.106  0.00  0.00    +0.000 A 
ATOM     17  C   UNL     1      -3.937  12.845  21.488  0.00  0.00    +0.000 C 
ATOM     18  C   UNL     1      -3.340  14.232  21.717  0.00  0.00    +0.000 C 
ENDROOT
BRANCH   2  19
ATOM     19  C   UNL     1      -0.352  14.217  21.934  0.00  0.00    +0.000 A 
ATOM     20  C   UNL     1      -0.010  15.414  21.310  0.00  0.00    +0.000 A 
ATOM     21  N   UNL     1       0.711  15.491  20.160  0.00  0.00    +0.000 NA
ATOM     22  C   UNL     1       1.118  14.318  19.622  0.00  0.00    +0.000 A 
ATOM     23  C   UNL     1       0.869  13.088  20.206  0.00  0.00    +0.000 A 
ATOM     24  F   UNL     1       1.278  11.957  19.620  0.00  0.00    +0.000 F 
ATOM     25  C   UNL     1       0.156  13.035  21.396  0.00  0.00    +0.000 A 
ENDBRANCH   2  19
BRANCH  14  26
ATOM     26  O   UNL     1      -4.916  12.451  17.549  0.00  0.00    +0.000 OA
ATOM     27  H   UNL     1      -5.282  13.236  17.100  0.00  0.00    +0.000 HD
ENDBRANCH  14  26
TORSDOF 2
ENDMDL
MODEL 8
REMARK VINA RESULT:      -6.0     10.859     14.377
REMARK  Name = 
REMARK  2 active torsions:
REMARK  status: ('A' for Active; 'I' for Inactive)
REMARK    1  A    between atoms: C_2  and  C_3
REMARK    2  A    between atoms: C_21  and  O_22
REMARK                            x       y       z     vdW  Elec       q    Type
REMARK                         _______ _______ _______ _____ _____    ______ ____
ROOT
ATOM      1  O   UNL     1      -0.545  12.900  18.183  0.00  0.00    +0.000 OA
ATOM      2  C   UNL     1      -1.145  13.163  19.222  0.00  0.00    +0.000 C 
ATOM      3  N   UNL     1      -2.293  12.475  19.634  0.00  0.00    +0.000 N 
ATOM      4  C   UNL     1      -2.858  11.426  18.766  0.00  0.00    +0.000 C 
ATOM      5  C   UNL     1      -4.241  11.774  18.196  0.00  0.00    +0.000 C 
ATOM      6  C   UNL     1      -5.363  11.664  19.209  0.00  0.00    +0.000 A 
ATOM      7  N   UNL     1      -6.274  10.695  18.991  0.00  0.00    +0.000 NA
ATOM      8  C   UNL     1      -7.226  10.557  19.923  0.00  0.00    +0.000 A 
ATOM      9  N   UNL     1      -7.361  11.288  21.038  0.00  0.00    +0.000 NA
ATOM     10  C   UNL     1      -6.460  12.262  21.236  0.00  0.00    +0.000 A 
ATOM     11  N   UNL     1      -6.513  13.014  22.406  0.00  0.00    +0.000 N 
ATOM     12  C   UNL     1      -7.104  12.409  23.607  0.00  0.00    +0.000 C 
ATOM     13  C   UNL     1      -7.582  13.606  24.450  0.00  0.00    +0.000 C 
ATOM     14  C   UNL     1      -7.019  14.826  23.730  0.00  0.00    +0.000 C 
ATOM     15  C   UNL     1      -7.056  14.375  22.268  0.00  0.00    +0.000 C 
ATOM     16  C   UNL     1      -5.419  12.487  20.333  0.00  0.00    +0.000 A 
ATOM     17  C   UNL     1      -4.310  13.459  20.627  0.00  0.00    +0.000 C 
ATOM     18  C   UNL     1      -3.008  12.703  20.889  0.00  0.00    +0.000 C 
ENDROOT
BRANCH   2  19
ATOM     19  C   UNL     1      -0.564  14.230  20.073  0.00  0.00    +0.000 A 
ATOM     20  C   UNL     1      -1.129  15.501  20.016  0.00  0.00    +0.000 A 
ATOM     21  N   UNL     1      -0.635  16.581  20.679  0.00  0.00    +0.000 NA
ATOM     22  C   UNL     1       0.463  16.372  21.442  0.00  0.00    +0.000 A 
ATOM     23  C   UNL     1       1.053  15.130  21.598  0.00  0.00    +0.000 A 
ATOM     24  F   UNL     1       2.151  14.983  22.349  0.00  0.00    +0.000 F 
ATOM     25  C   UNL     1       0.515  14.036  20.936  0.00  0.00    +0.000 A 
ENDBRANCH   2  19
BRANCH  14  26
ATOM     26  O   UNL     1      -5.663  15.030  24.139  0.00  0.00    +0.000 OA
ATOM     27  H   UNL     1      -5.547  14.483  24.938  0.00  0.00    +0.000 HD
ENDBRANCH  14  26
TORSDOF 2
ENDMDL
MODEL 9
REMARK VINA RESULT:      -6.0     10.859     14.482
REMARK  Name = 
REMARK  2 active torsions:
REMARK  status: ('A' for Active; 'I' for Inactive)
REMARK    1  A    between atoms: C_2  and  C_3
REMARK    2  A    between atoms: C_21  and  O_22
REMARK                            x       y       z     vdW  Elec       q    Type
REMARK                         _______ _______ _______ _____ _____    ______ ____
ROOT
ATOM      1  O   UNL     1      -0.325  13.363  23.450  0.00  0.00    +0.000 OA
ATOM      2  C   UNL     1      -1.014  13.481  22.439  0.00  0.00    +0.000 C 
ATOM      3  N   UNL     1      -2.383  13.774  22.481  0.00  0.00    +0.000 N 
ATOM      4  C   UNL     1      -3.058  13.890  23.786  0.00  0.00    +0.000 C 
ATOM      5  C   UNL     1      -4.099  12.790  24.042  0.00  0.00    +0.000 C 
ATOM      6  C   UNL     1      -5.385  12.974  23.260  0.00  0.00    +0.000 A 
ATOM      7  N   UNL     1      -6.492  13.238  23.982  0.00  0.00    +0.000 NA
ATOM      8  C   UNL     1      -7.613  13.466  23.285  0.00  0.00    +0.000 A 
ATOM      9  N   UNL     1      -7.737  13.450  21.951  0.00  0.00    +0.000 NA
ATOM     10  C   UNL     1      -6.634  13.168  21.243  0.00  0.00    +0.000 A 
ATOM     11  N   UNL     1      -6.688  13.197  19.852  0.00  0.00    +0.000 N 
ATOM     12  C   UNL     1      -7.685  14.059  19.202  0.00  0.00    +0.000 C 
ATOM     13  C   UNL     1      -7.917  13.415  17.824  0.00  0.00    +0.000 C 
ATOM     14  C   UNL     1      -6.850  12.331  17.727  0.00  0.00    +0.000 C 
ATOM     15  C   UNL     1      -6.718  11.885  19.186  0.00  0.00    +0.000 C 
ATOM     16  C   UNL     1      -5.409  12.924  21.868  0.00  0.00    +0.000 A 
ATOM     17  C   UNL     1      -4.134  12.774  21.083  0.00  0.00    +0.000 C 
ATOM     18  C   UNL     1      -3.235  13.988  21.312  0.00  0.00    +0.000 C 
ENDROOT
BRANCH   2  19
ATOM     19  C   UNL     1      -0.314  13.349  21.139  0.00  0.00    +0.000 A 
ATOM     20  C   UNL     1      -0.138  12.073  20.609  0.00  0.00    +0.000 A 
ATOM     21  N   UNL     1       0.561  11.813  19.472  0.00  0.00    +0.000 NA
ATOM     22  C   UNL     1       1.093  12.881  18.832  0.00  0.00    +0.000 A 
ATOM     23  C   UNL     1       0.919  14.186  19.260  0.00  0.00    +0.000 A 
ATOM     24  F   UNL     1       1.485  15.203  18.599  0.00  0.00    +0.000 F 
ATOM     25  C   UNL     1       0.177  14.430  20.406  0.00  0.00    +0.000 A 
ENDBRANCH   2  19
BRANCH  14  26
ATOM     26  O   UNL     1      -5.621  12.918  17.288  0.00  0.00    +0.000 OA
ATOM     27  H   UNL     1      -4.916  12.366  17.674  0.00  0.00    +0.000 HD
ENDBRANCH  14  26
TORSDOF 2
ENDMDL
