MODEL 1
REMARK VINA RESULT:      -7.9      0.000      0.000
REMARK  Name = 
REMARK  5 active torsions:
REMARK  status: ('A' for Active; 'I' for Inactive)
REMARK    1  A    between atoms: N_1  and  C_2
REMARK    2  A    between atoms: C_6  and  N_7
REMARK    3  A    between atoms: C_10  and  N_11
REMARK    4  A    between atoms: C_12  and  C_13
REMARK    5  A    between atoms: C_13  and  C_15
REMARK                            x       y       z     vdW  Elec       q    Type
REMARK                         _______ _______ _______ _____ _____    ______ ____
ROOT
ATOM      1  N   UNL     1       8.166   9.692  17.882  0.00  0.00    +0.000 N 
ATOM      2  C   UNL     1       7.903   8.372  18.051  0.00  0.00    +0.000 A 
ATOM      3  N   UNL     1       8.378   7.594  18.996  0.00  0.00    +0.000 NA
ATOM      4  C   UNL     1       7.972   6.311  18.822  0.00  0.00    +0.000 A 
ATOM      5  C   UNL     1       7.123   6.072  17.764  0.00  0.00    +0.000 A 
ATOM      6  S   UNL     1       6.877   7.557  16.925  0.00  0.00    +0.000 S 
ATOM      7  H   UNL     1       7.766  10.125  17.059  0.00  0.00    +0.000 HD
ENDROOT
BRANCH   1  12
ATOM      8  C   UNL     1      11.266  11.786  18.284  0.00  0.00    +0.000 A 
ATOM      9  C   UNL     1      11.283  11.917  19.670  0.00  0.00    +0.000 A 
ATOM     10  C   UNL     1      10.289  11.329  20.446  0.00  0.00    +0.000 A 
ATOM     11  C   UNL     1       9.273  10.587  19.839  0.00  0.00    +0.000 A 
ATOM     12  C   UNL     1       9.238  10.413  18.449  0.00  0.00    +0.000 A 
ATOM     13  C   UNL     1      10.278  10.984  17.699  0.00  0.00    +0.000 A 
BRANCH   8  14
ATOM     14  N   UNL     1      12.333  12.265  17.511  0.00  0.00    +0.000 N 
ATOM     15  H   UNL     1      12.973  12.863  18.024  0.00  0.00    +0.000 HD
ATOM     16  H   UNL     1      12.034  12.683  16.635  0.00  0.00    +0.000 HD
ENDBRANCH   8  14
ENDBRANCH   1  12
BRANCH   4  17
ATOM     17  N   UNL     1       8.465   5.438  19.713  0.00  0.00    +0.000 N 
ATOM     18  H   UNL     1       8.357   5.685  20.693  0.00  0.00    +0.000 HD
ATOM     19  H   UNL     1       9.277   4.861  19.532  0.00  0.00    +0.000 HD
ENDBRANCH   4  17
BRANCH   5  20
ATOM     20  C   UNL     1       6.469   4.871  17.286  0.00  0.00    +0.000 C 
ATOM     21  O   UNL     1       6.999   4.054  16.534  0.00  0.00    +0.000 OA
BRANCH  20  22
ATOM     22  C   UNL     1       5.082   4.569  17.738  0.00  0.00    +0.000 A 
ATOM     23  C   UNL     1       4.171   3.896  16.908  0.00  0.00    +0.000 A 
ATOM     24  C   UNL     1       2.848   3.721  17.314  0.00  0.00    +0.000 A 
ATOM     25  C   UNL     1       2.446   4.172  18.569  0.00  0.00    +0.000 A 
ATOM     26  C   UNL     1       3.371   4.781  19.412  0.00  0.00    +0.000 A 
ATOM     27  F   UNL     1       2.978   5.199  20.622  0.00  0.00    +0.000 F 
ATOM     28  C   UNL     1       4.686   4.982  19.013  0.00  0.00    +0.000 A 
ENDBRANCH  20  22
ENDBRANCH   5  20
TORSDOF 5
ENDMDL
MODEL 2
REMARK VINA RESULT:      -7.9      1.094      1.369
REMARK  Name = 
REMARK  5 active torsions:
REMARK  status: ('A' for Active; 'I' for Inactive)
REMARK    1  A    between atoms: N_1  and  C_2
REMARK    2  A    between atoms: C_6  and  N_7
REMARK    3  A    between atoms: C_10  and  N_11
REMARK    4  A    between atoms: C_12  and  C_13
REMARK    5  A    between atoms: C_13  and  C_15
REMARK                            x       y       z     vdW  Elec       q    Type
REMARK                         _______ _______ _______ _____ _____    ______ ____
ROOT
ATOM      1  N   UNL     1       8.150   9.737  17.830  0.00  0.00    +0.000 N 
ATOM      2  C   UNL     1       7.861   8.420  17.981  0.00  0.00    +0.000 A 
ATOM      3  N   UNL     1       8.313   7.622  18.921  0.00  0.00    +0.000 NA
ATOM      4  C   UNL     1       7.884   6.349  18.729  0.00  0.00    +0.000 A 
ATOM      5  C   UNL     1       7.040   6.139  17.661  0.00  0.00    +0.000 A 
ATOM      6  S   UNL     1       6.829   7.638  16.838  0.00  0.00    +0.000 S 
ATOM      7  H   UNL     1       7.765  10.187  17.009  0.00  0.00    +0.000 HD
ENDROOT
BRANCH   1  12
ATOM      8  C   UNL     1      11.268  11.794  18.283  0.00  0.00    +0.000 A 
ATOM      9  C   UNL     1      11.294  11.878  19.672  0.00  0.00    +0.000 A 
ATOM     10  C   UNL     1      10.300  11.272  20.434  0.00  0.00    +0.000 A 
ATOM     11  C   UNL     1       9.275  10.558  19.809  0.00  0.00    +0.000 A 
ATOM     12  C   UNL     1       9.231  10.431  18.414  0.00  0.00    +0.000 A 
ATOM     13  C   UNL     1      10.271  11.019  17.678  0.00  0.00    +0.000 A 
BRANCH   8  14
ATOM     14  N   UNL     1      12.333  12.292  17.519  0.00  0.00    +0.000 N 
ATOM     15  H   UNL     1      12.055  12.991  16.839  0.00  0.00    +0.000 HD
ATOM     16  H   UNL     1      12.905  11.560  17.109  0.00  0.00    +0.000 HD
ENDBRANCH   8  14
ENDBRANCH   1  12
BRANCH   4  17
ATOM     17  N   UNL     1       8.353   5.457  19.614  0.00  0.00    +0.000 N 
ATOM     18  H   UNL     1       9.301   5.125  19.460  0.00  0.00    +0.000 HD
ATOM     19  H   UNL     1       7.763   4.780  20.083  0.00  0.00    +0.000 HD
ENDBRANCH   4  17
BRANCH   5  20
ATOM     20  C   UNL     1       6.367   4.956  17.164  0.00  0.00    +0.000 C 
ATOM     21  O   UNL     1       6.938   4.036  16.579  0.00  0.00    +0.000 OA
BRANCH  20  22
ATOM     22  C   UNL     1       4.901   4.805  17.384  0.00  0.00    +0.000 A 
ATOM     23  C   UNL     1       4.117   5.871  17.852  0.00  0.00    +0.000 A 
ATOM     24  C   UNL     1       2.769   5.673  18.151  0.00  0.00    +0.000 A 
ATOM     25  C   UNL     1       2.191   4.425  17.936  0.00  0.00    +0.000 A 
ATOM     26  C   UNL     1       2.959   3.390  17.412  0.00  0.00    +0.000 A 
ATOM     27  F   UNL     1       2.391   2.196  17.196  0.00  0.00    +0.000 F 
ATOM     28  C   UNL     1       4.308   3.565  17.129  0.00  0.00    +0.000 A 
ENDBRANCH  20  22
ENDBRANCH   5  20
TORSDOF 5
ENDMDL
MODEL 3
REMARK VINA RESULT:      -7.9      0.946      1.226
REMARK  Name = 
REMARK  5 active torsions:
REMARK  status: ('A' for Active; 'I' for Inactive)
REMARK    1  A    between atoms: N_1  and  C_2
REMARK    2  A    between atoms: C_6  and  N_7
REMARK    3  A    between atoms: C_10  and  N_11
REMARK    4  A    between atoms: C_12  and  C_13
REMARK    5  A    between atoms: C_13  and  C_15
REMARK                            x       y       z     vdW  Elec       q    Type
REMARK                         _______ _______ _______ _____ _____    ______ ____
ROOT
ATOM      1  N   UNL     1       8.132   9.663  17.863  0.00  0.00    +0.000 N 
ATOM      2  C   UNL     1       7.857   8.347  18.037  0.00  0.00    +0.000 A 
ATOM      3  N   UNL     1       8.342   7.562  18.973  0.00  0.00    +0.000 NA
ATOM      4  C   UNL     1       7.916   6.284  18.807  0.00  0.00    +0.000 A 
ATOM      5  C   UNL     1       7.043   6.056  17.767  0.00  0.00    +0.000 A 
ATOM      6  S   UNL     1       6.798   7.544  16.933  0.00  0.00    +0.000 S 
ATOM      7  H   UNL     1       7.721  10.101  17.049  0.00  0.00    +0.000 HD
ENDROOT
BRANCH   1  12
ATOM      8  C   UNL     1      11.250  11.743  18.202  0.00  0.00    +0.000 A 
ATOM      9  C   UNL     1      11.313  11.846  19.589  0.00  0.00    +0.000 A 
ATOM     10  C   UNL     1      10.344  11.245  20.386  0.00  0.00    +0.000 A 
ATOM     11  C   UNL     1       9.307  10.517  19.799  0.00  0.00    +0.000 A 
ATOM     12  C   UNL     1       9.225  10.371  18.408  0.00  0.00    +0.000 A 
ATOM     13  C   UNL     1      10.241  10.954  17.635  0.00  0.00    +0.000 A 
BRANCH   8  14
ATOM     14  N   UNL     1      12.292  12.234  17.403  0.00  0.00    +0.000 N 
ATOM     15  H   UNL     1      11.996  12.942  16.738  0.00  0.00    +0.000 HD
ATOM     16  H   UNL     1      12.839  11.500  16.966  0.00  0.00    +0.000 HD
ENDBRANCH   8  14
ENDBRANCH   1  12
BRANCH   4  17
ATOM     17  N   UNL     1       8.416   5.405  19.688  0.00  0.00    +0.000 N 
ATOM     18  H   UNL     1       8.607   4.471  19.333  0.00  0.00    +0.000 HD
ATOM     19  H   UNL     1       8.190   5.420  20.675  0.00  0.00    +0.000 HD
ENDBRANCH   4  17
BRANCH   5  20
ATOM     20  C   UNL     1       6.364   4.863  17.302  0.00  0.00    +0.000 C 
ATOM     21  O   UNL     1       6.789   4.138  16.404  0.00  0.00    +0.000 OA
BRANCH  20  22
ATOM     22  C   UNL     1       5.088   4.452  17.952  0.00  0.00    +0.000 A 
ATOM     23  C   UNL     1       5.076   3.771  19.179  0.00  0.00    +0.000 A 
ATOM     24  C   UNL     1       3.875   3.304  19.712  0.00  0.00    +0.000 A 
ATOM     25  C   UNL     1       2.679   3.560  19.046  0.00  0.00    +0.000 A 
ATOM     26  C   UNL     1       2.692   4.291  17.863  0.00  0.00    +0.000 A 
ATOM     27  F   UNL     1       1.535   4.544  17.236  0.00  0.00    +0.000 F 
ATOM     28  C   UNL     1       3.882   4.744  17.308  0.00  0.00    +0.000 A 
ENDBRANCH  20  22
ENDBRANCH   5  20
TORSDOF 5
ENDMDL
MODEL 4
REMARK VINA RESULT:      -7.9      6.472      9.074
REMARK  Name = 
REMARK  5 active torsions:
REMARK  status: ('A' for Active; 'I' for Inactive)
REMARK    1  A    between atoms: N_1  and  C_2
REMARK    2  A    between atoms: C_6  and  N_7
REMARK    3  A    between atoms: C_10  and  N_11
REMARK    4  A    between atoms: C_12  and  C_13
REMARK    5  A    between atoms: C_13  and  C_15
REMARK                            x       y       z     vdW  Elec       q    Type
REMARK                         _______ _______ _______ _____ _____    ______ ____
ROOT
ATOM      1  N   UNL     1       3.059   6.183  17.975  0.00  0.00    +0.000 N 
ATOM      2  C   UNL     1       2.470   7.207  18.641  0.00  0.00    +0.000 A 
ATOM      3  N   UNL     1       2.032   7.187  19.879  0.00  0.00    +0.000 NA
ATOM      4  C   UNL     1       1.428   8.359  20.202  0.00  0.00    +0.000 A 
ATOM      5  C   UNL     1       1.433   9.340  19.235  0.00  0.00    +0.000 A 
ATOM      6  S   UNL     1       2.204   8.709  17.830  0.00  0.00    +0.000 S 
ATOM      7  H   UNL     1       3.278   6.351  17.001  0.00  0.00    +0.000 HD
ENDROOT
BRANCH   1  12
ATOM      8  C   UNL     1       3.946   2.818  19.409  0.00  0.00    +0.000 A 
ATOM      9  C   UNL     1       2.793   2.112  19.079  0.00  0.00    +0.000 A 
ATOM     10  C   UNL     1       1.750   2.739  18.405  0.00  0.00    +0.000 A 
ATOM     11  C   UNL     1       1.860   4.081  18.037  0.00  0.00    +0.000 A 
ATOM     12  C   UNL     1       3.016   4.817  18.329  0.00  0.00    +0.000 A 
ATOM     13  C   UNL     1       4.066   4.144  18.974  0.00  0.00    +0.000 A 
BRANCH   8  14
ATOM     14  N   UNL     1       5.049   2.160  19.971  0.00  0.00    +0.000 N 
ATOM     15  H   UNL     1       4.818   1.268  20.396  0.00  0.00    +0.000 HD
ATOM     16  H   UNL     1       5.593   2.752  20.590  0.00  0.00    +0.000 HD
ENDBRANCH   8  14
ENDBRANCH   1  12
BRANCH   4  17
ATOM     17  N   UNL     1       0.896   8.398  21.432  0.00  0.00    +0.000 N 
ATOM     18  H   UNL     1       0.468   7.539  21.766  0.00  0.00    +0.000 HD
ATOM     19  H   UNL     1       0.483   9.233  21.831  0.00  0.00    +0.000 HD
ENDBRANCH   4  17
BRANCH   5  20
ATOM     20  C   UNL     1       0.927  10.698  19.218  0.00  0.00    +0.000 C 
ATOM     21  O   UNL     1       1.618  11.691  19.442  0.00  0.00    +0.000 OA
BRANCH  20  22
ATOM     22  C   UNL     1      -0.505  10.937  18.883  0.00  0.00    +0.000 A 
ATOM     23  C   UNL     1      -1.248  11.944  19.518  0.00  0.00    +0.000 A 
ATOM     24  C   UNL     1      -2.613  12.077  19.264  0.00  0.00    +0.000 A 
ATOM     25  C   UNL     1      -3.227  11.237  18.337  0.00  0.00    +0.000 A 
ATOM     26  C   UNL     1      -2.470  10.283  17.664  0.00  0.00    +0.000 A 
ATOM     27  F   UNL     1      -3.067   9.489  16.765  0.00  0.00    +0.000 F 
ATOM     28  C   UNL     1      -1.114  10.124  17.922  0.00  0.00    +0.000 A 
ENDBRANCH  20  22
ENDBRANCH   5  20
TORSDOF 5
ENDMDL
MODEL 5
REMARK VINA RESULT:      -7.8      6.540      9.052
REMARK  Name = 
REMARK  5 active torsions:
REMARK  status: ('A' for Active; 'I' for Inactive)
REMARK    1  A    between atoms: N_1  and  C_2
REMARK    2  A    between atoms: C_6  and  N_7
REMARK    3  A    between atoms: C_10  and  N_11
REMARK    4  A    between atoms: C_12  and  C_13
REMARK    5  A    between atoms: C_13  and  C_15
REMARK                            x       y       z     vdW  Elec       q    Type
REMARK                         _______ _______ _______ _____ _____    ______ ____
ROOT
ATOM      1  N   UNL     1       3.146   6.121  17.882  0.00  0.00    +0.000 N 
ATOM      2  C   UNL     1       2.533   7.119  18.565  0.00  0.00    +0.000 A 
ATOM      3  N   UNL     1       2.089   7.065  19.800  0.00  0.00    +0.000 NA
ATOM      4  C   UNL     1       1.460   8.218  20.143  0.00  0.00    +0.000 A 
ATOM      5  C   UNL     1       1.449   9.218  19.196  0.00  0.00    +0.000 A 
ATOM      6  S   UNL     1       2.239   8.631  17.782  0.00  0.00    +0.000 S 
ATOM      7  H   UNL     1       3.366   6.312  16.913  0.00  0.00    +0.000 HD
ENDROOT
BRANCH   1  12
ATOM      8  C   UNL     1       4.034   2.771  19.350  0.00  0.00    +0.000 A 
ATOM      9  C   UNL     1       2.956   2.021  18.891  0.00  0.00    +0.000 A 
ATOM     10  C   UNL     1       1.960   2.614  18.120  0.00  0.00    +0.000 A 
ATOM     11  C   UNL     1       2.045   3.967  17.786  0.00  0.00    +0.000 A 
ATOM     12  C   UNL     1       3.130   4.748  18.209  0.00  0.00    +0.000 A 
ATOM     13  C   UNL     1       4.137   4.110  18.950  0.00  0.00    +0.000 A 
BRANCH   8  14
ATOM     14  N   UNL     1       5.102   2.152  20.015  0.00  0.00    +0.000 N 
ATOM     15  H   UNL     1       4.952   2.041  21.012  0.00  0.00    +0.000 HD
ATOM     16  H   UNL     1       6.001   2.574  19.805  0.00  0.00    +0.000 HD
ENDBRANCH   8  14
ENDBRANCH   1  12
BRANCH   4  17
ATOM     17  N   UNL     1       0.922   8.223  21.372  0.00  0.00    +0.000 N 
ATOM     18  H   UNL     1       1.373   8.821  22.058  0.00  0.00    +0.000 HD
ATOM     19  H   UNL     1       0.468   7.415  21.781  0.00  0.00    +0.000 HD
ENDBRANCH   4  17
BRANCH   5  20
ATOM     20  C   UNL     1       0.915  10.565  19.202  0.00  0.00    +0.000 C 
ATOM     21  O   UNL     1       1.586  11.568  19.443  0.00  0.00    +0.000 OA
BRANCH  20  22
ATOM     22  C   UNL     1      -0.522  10.781  18.874  0.00  0.00    +0.000 A 
ATOM     23  C   UNL     1      -1.149  10.082  17.831  0.00  0.00    +0.000 A 
ATOM     24  C   UNL     1      -2.464  10.381  17.476  0.00  0.00    +0.000 A 
ATOM     25  C   UNL     1      -3.172  11.340  18.195  0.00  0.00    +0.000 A 
ATOM     26  C   UNL     1      -2.565  11.983  19.270  0.00  0.00    +0.000 A 
ATOM     27  F   UNL     1      -3.258  12.895  19.964  0.00  0.00    +0.000 F 
ATOM     28  C   UNL     1      -1.249  11.713  19.621  0.00  0.00    +0.000 A 
ENDBRANCH  20  22
ENDBRANCH   5  20
TORSDOF 5
ENDMDL
MODEL 6
REMARK VINA RESULT:      -7.6      5.422      6.911
REMARK  Name = 
REMARK  5 active torsions:
REMARK  status: ('A' for Active; 'I' for Inactive)
REMARK    1  A    between atoms: N_1  and  C_2
REMARK    2  A    between atoms: C_6  and  N_7
REMARK    3  A    between atoms: C_10  and  N_11
REMARK    4  A    between atoms: C_12  and  C_13
REMARK    5  A    between atoms: C_13  and  C_15
REMARK                            x       y       z     vdW  Elec       q    Type
REMARK                         _______ _______ _______ _____ _____    ______ ____
ROOT
ATOM      1  N   UNL     1       3.040   7.635  17.500  0.00  0.00    +0.000 N 
ATOM      2  C   UNL     1       3.979   6.657  17.472  0.00  0.00    +0.000 A 
ATOM      3  N   UNL     1       4.153   5.712  18.368  0.00  0.00    +0.000 NA
ATOM      4  C   UNL     1       5.233   4.948  18.068  0.00  0.00    +0.000 A 
ATOM      5  C   UNL     1       5.893   5.248  16.897  0.00  0.00    +0.000 A 
ATOM      6  S   UNL     1       5.119   6.608  16.175  0.00  0.00    +0.000 S 
ATOM      7  H   UNL     1       3.089   8.322  16.758  0.00  0.00    +0.000 HD
ENDROOT
BRANCH   1  12
ATOM      8  C   UNL     1       0.756   9.582  19.769  0.00  0.00    +0.000 A 
ATOM      9  C   UNL     1       0.765   8.748  20.883  0.00  0.00    +0.000 A 
ATOM     10  C   UNL     1       1.506   7.570  20.876  0.00  0.00    +0.000 A 
ATOM     11  C   UNL     1       2.261   7.224  19.754  0.00  0.00    +0.000 A 
ATOM     12  C   UNL     1       2.296   8.052  18.624  0.00  0.00    +0.000 A 
ATOM     13  C   UNL     1       1.571   9.252  18.679  0.00  0.00    +0.000 A 
BRANCH   8  14
ATOM     14  N   UNL     1       0.117  10.830  19.818  0.00  0.00    +0.000 N 
ATOM     15  H   UNL     1       0.577  11.545  19.264  0.00  0.00    +0.000 HD
ATOM     16  H   UNL     1      -0.077  11.141  20.764  0.00  0.00    +0.000 HD
ENDBRANCH   8  14
ENDBRANCH   1  12
BRANCH   4  17
ATOM     17  N   UNL     1       5.518   3.995  18.969  0.00  0.00    +0.000 N 
ATOM     18  H   UNL     1       4.880   3.915  19.756  0.00  0.00    +0.000 HD
ATOM     19  H   UNL     1       6.463   3.704  19.187  0.00  0.00    +0.000 HD
ENDBRANCH   4  17
BRANCH   5  20
ATOM     20  C   UNL     1       7.041   4.654  16.241  0.00  0.00    +0.000 C 
ATOM     21  O   UNL     1       8.019   4.208  16.839  0.00  0.00    +0.000 OA
BRANCH  20  22
ATOM     22  C   UNL     1       7.050   4.539  14.755  0.00  0.00    +0.000 A 
ATOM     23  C   UNL     1       7.910   5.318  13.965  0.00  0.00    +0.000 A 
ATOM     24  C   UNL     1       7.824   5.268  12.574  0.00  0.00    +0.000 A 
ATOM     25  C   UNL     1       6.914   4.404  11.970  0.00  0.00    +0.000 A 
ATOM     26  C   UNL     1       6.109   3.588  12.759  0.00  0.00    +0.000 A 
ATOM     27  F   UNL     1       5.247   2.750  12.168  0.00  0.00    +0.000 F 
ATOM     28  C   UNL     1       6.168   3.642  14.146  0.00  0.00    +0.000 A 
ENDBRANCH  20  22
ENDBRANCH   5  20
TORSDOF 5
ENDMDL
MODEL 7
REMARK VINA RESULT:      -7.6      5.513      7.428
REMARK  Name = 
REMARK  5 active torsions:
REMARK  status: ('A' for Active; 'I' for Inactive)
REMARK    1  A    between atoms: N_1  and  C_2
REMARK    2  A    between atoms: C_6  and  N_7
REMARK    3  A    between atoms: C_10  and  N_11
REMARK    4  A    between atoms: C_12  and  C_13
REMARK    5  A    between atoms: C_13  and  C_15
REMARK                            x       y       z     vdW  Elec       q    Type
REMARK                         _______ _______ _______ _____ _____    ______ ____
ROOT
ATOM      1  N   UNL     1       1.734   8.334  19.604  0.00  0.00    +0.000 N 
ATOM      2  C   UNL     1       2.162   7.053  19.721  0.00  0.00    +0.000 A 
ATOM      3  N   UNL     1       1.736   6.161  20.586  0.00  0.00    +0.000 NA
ATOM      4  C   UNL     1       2.434   5.002  20.477  0.00  0.00    +0.000 A 
ATOM      5  C   UNL     1       3.387   4.950  19.484  0.00  0.00    +0.000 A 
ATOM      6  S   UNL     1       3.420   6.477  18.686  0.00  0.00    +0.000 S 
ATOM      7  H   UNL     1       2.218   8.906  18.924  0.00  0.00    +0.000 HD
ENDROOT
BRANCH   1  12
ATOM      8  C   UNL     1      -0.652  10.744  21.235  0.00  0.00    +0.000 A 
ATOM      9  C   UNL     1      -0.438  10.417  22.571  0.00  0.00    +0.000 A 
ATOM     10  C   UNL     1       0.470   9.421  22.918  0.00  0.00    +0.000 A 
ATOM     11  C   UNL     1       1.188   8.751  21.925  0.00  0.00    +0.000 A 
ATOM     12  C   UNL     1       1.017   9.071  20.571  0.00  0.00    +0.000 A 
ATOM     13  C   UNL     1       0.125  10.109  20.259  0.00  0.00    +0.000 A 
BRANCH   8  14
ATOM     14  N   UNL     1      -1.466  11.832  20.890  0.00  0.00    +0.000 N 
ATOM     15  H   UNL     1      -1.236  12.244  19.991  0.00  0.00    +0.000 HD
ATOM     16  H   UNL     1      -1.536  12.527  21.626  0.00  0.00    +0.000 HD
ENDBRANCH   8  14
ENDBRANCH   1  12
BRANCH   4  17
ATOM     17  N   UNL     1       2.101   4.057  21.368  0.00  0.00    +0.000 N 
ATOM     18  H   UNL     1       2.811   3.359  21.571  0.00  0.00    +0.000 HD
ATOM     19  H   UNL     1       1.156   3.713  21.483  0.00  0.00    +0.000 HD
ENDBRANCH   4  17
BRANCH   5  20
ATOM     20  C   UNL     1       4.290   3.903  19.048  0.00  0.00    +0.000 C 
ATOM     21  O   UNL     1       4.334   2.782  19.552  0.00  0.00    +0.000 OA
BRANCH  20  22
ATOM     22  C   UNL     1       5.211   4.165  17.907  0.00  0.00    +0.000 A 
ATOM     23  C   UNL     1       6.528   4.604  18.113  0.00  0.00    +0.000 A 
ATOM     24  C   UNL     1       7.333   4.944  17.026  0.00  0.00    +0.000 A 
ATOM     25  C   UNL     1       6.842   4.797  15.731  0.00  0.00    +0.000 A 
ATOM     26  C   UNL     1       5.558   4.300  15.532  0.00  0.00    +0.000 A 
ATOM     27  F   UNL     1       5.099   4.150  14.283  0.00  0.00    +0.000 F 
ATOM     28  C   UNL     1       4.736   3.978  16.605  0.00  0.00    +0.000 A 
ENDBRANCH  20  22
ENDBRANCH   5  20
TORSDOF 5
ENDMDL
MODEL 8
REMARK VINA RESULT:      -7.6      6.643      9.181
REMARK  Name = 
REMARK  5 active torsions:
REMARK  status: ('A' for Active; 'I' for Inactive)
REMARK    1  A    between atoms: N_1  and  C_2
REMARK    2  A    between atoms: C_6  and  N_7
REMARK    3  A    between atoms: C_10  and  N_11
REMARK    4  A    between atoms: C_12  and  C_13
REMARK    5  A    between atoms: C_13  and  C_15
REMARK                            x       y       z     vdW  Elec       q    Type
REMARK                         _______ _______ _______ _____ _____    ______ ____
ROOT
ATOM      1  N   UNL     1       2.892   6.257  18.858  0.00  0.00    +0.000 N 
ATOM      2  C   UNL     1       2.249   7.392  19.229  0.00  0.00    +0.000 A 
ATOM      3  N   UNL     1       1.764   7.664  20.419  0.00  0.00    +0.000 NA
ATOM      4  C   UNL     1       1.115   8.857  20.420  0.00  0.00    +0.000 A 
ATOM      5  C   UNL     1       1.129   9.566  19.240  0.00  0.00    +0.000 A 
ATOM      6  S   UNL     1       1.972   8.635  18.061  0.00  0.00    +0.000 S 
ATOM      7  H   UNL     1       3.143   6.186  17.880  0.00  0.00    +0.000 HD
ENDROOT
BRANCH   1  12
ATOM      8  C   UNL     1       3.900   2.901  20.228  0.00  0.00    +0.000 A 
ATOM      9  C   UNL     1       2.787   2.627  21.019  0.00  0.00    +0.000 A 
ATOM     10  C   UNL     1       1.736   3.535  21.097  0.00  0.00    +0.000 A 
ATOM     11  C   UNL     1       1.782   4.724  20.367  0.00  0.00    +0.000 A 
ATOM     12  C   UNL     1       2.874   5.022  19.540  0.00  0.00    +0.000 A 
ATOM     13  C   UNL     1       3.898   4.067  19.452  0.00  0.00    +0.000 A 
BRANCH   8  14
ATOM     14  N   UNL     1       4.899   1.935  20.045  0.00  0.00    +0.000 N 
ATOM     15  H   UNL     1       5.772   2.157  20.513  0.00  0.00    +0.000 HD
ATOM     16  H   UNL     1       5.037   1.683  19.072  0.00  0.00    +0.000 HD
ENDBRANCH   8  14
ENDBRANCH   1  12
BRANCH   4  17
ATOM     17  N   UNL     1       0.536   9.182  21.585  0.00  0.00    +0.000 N 
ATOM     18  H   UNL     1      -0.190   8.553  21.918  0.00  0.00    +0.000 HD
ATOM     19  H   UNL     1       0.409  10.138  21.893  0.00  0.00    +0.000 HD
ENDBRANCH   4  17
BRANCH   5  20
ATOM     20  C   UNL     1       0.587  10.858  18.868  0.00  0.00    +0.000 C 
ATOM     21  O   UNL     1       1.256  11.887  18.791  0.00  0.00    +0.000 OA
BRANCH  20  22
ATOM     22  C   UNL     1      -0.859  10.969  18.527  0.00  0.00    +0.000 A 
ATOM     23  C   UNL     1      -1.702  11.875  19.190  0.00  0.00    +0.000 A 
ATOM     24  C   UNL     1      -3.071  11.883  18.926  0.00  0.00    +0.000 A 
ATOM     25  C   UNL     1      -3.594  11.022  17.964  0.00  0.00    +0.000 A 
ATOM     26  C   UNL     1      -2.743  10.171  17.265  0.00  0.00    +0.000 A 
ATOM     27  F   UNL     1      -3.253   9.356  16.333  0.00  0.00    +0.000 F 
ATOM     28  C   UNL     1      -1.380  10.136  17.532  0.00  0.00    +0.000 A 
ENDBRANCH  20  22
ENDBRANCH   5  20
TORSDOF 5
ENDMDL
MODEL 9
REMARK VINA RESULT:      -7.6      5.775      8.105
REMARK  Name = 
REMARK  5 active torsions:
REMARK  status: ('A' for Active; 'I' for Inactive)
REMARK    1  A    between atoms: N_1  and  C_2
REMARK    2  A    between atoms: C_6  and  N_7
REMARK    3  A    between atoms: C_10  and  N_11
REMARK    4  A    between atoms: C_12  and  C_13
REMARK    5  A    between atoms: C_13  and  C_15
REMARK                            x       y       z     vdW  Elec       q    Type
REMARK                         _______ _______ _______ _____ _____    ______ ____
ROOT
ATOM      1  N   UNL     1       4.400   3.425  18.354  0.00  0.00    +0.000 N 
ATOM      2  C   UNL     1       4.898   4.135  17.311  0.00  0.00    +0.000 A 
ATOM      3  N   UNL     1       4.697   5.409  17.065  0.00  0.00    +0.000 NA
ATOM      4  C   UNL     1       5.280   5.778  15.896  0.00  0.00    +0.000 A 
ATOM      5  C   UNL     1       5.998   4.807  15.233  0.00  0.00    +0.000 A 
ATOM      6  S   UNL     1       5.874   3.340  16.128  0.00  0.00    +0.000 S 
ATOM      7  H   UNL     1       4.603   2.433  18.356  0.00  0.00    +0.000 HD
ENDROOT
BRANCH   1  12
ATOM      8  C   UNL     1       1.971   5.446  20.396  0.00  0.00    +0.000 A 
ATOM      9  C   UNL     1       1.063   4.448  20.737  0.00  0.00    +0.000 A 
ATOM     10  C   UNL     1       1.252   3.142  20.295  0.00  0.00    +0.000 A 
ATOM     11  C   UNL     1       2.367   2.819  19.519  0.00  0.00    +0.000 A 
ATOM     12  C   UNL     1       3.315   3.793  19.178  0.00  0.00    +0.000 A 
ATOM     13  C   UNL     1       3.116   5.091  19.673  0.00  0.00    +0.000 A 
BRANCH   8  14
ATOM     14  N   UNL     1       1.855   6.732  20.944  0.00  0.00    +0.000 N 
ATOM     15  H   UNL     1       2.717   7.266  20.918  0.00  0.00    +0.000 HD
ATOM     16  H   UNL     1       1.428   6.735  21.865  0.00  0.00    +0.000 HD
ENDBRANCH   8  14
ENDBRANCH   1  12
BRANCH   4  17
ATOM     17  N   UNL     1       5.070   7.054  15.539  0.00  0.00    +0.000 N 
ATOM     18  H   UNL     1       4.255   7.230  14.958  0.00  0.00    +0.000 HD
ATOM     19  H   UNL     1       5.820   7.718  15.390  0.00  0.00    +0.000 HD
ENDBRANCH   4  17
BRANCH   5  20
ATOM     20  C   UNL     1       6.766   4.826  14.005  0.00  0.00    +0.000 C 
ATOM     21  O   UNL     1       7.756   5.534  13.825  0.00  0.00    +0.000 OA
BRANCH  20  22
ATOM     22  C   UNL     1       6.373   3.923  12.887  0.00  0.00    +0.000 A 
ATOM     23  C   UNL     1       5.027   3.725  12.542  0.00  0.00    +0.000 A 
ATOM     24  C   UNL     1       4.682   2.793  11.564  0.00  0.00    +0.000 A 
ATOM     25  C   UNL     1       5.682   2.095  10.892  0.00  0.00    +0.000 A 
ATOM     26  C   UNL     1       7.018   2.343  11.194  0.00  0.00    +0.000 A 
ATOM     27  F   UNL     1       7.974   1.677  10.533  0.00  0.00    +0.000 F 
ATOM     28  C   UNL     1       7.377   3.252  12.181  0.00  0.00    +0.000 A 
ENDBRANCH  20  22
ENDBRANCH   5  20
TORSDOF 5
ENDMDL
