MODEL 1
REMARK VINA RESULT:      -8.7      0.000      0.000
REMARK  Name = 
REMARK  9 active torsions:
REMARK  status: ('A' for Active; 'I' for Inactive)
REMARK    1  A    between atoms: C_1  and  C_2
REMARK    2  A    between atoms: C_2  and  C_3
REMARK    3  A    between atoms: C_8  and  N_9
REMARK    4  A    between atoms: C_11  and  C_12
REMARK    5  A    between atoms: N_20  and  C_21
REMARK    6  A    between atoms: C_21  and  C_22
REMARK    7  A    between atoms: C_22  and  C_23
REMARK    8  A    between atoms: C_23  and  O_24
REMARK    9  A    between atoms: O_24  and  C_25
REMARK                            x       y       z     vdW  Elec       q    Type
REMARK                         _______ _______ _______ _____ _____    ______ ____
ROOT
ATOM      1  C   UNL     1       5.164   4.657  17.257  0.00  0.00    +0.000 A 
ATOM      2  N   UNL     1       4.763   3.834  16.311  0.00  0.00    +0.000 NA
ATOM      3  C   UNL     1       5.533   4.098  15.220  0.00  0.00    +0.000 A 
ATOM      4  C   UNL     1       5.516   3.474  13.966  0.00  0.00    +0.000 A 
ATOM      5  C   UNL     1       6.444   3.875  13.005  0.00  0.00    +0.000 A 
ATOM      6  C   UNL     1       7.363   4.887  13.288  0.00  0.00    +0.000 A 
ATOM      7  C   UNL     1       7.362   5.555  14.524  0.00  0.00    +0.000 A 
ATOM      8  C   UNL     1       6.425   5.137  15.478  0.00  0.00    +0.000 A 
ATOM      9  N   UNL     1       6.086   5.569  16.752  0.00  0.00    +0.000 N 
ENDROOT
BRANCH   1  12
ATOM     10  N   UNL     1       2.960   6.222  18.914  0.00  0.00    +0.000 N 
ATOM     11  C   UNL     1       4.342   5.964  19.271  0.00  0.00    +0.000 C 
ATOM     12  C   UNL     1       4.681   4.584  18.681  0.00  0.00    +0.000 C 
ATOM     13  C   UNL     1       3.326   3.902  18.768  0.00  0.00    +0.000 C 
ATOM     14  C   UNL     1       2.349   5.025  18.518  0.00  0.00    +0.000 C 
ATOM     15  O   UNL     1       1.210   4.816  18.128  0.00  0.00    +0.000 OA
BRANCH  10  21
ATOM     16  C   UNL     1       1.635   8.103  19.942  0.00  0.00    +0.000 A 
ATOM     17  C   UNL     1       1.157   9.433  19.827  0.00  0.00    +0.000 A 
ATOM     18  C   UNL     1       1.314  10.165  18.657  0.00  0.00    +0.000 A 
ATOM     19  C   UNL     1       1.946   9.577  17.575  0.00  0.00    +0.000 A 
ATOM     20  C   UNL     1       2.471   8.284  17.688  0.00  0.00    +0.000 A 
ATOM     21  C   UNL     1       2.361   7.524  18.870  0.00  0.00    +0.000 A 
BRANCH  16  23
ATOM     22  C   UNL     1      -0.112   8.068  21.710  0.00  0.00    +0.000 C 
ATOM     23  C   UNL     1       1.101   7.342  21.135  0.00  0.00    +0.000 C 
ENDBRANCH  16  23
ENDBRANCH  10  21
ENDBRANCH   1  12
BRANCH   9  24
ATOM     24  C   UNL     1       6.342   6.906  17.267  0.00  0.00    +0.000 C 
BRANCH  24  25
ATOM     25  C   UNL     1       7.775   7.310  17.630  0.00  0.00    +0.000 C 
BRANCH  25  26
ATOM     26  C   UNL     1       7.989   8.814  17.780  0.00  0.00    +0.000 C 
BRANCH  26  27
ATOM     27  O   UNL     1       8.775   9.042  18.960  0.00  0.00    +0.000 OA
BRANCH  27  28
ATOM     28  C   UNL     1       9.314  10.297  19.082  0.00  0.00    +0.000 A 
ATOM     29  C   UNL     1       9.464  10.778  20.388  0.00  0.00    +0.000 A 
ATOM     30  C   UNL     1      10.005  12.049  20.618  0.00  0.00    +0.000 A 
ATOM     31  C   UNL     1      10.411  12.834  19.542  0.00  0.00    +0.000 A 
ATOM     32 CL   UNL     1      11.074  14.396  19.820  0.00  0.00    +0.000 Cl
ATOM     33  C   UNL     1      10.289  12.353  18.240  0.00  0.00    +0.000 A 
ATOM     34  C   UNL     1       9.745  11.087  18.013  0.00  0.00    +0.000 A 
ENDBRANCH  27  28
ENDBRANCH  26  27
ENDBRANCH  25  26
ENDBRANCH  24  25
ENDBRANCH   9  24
TORSDOF 8
ENDMDL
MODEL 2
REMARK VINA RESULT:      -8.7      6.187      9.760
REMARK  Name = 
REMARK  9 active torsions:
REMARK  status: ('A' for Active; 'I' for Inactive)
REMARK    1  A    between atoms: C_1  and  C_2
REMARK    2  A    between atoms: C_2  and  C_3
REMARK    3  A    between atoms: C_8  and  N_9
REMARK    4  A    between atoms: C_11  and  C_12
REMARK    5  A    between atoms: N_20  and  C_21
REMARK    6  A    between atoms: C_21  and  C_22
REMARK    7  A    between atoms: C_22  and  C_23
REMARK    8  A    between atoms: C_23  and  O_24
REMARK    9  A    between atoms: O_24  and  C_25
REMARK                            x       y       z     vdW  Elec       q    Type
REMARK                         _______ _______ _______ _____ _____    ______ ____
ROOT
ATOM      1  C   UNL     1      -0.495  11.559  19.705  0.00  0.00    +0.000 A 
ATOM      2  N   UNL     1      -1.704  12.072  19.616  0.00  0.00    +0.000 NA
ATOM      3  C   UNL     1      -2.303  11.462  18.557  0.00  0.00    +0.000 A 
ATOM      4  C   UNL     1      -3.603  11.639  18.067  0.00  0.00    +0.000 A 
ATOM      5  C   UNL     1      -4.028  10.858  16.992  0.00  0.00    +0.000 A 
ATOM      6  C   UNL     1      -3.165   9.926  16.413  0.00  0.00    +0.000 A 
ATOM      7  C   UNL     1      -1.844   9.769  16.862  0.00  0.00    +0.000 A 
ATOM      8  C   UNL     1      -1.436  10.560  17.944  0.00  0.00    +0.000 A 
ATOM      9  N   UNL     1      -0.236  10.730  18.618  0.00  0.00    +0.000 N 
ENDROOT
BRANCH   1  12
ATOM     10  N   UNL     1      -0.887  12.654  22.654  0.00  0.00    +0.000 N 
ATOM     11  C   UNL     1       0.056  13.099  21.646  0.00  0.00    +0.000 C 
ATOM     12  C   UNL     1       0.445  11.843  20.846  0.00  0.00    +0.000 C 
ATOM     13  C   UNL     1       0.336  10.780  21.926  0.00  0.00    +0.000 C 
ATOM     14  C   UNL     1      -0.812  11.260  22.780  0.00  0.00    +0.000 C 
ATOM     15  O   UNL     1      -1.445  10.502  23.499  0.00  0.00    +0.000 OA
BRANCH  10  21
ATOM     16  C   UNL     1      -3.229  13.413  23.190  0.00  0.00    +0.000 A 
ATOM     17  C   UNL     1      -4.068  14.251  23.967  0.00  0.00    +0.000 A 
ATOM     18  C   UNL     1      -3.546  15.224  24.810  0.00  0.00    +0.000 A 
ATOM     19  C   UNL     1      -2.173  15.381  24.886  0.00  0.00    +0.000 A 
ATOM     20  C   UNL     1      -1.329  14.528  24.166  0.00  0.00    +0.000 A 
ATOM     21  C   UNL     1      -1.821  13.508  23.327  0.00  0.00    +0.000 A 
BRANCH  16  23
ATOM     22  C   UNL     1      -5.415  13.044  22.064  0.00  0.00    +0.000 C 
ATOM     23  C   UNL     1      -3.941  12.651  22.094  0.00  0.00    +0.000 C 
ENDBRANCH  16  23
ENDBRANCH  10  21
ENDBRANCH   1  12
BRANCH   9  24
ATOM     24  C   UNL     1       1.075  10.427  18.062  0.00  0.00    +0.000 C 
BRANCH  24  25
ATOM     25  C   UNL     1       1.612   8.995  18.141  0.00  0.00    +0.000 C 
BRANCH  25  26
ATOM     26  C   UNL     1       1.651   8.411  19.552  0.00  0.00    +0.000 C 
BRANCH  26  27
ATOM     27  O   UNL     1       2.666   7.396  19.591  0.00  0.00    +0.000 OA
BRANCH  27  28
ATOM     28  C   UNL     1       2.237   6.117  19.343  0.00  0.00    +0.000 A 
ATOM     29  C   UNL     1       1.649   5.445  20.422  0.00  0.00    +0.000 A 
ATOM     30  C   UNL     1       1.178   4.134  20.270  0.00  0.00    +0.000 A 
ATOM     31  C   UNL     1       1.281   3.501  19.035  0.00  0.00    +0.000 A 
ATOM     32 CL   UNL     1       0.707   1.891  18.844  0.00  0.00    +0.000 Cl
ATOM     33  C   UNL     1       1.841   4.171  17.949  0.00  0.00    +0.000 A 
ATOM     34  C   UNL     1       2.314   5.476  18.104  0.00  0.00    +0.000 A 
ENDBRANCH  27  28
ENDBRANCH  26  27
ENDBRANCH  25  26
ENDBRANCH  24  25
ENDBRANCH   9  24
TORSDOF 8
ENDMDL
MODEL 3
REMARK VINA RESULT:      -8.5      4.041      7.944
REMARK  Name = 
REMARK  9 active torsions:
REMARK  status: ('A' for Active; 'I' for Inactive)
REMARK    1  A    between atoms: C_1  and  C_2
REMARK    2  A    between atoms: C_2  and  C_3
REMARK    3  A    between atoms: C_8  and  N_9
REMARK    4  A    between atoms: C_11  and  C_12
REMARK    5  A    between atoms: N_20  and  C_21
REMARK    6  A    between atoms: C_21  and  C_22
REMARK    7  A    between atoms: C_22  and  C_23
REMARK    8  A    between atoms: C_23  and  O_24
REMARK    9  A    between atoms: O_24  and  C_25
REMARK                            x       y       z     vdW  Elec       q    Type
REMARK                         _______ _______ _______ _____ _____    ______ ____
ROOT
ATOM      1  C   UNL     1       4.994   4.584  18.189  0.00  0.00    +0.000 A 
ATOM      2  N   UNL     1       4.871   3.293  18.414  0.00  0.00    +0.000 NA
ATOM      3  C   UNL     1       3.551   3.071  18.661  0.00  0.00    +0.000 A 
ATOM      4  C   UNL     1       2.905   1.858  18.931  0.00  0.00    +0.000 A 
ATOM      5  C   UNL     1       1.520   1.858  19.099  0.00  0.00    +0.000 A 
ATOM      6  C   UNL     1       0.798   3.049  19.010  0.00  0.00    +0.000 A 
ATOM      7  C   UNL     1       1.436   4.280  18.788  0.00  0.00    +0.000 A 
ATOM      8  C   UNL     1       2.827   4.260  18.618  0.00  0.00    +0.000 A 
ATOM      9  N   UNL     1       3.792   5.240  18.439  0.00  0.00    +0.000 N 
ENDROOT
BRANCH   1  12
ATOM     10  N   UNL     1       6.263   5.095  15.329  0.00  0.00    +0.000 N 
ATOM     11  C   UNL     1       6.886   4.507  16.499  0.00  0.00    +0.000 C 
ATOM     12  C   UNL     1       6.270   5.226  17.713  0.00  0.00    +0.000 C 
ATOM     13  C   UNL     1       6.008   6.599  17.121  0.00  0.00    +0.000 C 
ATOM     14  C   UNL     1       5.648   6.303  15.685  0.00  0.00    +0.000 C 
ATOM     15  O   UNL     1       5.007   7.087  15.003  0.00  0.00    +0.000 OA
BRANCH  10  21
ATOM     16  C   UNL     1       7.221   4.559  13.060  0.00  0.00    +0.000 A 
ATOM     17  C   UNL     1       7.098   3.830  11.851  0.00  0.00    +0.000 A 
ATOM     18  C   UNL     1       5.962   3.084  11.562  0.00  0.00    +0.000 A 
ATOM     19  C   UNL     1       4.924   3.059  12.477  0.00  0.00    +0.000 A 
ATOM     20  C   UNL     1       5.050   3.730  13.699  0.00  0.00    +0.000 A 
ATOM     21  C   UNL     1       6.200   4.469  14.041  0.00  0.00    +0.000 A 
BRANCH  16  23
ATOM     22  C   UNL     1       8.332   6.380  11.784  0.00  0.00    +0.000 C 
ATOM     23  C   UNL     1       8.348   5.569  13.076  0.00  0.00    +0.000 C 
ENDBRANCH  16  23
ENDBRANCH  10  21
ENDBRANCH   1  12
BRANCH   9  24
ATOM     24  C   UNL     1       3.640   6.632  18.833  0.00  0.00    +0.000 C 
BRANCH  24  25
ATOM     25  C   UNL     1       2.899   7.600  17.905  0.00  0.00    +0.000 C 
BRANCH  25  26
ATOM     26  C   UNL     1       1.845   8.461  18.598  0.00  0.00    +0.000 C 
BRANCH  26  27
ATOM     27  O   UNL     1       1.883   8.173  20.004  0.00  0.00    +0.000 OA
BRANCH  27  28
ATOM     28  C   UNL     1       1.056   8.935  20.789  0.00  0.00    +0.000 A 
ATOM     29  C   UNL     1       0.659  10.165  20.251  0.00  0.00    +0.000 A 
ATOM     30  C   UNL     1      -0.186  11.016  20.976  0.00  0.00    +0.000 A 
ATOM     31  C   UNL     1      -0.647  10.630  22.231  0.00  0.00    +0.000 A 
ATOM     32 CL   UNL     1      -1.682  11.672  23.125  0.00  0.00    +0.000 Cl
ATOM     33  C   UNL     1      -0.278   9.396  22.763  0.00  0.00    +0.000 A 
ATOM     34  C   UNL     1       0.568   8.551  22.042  0.00  0.00    +0.000 A 
ENDBRANCH  27  28
ENDBRANCH  26  27
ENDBRANCH  25  26
ENDBRANCH  24  25
ENDBRANCH   9  24
TORSDOF 8
ENDMDL
MODEL 4
REMARK VINA RESULT:      -8.4      5.410      9.246
REMARK  Name = 
REMARK  9 active torsions:
REMARK  status: ('A' for Active; 'I' for Inactive)
REMARK    1  A    between atoms: C_1  and  C_2
REMARK    2  A    between atoms: C_2  and  C_3
REMARK    3  A    between atoms: C_8  and  N_9
REMARK    4  A    between atoms: C_11  and  C_12
REMARK    5  A    between atoms: N_20  and  C_21
REMARK    6  A    between atoms: C_21  and  C_22
REMARK    7  A    between atoms: C_22  and  C_23
REMARK    8  A    between atoms: C_23  and  O_24
REMARK    9  A    between atoms: O_24  and  C_25
REMARK                            x       y       z     vdW  Elec       q    Type
REMARK                         _______ _______ _______ _____ _____    ______ ____
ROOT
ATOM      1  C   UNL     1      -0.535  11.587  19.627  0.00  0.00    +0.000 A 
ATOM      2  N   UNL     1      -1.683  12.214  19.479  0.00  0.00    +0.000 NA
ATOM      3  C   UNL     1      -2.343  11.574  18.475  0.00  0.00    +0.000 A 
ATOM      4  C   UNL     1      -3.617  11.841  17.958  0.00  0.00    +0.000 A 
ATOM      5  C   UNL     1      -4.123  11.011  16.957  0.00  0.00    +0.000 A 
ATOM      6  C   UNL     1      -3.364   9.942  16.476  0.00  0.00    +0.000 A 
ATOM      7  C   UNL     1      -2.067   9.689  16.951  0.00  0.00    +0.000 A 
ATOM      8  C   UNL     1      -1.577  10.531  17.958  0.00  0.00    +0.000 A 
ATOM      9  N   UNL     1      -0.365  10.636  18.625  0.00  0.00    +0.000 N 
ENDROOT
BRANCH   1  12
ATOM     10  N   UNL     1      -0.866  12.649  22.595  0.00  0.00    +0.000 N 
ATOM     11  C   UNL     1       0.042  13.119  21.567  0.00  0.00    +0.000 C 
ATOM     12  C   UNL     1       0.430  11.876  20.746  0.00  0.00    +0.000 C 
ATOM     13  C   UNL     1       0.367  10.802  21.818  0.00  0.00    +0.000 C 
ATOM     14  C   UNL     1      -0.765  11.256  22.707  0.00  0.00    +0.000 C 
ATOM     15  O   UNL     1      -1.368  10.481  23.435  0.00  0.00    +0.000 OA
BRANCH  10  21
ATOM     16  C   UNL     1      -3.205  13.389  23.172  0.00  0.00    +0.000 A 
ATOM     17  C   UNL     1      -4.039  14.202  23.980  0.00  0.00    +0.000 A 
ATOM     18  C   UNL     1      -3.511  15.152  24.846  0.00  0.00    +0.000 A 
ATOM     19  C   UNL     1      -2.138  15.309  24.916  0.00  0.00    +0.000 A 
ATOM     20  C   UNL     1      -1.298  14.478  24.164  0.00  0.00    +0.000 A 
ATOM     21  C   UNL     1      -1.796  13.482  23.300  0.00  0.00    +0.000 A 
BRANCH  16  23
ATOM     22  C   UNL     1      -4.586  13.663  21.123  0.00  0.00    +0.000 C 
ATOM     23  C   UNL     1      -3.925  12.657  22.060  0.00  0.00    +0.000 C 
ENDBRANCH  16  23
ENDBRANCH  10  21
ENDBRANCH   1  12
BRANCH   9  24
ATOM     24  C   UNL     1       0.905  10.145  18.113  0.00  0.00    +0.000 C 
BRANCH  24  25
ATOM     25  C   UNL     1       1.545   8.907  18.751  0.00  0.00    +0.000 C 
BRANCH  25  26
ATOM     26  C   UNL     1       2.743   8.349  17.985  0.00  0.00    +0.000 C 
BRANCH  26  27
ATOM     27  O   UNL     1       2.886   6.961  18.323  0.00  0.00    +0.000 OA
BRANCH  27  28
ATOM     28  C   UNL     1       3.713   6.233  17.506  0.00  0.00    +0.000 A 
ATOM     29  C   UNL     1       3.557   4.843  17.554  0.00  0.00    +0.000 A 
ATOM     30  C   UNL     1       4.355   4.012  16.757  0.00  0.00    +0.000 A 
ATOM     31  C   UNL     1       5.298   4.572  15.900  0.00  0.00    +0.000 A 
ATOM     32 CL   UNL     1       6.282   3.555  14.922  0.00  0.00    +0.000 Cl
ATOM     33  C   UNL     1       5.443   5.956  15.827  0.00  0.00    +0.000 A 
ATOM     34  C   UNL     1       4.650   6.782  16.626  0.00  0.00    +0.000 A 
ENDBRANCH  27  28
ENDBRANCH  26  27
ENDBRANCH  25  26
ENDBRANCH  24  25
ENDBRANCH   9  24
TORSDOF 8
ENDMDL
MODEL 5
REMARK VINA RESULT:      -8.3      0.967      1.120
REMARK  Name = 
REMARK  9 active torsions:
REMARK  status: ('A' for Active; 'I' for Inactive)
REMARK    1  A    between atoms: C_1  and  C_2
REMARK    2  A    between atoms: C_2  and  C_3
REMARK    3  A    between atoms: C_8  and  N_9
REMARK    4  A    between atoms: C_11  and  C_12
REMARK    5  A    between atoms: N_20  and  C_21
REMARK    6  A    between atoms: C_21  and  C_22
REMARK    7  A    between atoms: C_22  and  C_23
REMARK    8  A    between atoms: C_23  and  O_24
REMARK    9  A    between atoms: O_24  and  C_25
REMARK                            x       y       z     vdW  Elec       q    Type
REMARK                         _______ _______ _______ _____ _____    ______ ____
ROOT
ATOM      1  C   UNL     1       5.845   4.296  16.727  0.00  0.00    +0.000 A 
ATOM      2  N   UNL     1       5.202   3.912  15.645  0.00  0.00    +0.000 NA
ATOM      3  C   UNL     1       5.988   4.258  14.588  0.00  0.00    +0.000 A 
ATOM      4  C   UNL     1       5.761   4.042  13.223  0.00  0.00    +0.000 A 
ATOM      5  C   UNL     1       6.740   4.435  12.310  0.00  0.00    +0.000 A 
ATOM      6  C   UNL     1       7.917   5.042  12.754  0.00  0.00    +0.000 A 
ATOM      7  C   UNL     1       8.138   5.308  14.115  0.00  0.00    +0.000 A 
ATOM      8  C   UNL     1       7.145   4.904  15.017  0.00  0.00    +0.000 A 
ATOM      9  N   UNL     1       6.976   5.033  16.388  0.00  0.00    +0.000 N 
ENDROOT
BRANCH   1  12
ATOM     10  N   UNL     1       3.527   5.355  18.613  0.00  0.00    +0.000 N 
ATOM     11  C   UNL     1       4.934   5.185  18.923  0.00  0.00    +0.000 C 
ATOM     12  C   UNL     1       5.397   3.954  18.124  0.00  0.00    +0.000 C 
ATOM     13  C   UNL     1       4.119   3.134  18.107  0.00  0.00    +0.000 C 
ATOM     14  C   UNL     1       3.031   4.178  18.037  0.00  0.00    +0.000 C 
ATOM     15  O   UNL     1       1.911   3.919  17.622  0.00  0.00    +0.000 OA
BRANCH  10  21
ATOM     16  C   UNL     1       2.108   6.947  19.956  0.00  0.00    +0.000 A 
ATOM     17  C   UNL     1       1.494   8.222  20.043  0.00  0.00    +0.000 A 
ATOM     18  C   UNL     1       1.487   9.101  18.968  0.00  0.00    +0.000 A 
ATOM     19  C   UNL     1       2.088   8.718  17.781  0.00  0.00    +0.000 A 
ATOM     20  C   UNL     1       2.744   7.485  17.695  0.00  0.00    +0.000 A 
ATOM     21  C   UNL     1       2.802   6.581  18.775  0.00  0.00    +0.000 A 
BRANCH  16  23
ATOM     22  C   UNL     1       0.846   4.885  20.539  0.00  0.00    +0.000 C 
ATOM     23  C   UNL     1       1.746   5.995  21.075  0.00  0.00    +0.000 C 
ENDBRANCH  16  23
ENDBRANCH  10  21
ENDBRANCH   1  12
BRANCH   9  24
ATOM     24  C   UNL     1       7.616   6.050  17.208  0.00  0.00    +0.000 C 
BRANCH  24  25
ATOM     25  C   UNL     1       6.956   7.425  17.352  0.00  0.00    +0.000 C 
BRANCH  25  26
ATOM     26  C   UNL     1       7.931   8.600  17.334  0.00  0.00    +0.000 C 
BRANCH  26  27
ATOM     27  O   UNL     1       8.357   8.853  18.681  0.00  0.00    +0.000 OA
BRANCH  27  28
ATOM     28  C   UNL     1       9.070  10.009  18.872  0.00  0.00    +0.000 A 
ATOM     29  C   UNL     1       9.308  10.373  20.203  0.00  0.00    +0.000 A 
ATOM     30  C   UNL     1      10.027  11.538  20.502  0.00  0.00    +0.000 A 
ATOM     31  C   UNL     1      10.521  12.330  19.470  0.00  0.00    +0.000 A 
ATOM     32 CL   UNL     1      11.403  13.762  19.832  0.00  0.00    +0.000 Cl
ATOM     33  C   UNL     1      10.311  11.962  18.143  0.00  0.00    +0.000 A 
ATOM     34  C   UNL     1       9.591  10.803  17.846  0.00  0.00    +0.000 A 
ENDBRANCH  27  28
ENDBRANCH  26  27
ENDBRANCH  25  26
ENDBRANCH  24  25
ENDBRANCH   9  24
TORSDOF 8
ENDMDL
MODEL 6
REMARK VINA RESULT:      -8.2      1.141      1.542
REMARK  Name = 
REMARK  9 active torsions:
REMARK  status: ('A' for Active; 'I' for Inactive)
REMARK    1  A    between atoms: C_1  and  C_2
REMARK    2  A    between atoms: C_2  and  C_3
REMARK    3  A    between atoms: C_8  and  N_9
REMARK    4  A    between atoms: C_11  and  C_12
REMARK    5  A    between atoms: N_20  and  C_21
REMARK    6  A    between atoms: C_21  and  C_22
REMARK    7  A    between atoms: C_22  and  C_23
REMARK    8  A    between atoms: C_23  and  O_24
REMARK    9  A    between atoms: O_24  and  C_25
REMARK                            x       y       z     vdW  Elec       q    Type
REMARK                         _______ _______ _______ _____ _____    ______ ____
ROOT
ATOM      1  C   UNL     1       5.476   3.940  16.428  0.00  0.00    +0.000 A 
ATOM      2  N   UNL     1       5.304   3.256  15.317  0.00  0.00    +0.000 NA
ATOM      3  C   UNL     1       6.070   3.863  14.369  0.00  0.00    +0.000 A 
ATOM      4  C   UNL     1       6.253   3.500  13.029  0.00  0.00    +0.000 A 
ATOM      5  C   UNL     1       7.138   4.243  12.247  0.00  0.00    +0.000 A 
ATOM      6  C   UNL     1       7.819   5.332  12.793  0.00  0.00    +0.000 A 
ATOM      7  C   UNL     1       7.612   5.737  14.122  0.00  0.00    +0.000 A 
ATOM      8  C   UNL     1       6.721   4.978  14.892  0.00  0.00    +0.000 A 
ATOM      9  N   UNL     1       6.227   5.086  16.184  0.00  0.00    +0.000 N 
ENDROOT
BRANCH   1  12
ATOM     10  N   UNL     1       3.222   5.061  18.354  0.00  0.00    +0.000 N 
ATOM     11  C   UNL     1       4.584   4.689  18.683  0.00  0.00    +0.000 C 
ATOM     12  C   UNL     1       4.933   3.505  17.763  0.00  0.00    +0.000 C 
ATOM     13  C   UNL     1       3.569   2.854  17.617  0.00  0.00    +0.000 C 
ATOM     14  C   UNL     1       2.615   4.023  17.635  0.00  0.00    +0.000 C 
ATOM     15  O   UNL     1       1.491   3.948  17.161  0.00  0.00    +0.000 OA
BRANCH  10  21
ATOM     16  C   UNL     1       2.133   6.728  19.900  0.00  0.00    +0.000 A 
ATOM     17  C   UNL     1       1.656   8.049  20.092  0.00  0.00    +0.000 A 
ATOM     18  C   UNL     1       1.598   8.961  19.045  0.00  0.00    +0.000 A 
ATOM     19  C   UNL     1       2.010   8.566  17.785  0.00  0.00    +0.000 A 
ATOM     20  C   UNL     1       2.533   7.282  17.589  0.00  0.00    +0.000 A 
ATOM     21  C   UNL     1       2.639   6.341  18.633  0.00  0.00    +0.000 A 
BRANCH  16  23
ATOM     22  C   UNL     1       0.978   4.614  20.518  0.00  0.00    +0.000 C 
ATOM     23  C   UNL     1       1.824   5.775  21.034  0.00  0.00    +0.000 C 
ENDBRANCH  16  23
ENDBRANCH  10  21
ENDBRANCH   1  12
BRANCH   9  24
ATOM     24  C   UNL     1       6.181   6.322  16.951  0.00  0.00    +0.000 C 
BRANCH  24  25
ATOM     25  C   UNL     1       7.347   6.672  17.882  0.00  0.00    +0.000 C 
BRANCH  25  26
ATOM     26  C   UNL     1       8.235   7.810  17.383  0.00  0.00    +0.000 C 
BRANCH  26  27
ATOM     27  O   UNL     1       7.579   9.054  17.673  0.00  0.00    +0.000 OA
BRANCH  27  28
ATOM     28  C   UNL     1       8.375  10.033  18.211  0.00  0.00    +0.000 A 
ATOM     29  C   UNL     1       8.230  11.313  17.662  0.00  0.00    +0.000 A 
ATOM     30  C   UNL     1       8.998  12.382  18.144  0.00  0.00    +0.000 A 
ATOM     31  C   UNL     1       9.898  12.174  19.185  0.00  0.00    +0.000 A 
ATOM     32 CL   UNL     1      10.844  13.482  19.778  0.00  0.00    +0.000 Cl
ATOM     33  C   UNL     1      10.029  10.909  19.755  0.00  0.00    +0.000 A 
ATOM     34  C   UNL     1       9.267   9.844  19.270  0.00  0.00    +0.000 A 
ENDBRANCH  27  28
ENDBRANCH  26  27
ENDBRANCH  25  26
ENDBRANCH  24  25
ENDBRANCH   9  24
TORSDOF 8
ENDMDL
MODEL 7
REMARK VINA RESULT:      -8.0      5.623      9.310
REMARK  Name = 
REMARK  9 active torsions:
REMARK  status: ('A' for Active; 'I' for Inactive)
REMARK    1  A    between atoms: C_1  and  C_2
REMARK    2  A    between atoms: C_2  and  C_3
REMARK    3  A    between atoms: C_8  and  N_9
REMARK    4  A    between atoms: C_11  and  C_12
REMARK    5  A    between atoms: N_20  and  C_21
REMARK    6  A    between atoms: C_21  and  C_22
REMARK    7  A    between atoms: C_22  and  C_23
REMARK    8  A    between atoms: C_23  and  O_24
REMARK    9  A    between atoms: O_24  and  C_25
REMARK                            x       y       z     vdW  Elec       q    Type
REMARK                         _______ _______ _______ _____ _____    ______ ____
ROOT
ATOM      1  C   UNL     1      -0.888  11.688  20.011  0.00  0.00    +0.000 A 
ATOM      2  N   UNL     1      -2.059  12.213  19.717  0.00  0.00    +0.000 NA
ATOM      3  C   UNL     1      -2.498  11.570  18.600  0.00  0.00    +0.000 A 
ATOM      4  C   UNL     1      -3.702  11.745  17.907  0.00  0.00    +0.000 A 
ATOM      5  C   UNL     1      -3.969  10.929  16.808  0.00  0.00    +0.000 A 
ATOM      6  C   UNL     1      -3.045   9.963  16.405  0.00  0.00    +0.000 A 
ATOM      7  C   UNL     1      -1.813   9.807  17.060  0.00  0.00    +0.000 A 
ATOM      8  C   UNL     1      -1.563  10.634  18.163  0.00  0.00    +0.000 A 
ATOM      9  N   UNL     1      -0.479  10.814  19.009  0.00  0.00    +0.000 N 
ENDROOT
BRANCH   1  12
ATOM     10  N   UNL     1      -1.673  13.064  22.758  0.00  0.00    +0.000 N 
ATOM     11  C   UNL     1      -0.540  13.350  21.898  0.00  0.00    +0.000 C 
ATOM     12  C   UNL     1      -0.132  12.003  21.274  0.00  0.00    +0.000 C 
ATOM     13  C   UNL     1      -0.510  11.050  22.394  0.00  0.00    +0.000 C 
ATOM     14  C   UNL     1      -1.739  11.685  22.999  0.00  0.00    +0.000 C 
ATOM     15  O   UNL     1      -2.546  11.041  23.651  0.00  0.00    +0.000 OA
BRANCH  10  21
ATOM     16  C   UNL     1      -3.888  14.251  22.573  0.00  0.00    +0.000 A 
ATOM     17  C   UNL     1      -4.799  15.181  23.135  0.00  0.00    +0.000 A 
ATOM     18  C   UNL     1      -4.461  15.954  24.239  0.00  0.00    +0.000 A 
ATOM     19  C   UNL     1      -3.203  15.815  24.798  0.00  0.00    +0.000 A 
ATOM     20  C   UNL     1      -2.311  14.864  24.289  0.00  0.00    +0.000 A 
ATOM     21  C   UNL     1      -2.630  14.039  23.192  0.00  0.00    +0.000 A 
BRANCH  16  23
ATOM     22  C   UNL     1      -5.258  12.585  21.337  0.00  0.00    +0.000 C 
ATOM     23  C   UNL     1      -4.273  13.742  21.201  0.00  0.00    +0.000 C 
ENDBRANCH  16  23
ENDBRANCH  10  21
ENDBRANCH   1  12
BRANCH   9  24
ATOM     24  C   UNL     1       0.895  10.473  18.675  0.00  0.00    +0.000 C 
BRANCH  24  25
ATOM     25  C   UNL     1       1.431   9.081  19.028  0.00  0.00    +0.000 C 
BRANCH  25  26
ATOM     26  C   UNL     1       2.339   8.465  17.965  0.00  0.00    +0.000 C 
BRANCH  26  27
ATOM     27  O   UNL     1       2.445   7.057  18.225  0.00  0.00    +0.000 OA
BRANCH  27  28
ATOM     28  C   UNL     1       3.691   6.512  18.043  0.00  0.00    +0.000 A 
ATOM     29  C   UNL     1       4.124   5.624  19.035  0.00  0.00    +0.000 A 
ATOM     30  C   UNL     1       5.383   5.015  18.940  0.00  0.00    +0.000 A 
ATOM     31  C   UNL     1       6.200   5.280  17.845  0.00  0.00    +0.000 A 
ATOM     32 CL   UNL     1       7.746   4.536  17.726  0.00  0.00    +0.000 Cl
ATOM     33  C   UNL     1       5.765   6.142  16.840  0.00  0.00    +0.000 A 
ATOM     34  C   UNL     1       4.514   6.753  16.939  0.00  0.00    +0.000 A 
ENDBRANCH  27  28
ENDBRANCH  26  27
ENDBRANCH  25  26
ENDBRANCH  24  25
ENDBRANCH   9  24
TORSDOF 8
ENDMDL
MODEL 8
REMARK VINA RESULT:      -8.0      4.219      8.026
REMARK  Name = 
REMARK  9 active torsions:
REMARK  status: ('A' for Active; 'I' for Inactive)
REMARK    1  A    between atoms: C_1  and  C_2
REMARK    2  A    between atoms: C_2  and  C_3
REMARK    3  A    between atoms: C_8  and  N_9
REMARK    4  A    between atoms: C_11  and  C_12
REMARK    5  A    between atoms: N_20  and  C_21
REMARK    6  A    between atoms: C_21  and  C_22
REMARK    7  A    between atoms: C_22  and  C_23
REMARK    8  A    between atoms: C_23  and  O_24
REMARK    9  A    between atoms: O_24  and  C_25
REMARK                            x       y       z     vdW  Elec       q    Type
REMARK                         _______ _______ _______ _____ _____    ______ ____
ROOT
ATOM      1  C   UNL     1       4.983   4.565  18.223  0.00  0.00    +0.000 A 
ATOM      2  N   UNL     1       4.852   3.256  18.283  0.00  0.00    +0.000 NA
ATOM      3  C   UNL     1       3.548   3.016  18.593  0.00  0.00    +0.000 A 
ATOM      4  C   UNL     1       2.899   1.784  18.745  0.00  0.00    +0.000 A 
ATOM      5  C   UNL     1       1.530   1.775  19.010  0.00  0.00    +0.000 A 
ATOM      6  C   UNL     1       0.826   2.974  19.132  0.00  0.00    +0.000 A 
ATOM      7  C   UNL     1       1.471   4.218  19.029  0.00  0.00    +0.000 A 
ATOM      8  C   UNL     1       2.846   4.207  18.760  0.00  0.00    +0.000 A 
ATOM      9  N   UNL     1       3.815   5.193  18.643  0.00  0.00    +0.000 N 
ENDROOT
BRANCH   1  12
ATOM     10  N   UNL     1       6.223   5.137  15.362  0.00  0.00    +0.000 N 
ATOM     11  C   UNL     1       6.870   4.562  16.526  0.00  0.00    +0.000 C 
ATOM     12  C   UNL     1       6.235   5.252  17.746  0.00  0.00    +0.000 C 
ATOM     13  C   UNL     1       5.925   6.619  17.164  0.00  0.00    +0.000 C 
ATOM     14  C   UNL     1       5.569   6.320  15.729  0.00  0.00    +0.000 C 
ATOM     15  O   UNL     1       4.899   7.088  15.054  0.00  0.00    +0.000 OA
BRANCH  10  21
ATOM     16  C   UNL     1       7.209   4.610  13.103  0.00  0.00    +0.000 A 
ATOM     17  C   UNL     1       7.101   3.887  11.888  0.00  0.00    +0.000 A 
ATOM     18  C   UNL     1       5.966   3.146  11.581  0.00  0.00    +0.000 A 
ATOM     19  C   UNL     1       4.916   3.119  12.482  0.00  0.00    +0.000 A 
ATOM     20  C   UNL     1       5.028   3.783  13.709  0.00  0.00    +0.000 A 
ATOM     21  C   UNL     1       6.176   4.517  14.070  0.00  0.00    +0.000 A 
BRANCH  16  23
ATOM     22  C   UNL     1       8.391   6.381  11.819  0.00  0.00    +0.000 C 
ATOM     23  C   UNL     1       8.338   5.616  13.139  0.00  0.00    +0.000 C 
ENDBRANCH  16  23
ENDBRANCH  10  21
ENDBRANCH   1  12
BRANCH   9  24
ATOM     24  C   UNL     1       3.716   6.522  19.228  0.00  0.00    +0.000 C 
BRANCH  24  25
ATOM     25  C   UNL     1       2.368   7.250  19.217  0.00  0.00    +0.000 C 
BRANCH  25  26
ATOM     26  C   UNL     1       2.145   8.148  18.002  0.00  0.00    +0.000 C 
BRANCH  26  27
ATOM     27  O   UNL     1       2.183   9.515  18.439  0.00  0.00    +0.000 OA
BRANCH  27  28
ATOM     28  C   UNL     1       0.963  10.111  18.631  0.00  0.00    +0.000 A 
ATOM     29  C   UNL     1      -0.071   9.684  17.788  0.00  0.00    +0.000 A 
ATOM     30  C   UNL     1      -1.354  10.233  17.906  0.00  0.00    +0.000 A 
ATOM     31  C   UNL     1      -1.609  11.197  18.877  0.00  0.00    +0.000 A 
ATOM     32 CL   UNL     1      -3.183  11.875  19.023  0.00  0.00    +0.000 Cl
ATOM     33  C   UNL     1      -0.593  11.609  19.737  0.00  0.00    +0.000 A 
ATOM     34  C   UNL     1       0.687  11.065  19.616  0.00  0.00    +0.000 A 
ENDBRANCH  27  28
ENDBRANCH  26  27
ENDBRANCH  25  26
ENDBRANCH  24  25
ENDBRANCH   9  24
TORSDOF 8
ENDMDL
MODEL 9
REMARK VINA RESULT:      -8.0      0.894      1.791
REMARK  Name = 
REMARK  9 active torsions:
REMARK  status: ('A' for Active; 'I' for Inactive)
REMARK    1  A    between atoms: C_1  and  C_2
REMARK    2  A    between atoms: C_2  and  C_3
REMARK    3  A    between atoms: C_8  and  N_9
REMARK    4  A    between atoms: C_11  and  C_12
REMARK    5  A    between atoms: N_20  and  C_21
REMARK    6  A    between atoms: C_21  and  C_22
REMARK    7  A    between atoms: C_22  and  C_23
REMARK    8  A    between atoms: C_23  and  O_24
REMARK    9  A    between atoms: O_24  and  C_25
REMARK                            x       y       z     vdW  Elec       q    Type
REMARK                         _______ _______ _______ _____ _____    ______ ____
ROOT
ATOM      1  C   UNL     1       5.203   4.263  17.674  0.00  0.00    +0.000 A 
ATOM      2  N   UNL     1       4.570   3.866  16.591  0.00  0.00    +0.000 NA
ATOM      3  C   UNL     1       5.396   4.136  15.543  0.00  0.00    +0.000 A 
ATOM      4  C   UNL     1       5.194   3.878  14.181  0.00  0.00    +0.000 A 
ATOM      5  C   UNL     1       6.211   4.192  13.280  0.00  0.00    +0.000 A 
ATOM      6  C   UNL     1       7.402   4.764  13.731  0.00  0.00    +0.000 A 
ATOM      7  C   UNL     1       7.602   5.073  15.086  0.00  0.00    +0.000 A 
ATOM      8  C   UNL     1       6.570   4.747  15.977  0.00  0.00    +0.000 A 
ATOM      9  N   UNL     1       6.373   4.936  17.337  0.00  0.00    +0.000 N 
ENDROOT
BRANCH   1  12
ATOM     10  N   UNL     1       2.934   5.540  19.483  0.00  0.00    +0.000 N 
ATOM     11  C   UNL     1       4.319   5.280  19.825  0.00  0.00    +0.000 C 
ATOM     12  C   UNL     1       4.707   3.996  19.070  0.00  0.00    +0.000 C 
ATOM     13  C   UNL     1       3.373   3.269  19.051  0.00  0.00    +0.000 C 
ATOM     14  C   UNL     1       2.364   4.385  18.930  0.00  0.00    +0.000 C 
ATOM     15  O   UNL     1       1.237   4.195  18.500  0.00  0.00    +0.000 OA
BRANCH  10  21
ATOM     16  C   UNL     1       2.093   7.707  18.508  0.00  0.00    +0.000 A 
ATOM     17  C   UNL     1       1.373   8.911  18.710  0.00  0.00    +0.000 A 
ATOM     18  C   UNL     1       0.922   9.288  19.969  0.00  0.00    +0.000 A 
ATOM     19  C   UNL     1       1.190   8.468  21.052  0.00  0.00    +0.000 A 
ATOM     20  C   UNL     1       1.853   7.251  20.862  0.00  0.00    +0.000 A 
ATOM     21  C   UNL     1       2.296   6.819  19.595  0.00  0.00    +0.000 A 
BRANCH  16  23
ATOM     22  C   UNL     1       4.283   7.875  17.343  0.00  0.00    +0.000 C 
ATOM     23  C   UNL     1       2.791   7.607  17.169  0.00  0.00    +0.000 C 
ENDBRANCH  16  23
ENDBRANCH  10  21
ENDBRANCH   1  12
BRANCH   9  24
ATOM     24  C   UNL     1       7.038   5.955  18.135  0.00  0.00    +0.000 C 
BRANCH  24  25
ATOM     25  C   UNL     1       7.689   7.153  17.434  0.00  0.00    +0.000 C 
BRANCH  25  26
ATOM     26  C   UNL     1       8.190   8.243  18.379  0.00  0.00    +0.000 C 
BRANCH  26  27
ATOM     27  O   UNL     1       8.274   9.473  17.643  0.00  0.00    +0.000 OA
BRANCH  27  28
ATOM     28  C   UNL     1       8.810  10.536  18.323  0.00  0.00    +0.000 A 
ATOM     29  C   UNL     1       9.393  10.244  19.562  0.00  0.00    +0.000 A 
ATOM     30  C   UNL     1       9.968  11.262  20.333  0.00  0.00    +0.000 A 
ATOM     31  C   UNL     1       9.976  12.570  19.858  0.00  0.00    +0.000 A 
ATOM     32 CL   UNL     1      10.679  13.824  20.802  0.00  0.00    +0.000 Cl
ATOM     33  C   UNL     1       9.422  12.866  18.614  0.00  0.00    +0.000 A 
ATOM     34  C   UNL     1       8.845  11.851  17.849  0.00  0.00    +0.000 A 
ENDBRANCH  27  28
ENDBRANCH  26  27
ENDBRANCH  25  26
ENDBRANCH  24  25
ENDBRANCH   9  24
TORSDOF 8
ENDMDL
