MODEL 1
REMARK VINA RESULT:      -7.2      0.000      0.000
REMARK  Name = 
REMARK  6 active torsions:
REMARK  status: ('A' for Active; 'I' for Inactive)
REMARK    1  A    between atoms: C_1  and  C_2
REMARK    2  A    between atoms: C_2  and  S_3
REMARK    3  A    between atoms: S_3  and  N_6
REMARK    4  A    between atoms: C_10  and  C_11
REMARK    5  A    between atoms: C_11  and  O_13
REMARK    6  A    between atoms: O_13  and  C_14
REMARK                            x       y       z     vdW  Elec       q    Type
REMARK                         _______ _______ _______ _____ _____    ______ ____
ROOT
ATOM      1  N   UNL     1       6.662   4.906  16.572  0.00  0.00    +0.000 NA
ATOM      2  C   UNL     1       7.164   6.107  17.324  0.00  0.00    +0.000 C 
ATOM      3  C   UNL     1       7.365   5.774  18.798  0.00  0.00    +0.000 C 
ATOM      4  C   UNL     1       6.073   5.268  19.422  0.00  0.00    +0.000 C 
ATOM      5  C   UNL     1       5.538   4.083  18.623  0.00  0.00    +0.000 C 
ATOM      6  C   UNL     1       5.372   4.409  17.145  0.00  0.00    +0.000 C 
ENDROOT
BRANCH   1   7
ATOM      7  S   UNL     1       6.609   5.231  14.881  0.00  0.00    +0.000 S 
ATOM      8  O   UNL     1       7.959   5.534  14.462  0.00  0.00    +0.000 OA
ATOM      9  O   UNL     1       5.529   6.171  14.667  0.00  0.00    +0.000 OA
BRANCH   7  11
ATOM     10  C   UNL     1       6.295   3.676  12.663  0.00  0.00    +0.000 C 
ATOM     11  C   UNL     1       6.144   3.650  14.173  0.00  0.00    +0.000 C 
ENDBRANCH   7  11
ENDBRANCH   1   7
BRANCH   5  12
ATOM     12  C   UNL     1       4.202   3.641  19.169  0.00  0.00    +0.000 C 
ATOM     13  O   UNL     1       4.035   2.859  20.096  0.00  0.00    +0.000 OA
BRANCH  12  14
ATOM     14  O   UNL     1       3.201   4.265  18.436  0.00  0.00    +0.000 OA
BRANCH  14  15
ATOM     15  C   UNL     1       2.578   5.400  18.981  0.00  0.00    +0.000 A 
ATOM     16  C   UNL     1       2.686   6.669  18.408  0.00  0.00    +0.000 A 
ATOM     17  C   UNL     1       2.210   7.780  19.100  0.00  0.00    +0.000 A 
ATOM     18  C   UNL     1       1.638   7.614  20.362  0.00  0.00    +0.000 A 
ATOM     19 BR   UNL     1       1.053   9.133  21.322  0.00  0.00    +0.000 Br
ATOM     20  C   UNL     1       1.521   6.345  20.928  0.00  0.00    +0.000 A 
ATOM     21  C   UNL     1       1.993   5.230  20.236  0.00  0.00    +0.000 A 
ENDBRANCH  14  15
ENDBRANCH  12  14
ENDBRANCH   5  12
TORSDOF 5
ENDMDL
MODEL 2
REMARK VINA RESULT:      -7.0      2.608      3.802
REMARK  Name = 
REMARK  6 active torsions:
REMARK  status: ('A' for Active; 'I' for Inactive)
REMARK    1  A    between atoms: C_1  and  C_2
REMARK    2  A    between atoms: C_2  and  S_3
REMARK    3  A    between atoms: S_3  and  N_6
REMARK    4  A    between atoms: C_10  and  C_11
REMARK    5  A    between atoms: C_11  and  O_13
REMARK    6  A    between atoms: O_13  and  C_14
REMARK                            x       y       z     vdW  Elec       q    Type
REMARK                         _______ _______ _______ _____ _____    ______ ____
ROOT
ATOM      1  N   UNL     1       5.803   5.393  18.211  0.00  0.00    +0.000 NA
ATOM      2  C   UNL     1       5.487   4.134  17.451  0.00  0.00    +0.000 C 
ATOM      3  C   UNL     1       4.110   4.228  16.803  0.00  0.00    +0.000 C 
ATOM      4  C   UNL     1       3.035   4.494  17.846  0.00  0.00    +0.000 C 
ATOM      5  C   UNL     1       3.388   5.742  18.651  0.00  0.00    +0.000 C 
ATOM      6  C   UNL     1       4.777   5.659  19.268  0.00  0.00    +0.000 C 
ENDROOT
BRANCH   1   7
ATOM      7  S   UNL     1       7.426   5.358  18.788  0.00  0.00    +0.000 S 
ATOM      8  O   UNL     1       8.150   4.414  17.968  0.00  0.00    +0.000 OA
ATOM      9  O   UNL     1       7.357   5.204  20.226  0.00  0.00    +0.000 OA
BRANCH   7  11
ATOM     10  C   UNL     1       7.233   7.620  17.278  0.00  0.00    +0.000 C 
ATOM     11  C   UNL     1       8.029   7.005  18.415  0.00  0.00    +0.000 C 
ENDBRANCH   7  11
ENDBRANCH   1   7
BRANCH   5  12
ATOM     12  C   UNL     1       2.384   5.953  19.759  0.00  0.00    +0.000 C 
ATOM     13  O   UNL     1       1.587   5.119  20.166  0.00  0.00    +0.000 OA
BRANCH  12  14
ATOM     14  O   UNL     1       2.514   7.255  20.224  0.00  0.00    +0.000 OA
BRANCH  14  15
ATOM     15  C   UNL     1       1.604   8.224  19.770  0.00  0.00    +0.000 A 
ATOM     16  C   UNL     1       1.662   8.770  18.486  0.00  0.00    +0.000 A 
ATOM     17  C   UNL     1       0.857   9.861  18.165  0.00  0.00    +0.000 A 
ATOM     18  C   UNL     1       0.009  10.402  19.132  0.00  0.00    +0.000 A 
ATOM     19 BR   UNL     1      -1.031  11.921  18.708  0.00  0.00    +0.000 Br
ATOM     20  C   UNL     1      -0.055   9.849  20.410  0.00  0.00    +0.000 A 
ATOM     21  C   UNL     1       0.746   8.754  20.734  0.00  0.00    +0.000 A 
ENDBRANCH  14  15
ENDBRANCH  12  14
ENDBRANCH   5  12
TORSDOF 5
ENDMDL
MODEL 3
REMARK VINA RESULT:      -7.0      2.390      3.731
REMARK  Name = 
REMARK  6 active torsions:
REMARK  status: ('A' for Active; 'I' for Inactive)
REMARK    1  A    between atoms: C_1  and  C_2
REMARK    2  A    between atoms: C_2  and  S_3
REMARK    3  A    between atoms: S_3  and  N_6
REMARK    4  A    between atoms: C_10  and  C_11
REMARK    5  A    between atoms: C_11  and  O_13
REMARK    6  A    between atoms: O_13  and  C_14
REMARK                            x       y       z     vdW  Elec       q    Type
REMARK                         _______ _______ _______ _____ _____    ______ ____
ROOT
ATOM      1  N   UNL     1       4.788   4.838  17.370  0.00  0.00    +0.000 NA
ATOM      2  C   UNL     1       4.271   3.439  17.185  0.00  0.00    +0.000 C 
ATOM      3  C   UNL     1       2.748   3.428  17.139  0.00  0.00    +0.000 C 
ATOM      4  C   UNL     1       2.162   4.039  18.404  0.00  0.00    +0.000 C 
ATOM      5  C   UNL     1       2.731   5.440  18.617  0.00  0.00    +0.000 C 
ATOM      6  C   UNL     1       4.253   5.451  18.627  0.00  0.00    +0.000 C 
ENDROOT
BRANCH   1   7
ATOM      7  S   UNL     1       6.506   4.871  17.240  0.00  0.00    +0.000 S 
ATOM      8  O   UNL     1       6.847   4.281  15.964  0.00  0.00    +0.000 OA
ATOM      9  O   UNL     1       7.032   4.337  18.478  0.00  0.00    +0.000 OA
BRANCH   7  11
ATOM     10  C   UNL     1       7.889   7.000  18.233  0.00  0.00    +0.000 C 
ATOM     11  C   UNL     1       6.878   6.624  17.165  0.00  0.00    +0.000 C 
ENDBRANCH   7  11
ENDBRANCH   1   7
BRANCH   5  12
ATOM     12  C   UNL     1       2.239   6.012  19.925  0.00  0.00    +0.000 C 
ATOM     13  O   UNL     1       1.632   5.394  20.790  0.00  0.00    +0.000 OA
BRANCH  12  14
ATOM     14  O   UNL     1       2.583   7.357  19.970  0.00  0.00    +0.000 OA
BRANCH  14  15
ATOM     15  C   UNL     1       1.579   8.314  19.747  0.00  0.00    +0.000 A 
ATOM     16  C   UNL     1       1.464   9.022  18.548  0.00  0.00    +0.000 A 
ATOM     17  C   UNL     1       0.573  10.089  18.461  0.00  0.00    +0.000 A 
ATOM     18  C   UNL     1      -0.188  10.445  19.575  0.00  0.00    +0.000 A 
ATOM     19 BR   UNL     1      -1.346  11.934  19.469  0.00  0.00    +0.000 Br
ATOM     20  C   UNL     1      -0.080   9.730  20.768  0.00  0.00    +0.000 A 
ATOM     21  C   UNL     1       0.807   8.659  20.857  0.00  0.00    +0.000 A 
ENDBRANCH  14  15
ENDBRANCH  12  14
ENDBRANCH   5  12
TORSDOF 5
ENDMDL
MODEL 4
REMARK VINA RESULT:      -6.9      2.326      3.594
REMARK  Name = 
REMARK  6 active torsions:
REMARK  status: ('A' for Active; 'I' for Inactive)
REMARK    1  A    between atoms: C_1  and  C_2
REMARK    2  A    between atoms: C_2  and  S_3
REMARK    3  A    between atoms: S_3  and  N_6
REMARK    4  A    between atoms: C_10  and  C_11
REMARK    5  A    between atoms: C_11  and  O_13
REMARK    6  A    between atoms: O_13  and  C_14
REMARK                            x       y       z     vdW  Elec       q    Type
REMARK                         _______ _______ _______ _____ _____    ______ ____
ROOT
ATOM      1  N   UNL     1       4.298   4.666  16.874  0.00  0.00    +0.000 NA
ATOM      2  C   UNL     1       4.382   3.194  17.170  0.00  0.00    +0.000 C 
ATOM      3  C   UNL     1       3.027   2.655  17.614  0.00  0.00    +0.000 C 
ATOM      4  C   UNL     1       2.517   3.407  18.835  0.00  0.00    +0.000 C 
ATOM      5  C   UNL     1       2.485   4.906  18.548  0.00  0.00    +0.000 C 
ATOM      6  C   UNL     1       3.831   5.433  18.072  0.00  0.00    +0.000 C 
ENDROOT
BRANCH   1   7
ATOM      7  S   UNL     1       5.780   5.232  16.201  0.00  0.00    +0.000 S 
ATOM      8  O   UNL     1       5.467   6.395  15.400  0.00  0.00    +0.000 OA
ATOM      9  O   UNL     1       6.448   4.084  15.628  0.00  0.00    +0.000 OA
BRANCH   7  11
ATOM     10  C   UNL     1       7.407   7.090  17.357  0.00  0.00    +0.000 C 
ATOM     11  C   UNL     1       6.703   5.775  17.640  0.00  0.00    +0.000 C 
ENDBRANCH   7  11
ENDBRANCH   1   7
BRANCH   5  12
ATOM     12  C   UNL     1       2.083   5.669  19.787  0.00  0.00    +0.000 C 
ATOM     13  O   UNL     1       1.309   5.272  20.648  0.00  0.00    +0.000 OA
BRANCH  12  14
ATOM     14  O   UNL     1       2.733   6.896  19.776  0.00  0.00    +0.000 OA
BRANCH  14  15
ATOM     15  C   UNL     1       1.965   8.060  19.605  0.00  0.00    +0.000 A 
ATOM     16  C   UNL     1       1.158   8.587  20.617  0.00  0.00    +0.000 A 
ATOM     17  C   UNL     1       0.277   9.625  20.323  0.00  0.00    +0.000 A 
ATOM     18  C   UNL     1       0.203  10.121  19.021  0.00  0.00    +0.000 A 
ATOM     19 BR   UNL     1      -1.041  11.484  18.618  0.00  0.00    +0.000 Br
ATOM     20  C   UNL     1       1.017   9.601  18.016  0.00  0.00    +0.000 A 
ATOM     21  C   UNL     1       1.904   8.565  18.306  0.00  0.00    +0.000 A 
ENDBRANCH  14  15
ENDBRANCH  12  14
ENDBRANCH   5  12
TORSDOF 5
ENDMDL
MODEL 5
REMARK VINA RESULT:      -6.9      2.448      3.825
REMARK  Name = 
REMARK  6 active torsions:
REMARK  status: ('A' for Active; 'I' for Inactive)
REMARK    1  A    between atoms: C_1  and  C_2
REMARK    2  A    between atoms: C_2  and  S_3
REMARK    3  A    between atoms: S_3  and  N_6
REMARK    4  A    between atoms: C_10  and  C_11
REMARK    5  A    between atoms: C_11  and  O_13
REMARK    6  A    between atoms: O_13  and  C_14
REMARK                            x       y       z     vdW  Elec       q    Type
REMARK                         _______ _______ _______ _____ _____    ______ ____
ROOT
ATOM      1  N   UNL     1       5.370   5.162  17.710  0.00  0.00    +0.000 NA
ATOM      2  C   UNL     1       5.082   3.748  17.291  0.00  0.00    +0.000 C 
ATOM      3  C   UNL     1       3.612   3.584  16.921  0.00  0.00    +0.000 C 
ATOM      4  C   UNL     1       2.712   3.979  18.083  0.00  0.00    +0.000 C 
ATOM      5  C   UNL     1       3.046   5.396  18.542  0.00  0.00    +0.000 C 
ATOM      6  C   UNL     1       4.521   5.564  18.876  0.00  0.00    +0.000 C 
ENDROOT
BRANCH   1   7
ATOM      7  S   UNL     1       7.061   5.388  17.952  0.00  0.00    +0.000 S 
ATOM      8  O   UNL     1       7.744   4.478  17.060  0.00  0.00    +0.000 OA
ATOM      9  O   UNL     1       7.290   5.352  19.380  0.00  0.00    +0.000 OA
BRANCH   7  11
ATOM     10  C   UNL     1       8.215   7.828  18.341  0.00  0.00    +0.000 C 
ATOM     11  C   UNL     1       7.338   7.061  17.367  0.00  0.00    +0.000 C 
ENDBRANCH   7  11
ENDBRANCH   1   7
BRANCH   5  12
ATOM     12  C   UNL     1       2.234   5.757  19.762  0.00  0.00    +0.000 C 
ATOM     13  O   UNL     1       1.363   5.062  20.269  0.00  0.00    +0.000 OA
BRANCH  12  14
ATOM     14  O   UNL     1       2.636   7.012  20.200  0.00  0.00    +0.000 OA
BRANCH  14  15
ATOM     15  C   UNL     1       1.841   8.123  19.874  0.00  0.00    +0.000 A 
ATOM     16  C   UNL     1       0.900   8.662  20.755  0.00  0.00    +0.000 A 
ATOM     17  C   UNL     1       0.013   9.636  20.302  0.00  0.00    +0.000 A 
ATOM     18  C   UNL     1       0.067  10.054  18.973  0.00  0.00    +0.000 A 
ATOM     19 BR   UNL     1      -1.183  11.328  18.350  0.00  0.00    +0.000 Br
ATOM     20  C   UNL     1       1.014   9.523  18.098  0.00  0.00    +0.000 A 
ATOM     21  C   UNL     1       1.907   8.552  18.548  0.00  0.00    +0.000 A 
ENDBRANCH  14  15
ENDBRANCH  12  14
ENDBRANCH   5  12
TORSDOF 5
ENDMDL
MODEL 6
REMARK VINA RESULT:      -6.9      2.214      3.481
REMARK  Name = 
REMARK  6 active torsions:
REMARK  status: ('A' for Active; 'I' for Inactive)
REMARK    1  A    between atoms: C_1  and  C_2
REMARK    2  A    between atoms: C_2  and  S_3
REMARK    3  A    between atoms: S_3  and  N_6
REMARK    4  A    between atoms: C_10  and  C_11
REMARK    5  A    between atoms: C_11  and  O_13
REMARK    6  A    between atoms: O_13  and  C_14
REMARK                            x       y       z     vdW  Elec       q    Type
REMARK                         _______ _______ _______ _____ _____    ______ ____
ROOT
ATOM      1  N   UNL     1       4.592   5.040  16.884  0.00  0.00    +0.000 NA
ATOM      2  C   UNL     1       4.507   3.540  16.915  0.00  0.00    +0.000 C 
ATOM      3  C   UNL     1       3.072   3.085  17.155  0.00  0.00    +0.000 C 
ATOM      4  C   UNL     1       2.528   3.667  18.452  0.00  0.00    +0.000 C 
ATOM      5  C   UNL     1       2.666   5.187  18.440  0.00  0.00    +0.000 C 
ATOM      6  C   UNL     1       4.094   5.637  18.164  0.00  0.00    +0.000 C 
ENDROOT
BRANCH   1   7
ATOM      7  S   UNL     1       6.175   5.548  16.433  0.00  0.00    +0.000 S 
ATOM      8  O   UNL     1       6.220   6.985  16.580  0.00  0.00    +0.000 OA
ATOM      9  O   UNL     1       6.476   4.913  15.167  0.00  0.00    +0.000 OA
BRANCH   7  11
ATOM     10  C   UNL     1       7.734   5.892  18.643  0.00  0.00    +0.000 C 
ATOM     11  C   UNL     1       7.215   4.821  17.701  0.00  0.00    +0.000 C 
ENDBRANCH   7  11
ENDBRANCH   1   7
BRANCH   5  12
ATOM     12  C   UNL     1       2.229   5.765  19.764  0.00  0.00    +0.000 C 
ATOM     13  O   UNL     1       1.563   5.182  20.610  0.00  0.00    +0.000 OA
BRANCH  12  14
ATOM     14  O   UNL     1       2.701   7.068  19.851  0.00  0.00    +0.000 OA
BRANCH  14  15
ATOM     15  C   UNL     1       1.824   8.121  19.542  0.00  0.00    +0.000 A 
ATOM     16  C   UNL     1       1.768   8.710  18.277  0.00  0.00    +0.000 A 
ATOM     17  C   UNL     1       1.021   9.871  18.092  0.00  0.00    +0.000 A 
ATOM     18  C   UNL     1       0.345  10.438  19.173  0.00  0.00    +0.000 A 
ATOM     19 BR   UNL     1      -0.612  12.048  18.927  0.00  0.00    +0.000 Br
ATOM     20  C   UNL     1       0.394   9.842  20.433  0.00  0.00    +0.000 A 
ATOM     21  C   UNL     1       1.137   8.677  20.622  0.00  0.00    +0.000 A 
ENDBRANCH  14  15
ENDBRANCH  12  14
ENDBRANCH   5  12
TORSDOF 5
ENDMDL
MODEL 7
REMARK VINA RESULT:      -6.8      2.467      3.556
REMARK  Name = 
REMARK  6 active torsions:
REMARK  status: ('A' for Active; 'I' for Inactive)
REMARK    1  A    between atoms: C_1  and  C_2
REMARK    2  A    between atoms: C_2  and  S_3
REMARK    3  A    between atoms: S_3  and  N_6
REMARK    4  A    between atoms: C_10  and  C_11
REMARK    5  A    between atoms: C_11  and  O_13
REMARK    6  A    between atoms: O_13  and  C_14
REMARK                            x       y       z     vdW  Elec       q    Type
REMARK                         _______ _______ _______ _____ _____    ______ ____
ROOT
ATOM      1  N   UNL     1       4.737   4.969  17.480  0.00  0.00    +0.000 NA
ATOM      2  C   UNL     1       4.379   3.513  17.380  0.00  0.00    +0.000 C 
ATOM      3  C   UNL     1       2.866   3.332  17.326  0.00  0.00    +0.000 C 
ATOM      4  C   UNL     1       2.201   3.952  18.546  0.00  0.00    +0.000 C 
ATOM      5  C   UNL     1       2.611   5.417  18.675  0.00  0.00    +0.000 C 
ATOM      6  C   UNL     1       4.123   5.596  18.693  0.00  0.00    +0.000 C 
ENDROOT
BRANCH   1   7
ATOM      7  S   UNL     1       6.443   5.182  17.358  0.00  0.00    +0.000 S 
ATOM      8  O   UNL     1       7.049   4.360  18.382  0.00  0.00    +0.000 OA
ATOM      9  O   UNL     1       6.686   6.608  17.300  0.00  0.00    +0.000 OA
BRANCH   7  11
ATOM     10  C   UNL     1       5.893   5.000  14.694  0.00  0.00    +0.000 C 
ATOM     11  C   UNL     1       6.832   4.466  15.761  0.00  0.00    +0.000 C 
ENDBRANCH   7  11
ENDBRANCH   1   7
BRANCH   5  12
ATOM     12  C   UNL     1       2.043   6.012  19.941  0.00  0.00    +0.000 C 
ATOM     13  O   UNL     1       1.271   5.450  20.708  0.00  0.00    +0.000 OA
BRANCH  12  14
ATOM     14  O   UNL     1       2.536   7.303  20.078  0.00  0.00    +0.000 OA
BRANCH  14  15
ATOM     15  C   UNL     1       1.681   8.381  19.794  0.00  0.00    +0.000 A 
ATOM     16  C   UNL     1       0.747   8.865  20.713  0.00  0.00    +0.000 A 
ATOM     17  C   UNL     1      -0.198   9.803  20.303  0.00  0.00    +0.000 A 
ATOM     18  C   UNL     1      -0.207  10.241  18.979  0.00  0.00    +0.000 A 
ATOM     19 BR   UNL     1      -1.533  11.464  18.416  0.00  0.00    +0.000 Br
ATOM     20  C   UNL     1       0.733   9.764  18.066  0.00  0.00    +0.000 A 
ATOM     21  C   UNL     1       1.684   8.829  18.473  0.00  0.00    +0.000 A 
ENDBRANCH  14  15
ENDBRANCH  12  14
ENDBRANCH   5  12
TORSDOF 5
ENDMDL
MODEL 8
REMARK VINA RESULT:      -6.8      2.811      4.208
REMARK  Name = 
REMARK  6 active torsions:
REMARK  status: ('A' for Active; 'I' for Inactive)
REMARK    1  A    between atoms: C_1  and  C_2
REMARK    2  A    between atoms: C_2  and  S_3
REMARK    3  A    between atoms: S_3  and  N_6
REMARK    4  A    between atoms: C_10  and  C_11
REMARK    5  A    between atoms: C_11  and  O_13
REMARK    6  A    between atoms: O_13  and  C_14
REMARK                            x       y       z     vdW  Elec       q    Type
REMARK                         _______ _______ _______ _____ _____    ______ ____
ROOT
ATOM      1  N   UNL     1       5.241   5.543  16.752  0.00  0.00    +0.000 NA
ATOM      2  C   UNL     1       4.886   4.230  17.393  0.00  0.00    +0.000 C 
ATOM      3  C   UNL     1       3.374   4.038  17.428  0.00  0.00    +0.000 C 
ATOM      4  C   UNL     1       2.699   5.182  18.170  0.00  0.00    +0.000 C 
ATOM      5  C   UNL     1       3.105   6.516  17.551  0.00  0.00    +0.000 C 
ATOM      6  C   UNL     1       4.616   6.688  17.485  0.00  0.00    +0.000 C 
ENDROOT
BRANCH   1   7
ATOM      7  S   UNL     1       6.946   5.675  16.549  0.00  0.00    +0.000 S 
ATOM      8  O   UNL     1       7.281   7.077  16.661  0.00  0.00    +0.000 OA
ATOM      9  O   UNL     1       7.290   4.914  15.367  0.00  0.00    +0.000 OA
BRANCH   7  11
ATOM     10  C   UNL     1       7.809   5.802  19.132  0.00  0.00    +0.000 C 
ATOM     11  C   UNL     1       7.598   4.826  17.988  0.00  0.00    +0.000 C 
ENDBRANCH   7  11
ENDBRANCH   1   7
BRANCH   5  12
ATOM     12  C   UNL     1       2.526   7.661  18.346  0.00  0.00    +0.000 C 
ATOM     13  O   UNL     1       2.226   7.625  19.532  0.00  0.00    +0.000 OA
BRANCH  12  14
ATOM     14  O   UNL     1       2.383   8.754  17.500  0.00  0.00    +0.000 OA
BRANCH  14  15
ATOM     15  C   UNL     1       1.526   9.796  17.890  0.00  0.00    +0.000 A 
ATOM     16  C   UNL     1       1.996  11.006  18.406  0.00  0.00    +0.000 A 
ATOM     17  C   UNL     1       1.095  11.918  18.952  0.00  0.00    +0.000 A 
ATOM     18  C   UNL     1      -0.265  11.608  18.985  0.00  0.00    +0.000 A 
ATOM     19 BR   UNL     1      -1.472  12.821  19.786  0.00  0.00    +0.000 Br
ATOM     20  C   UNL     1      -0.733  10.404  18.460  0.00  0.00    +0.000 A 
ATOM     21  C   UNL     1       0.165   9.491  17.908  0.00  0.00    +0.000 A 
ENDBRANCH  14  15
ENDBRANCH  12  14
ENDBRANCH   5  12
TORSDOF 5
ENDMDL
MODEL 9
REMARK VINA RESULT:      -6.8      2.982      4.446
REMARK  Name = 
REMARK  6 active torsions:
REMARK  status: ('A' for Active; 'I' for Inactive)
REMARK    1  A    between atoms: C_1  and  C_2
REMARK    2  A    between atoms: C_2  and  S_3
REMARK    3  A    between atoms: S_3  and  N_6
REMARK    4  A    between atoms: C_10  and  C_11
REMARK    5  A    between atoms: C_11  and  O_13
REMARK    6  A    between atoms: O_13  and  C_14
REMARK                            x       y       z     vdW  Elec       q    Type
REMARK                         _______ _______ _______ _____ _____    ______ ____
ROOT
ATOM      1  N   UNL     1       5.219   5.821  16.827  0.00  0.00    +0.000 NA
ATOM      2  C   UNL     1       4.915   4.446  17.354  0.00  0.00    +0.000 C 
ATOM      3  C   UNL     1       3.417   4.169  17.305  0.00  0.00    +0.000 C 
ATOM      4  C   UNL     1       2.645   5.216  18.095  0.00  0.00    +0.000 C 
ATOM      5  C   UNL     1       2.998   6.613  17.594  0.00  0.00    +0.000 C 
ATOM      6  C   UNL     1       4.498   6.873  17.611  0.00  0.00    +0.000 C 
ENDROOT
BRANCH   1   7
ATOM      7  S   UNL     1       6.922   6.062  16.714  0.00  0.00    +0.000 S 
ATOM      8  O   UNL     1       7.182   7.439  17.072  0.00  0.00    +0.000 OA
ATOM      9  O   UNL     1       7.338   5.528  15.435  0.00  0.00    +0.000 OA
BRANCH   7  11
ATOM     10  C   UNL     1       7.856   5.826  19.264  0.00  0.00    +0.000 C 
ATOM     11  C   UNL     1       7.572   5.012  18.015  0.00  0.00    +0.000 C 
ENDBRANCH   7  11
ENDBRANCH   1   7
BRANCH   5  12
ATOM     12  C   UNL     1       2.320   7.662  18.442  0.00  0.00    +0.000 C 
ATOM     13  O   UNL     1       2.310   7.691  19.666  0.00  0.00    +0.000 OA
BRANCH  12  14
ATOM     14  O   UNL     1       1.705   8.577  17.598  0.00  0.00    +0.000 OA
BRANCH  14  15
ATOM     15  C   UNL     1       1.272   9.800  18.136  0.00  0.00    +0.000 A 
ATOM     16  C   UNL     1      -0.068  10.064  18.428  0.00  0.00    +0.000 A 
ATOM     17  C   UNL     1      -0.456  11.356  18.775  0.00  0.00    +0.000 A 
ATOM     18  C   UNL     1       0.496  12.374  18.817  0.00  0.00    +0.000 A 
ATOM     19 BR   UNL     1      -0.049  14.137  19.224  0.00  0.00    +0.000 Br
ATOM     20  C   UNL     1       1.836  12.108  18.535  0.00  0.00    +0.000 A 
ATOM     21  C   UNL     1       2.229  10.815  18.192  0.00  0.00    +0.000 A 
ENDBRANCH  14  15
ENDBRANCH  12  14
ENDBRANCH   5  12
TORSDOF 5
ENDMDL
