MODEL 1
REMARK VINA RESULT:      -7.1      0.000      0.000
REMARK  Name = 
REMARK  6 active torsions:
REMARK  status: ('A' for Active; 'I' for Inactive)
REMARK    1  A    between atoms: C_1  and  C_2
REMARK    2  A    between atoms: C_4  and  C_5
REMARK    3  A    between atoms: C_11  and  C_12
REMARK    4  A    between atoms: C_12  and  N_13
REMARK    5  A    between atoms: C_17  and  C_18
REMARK    6  A    between atoms: C_18  and  O_19
REMARK                            x       y       z     vdW  Elec       q    Type
REMARK                         _______ _______ _______ _____ _____    ______ ____
ROOT
ATOM      1  C   UNL     1       7.715   7.214  18.075  0.00  0.00    +0.000 C 
ATOM      2  C   UNL     1       7.045   6.140  17.314  0.00  0.00    +0.000 A 
ATOM      3  O   UNL     1       7.397   6.075  15.997  0.00  0.00    +0.000 OA
ATOM      4  C   UNL     1       6.642   5.060  15.475  0.00  0.00    +0.000 A 
ATOM      5  N   UNL     1       5.842   4.496  16.362  0.00  0.00    +0.000 NA
ATOM      6  C   UNL     1       6.118   5.143  17.558  0.00  0.00    +0.000 A 
ENDROOT
BRANCH   4   7
ATOM      7  C   UNL     1       6.750   4.648  14.063  0.00  0.00    +0.000 A 
ATOM      8  C   UNL     1       7.660   5.132  13.094  0.00  0.00    +0.000 A 
ATOM      9  C   UNL     1       7.390   4.428  11.944  0.00  0.00    +0.000 A 
ATOM     10  O   UNL     1       6.371   3.552  12.146  0.00  0.00    +0.000 OA
ATOM     11  C   UNL     1       5.979   3.694  13.443  0.00  0.00    +0.000 A 
ENDBRANCH   4   7
BRANCH   6  12
ATOM     12  C   UNL     1       5.401   4.765  18.826  0.00  0.00    +0.000 C 
BRANCH  12  13
ATOM     13  N   UNL     1       4.085   4.092  18.682  0.00  0.00    +0.000 NA
ATOM     14  C   UNL     1       2.945   4.934  19.053  0.00  0.00    +0.000 C 
ATOM     15  C   UNL     1       2.616   4.571  20.488  0.00  0.00    +0.000 C 
ATOM     16  C   UNL     1       2.906   3.086  20.549  0.00  0.00    +0.000 C 
ATOM     17  C   UNL     1       3.952   2.828  19.455  0.00  0.00    +0.000 C 
BRANCH  17  18
ATOM     18  C   UNL     1       3.482   1.662  18.559  0.00  0.00    +0.000 C 
BRANCH  18  19
ATOM     19  O   UNL     1       2.065   1.526  18.576  0.00  0.00    +0.000 OA
ATOM     20  H   UNL     1       1.885   0.762  18.000  0.00  0.00    +0.000 HD
ENDBRANCH  18  19
ENDBRANCH  17  18
ENDBRANCH  12  13
ENDBRANCH   6  12
TORSDOF 5
ENDMDL
MODEL 2
REMARK VINA RESULT:      -7.1      0.824      1.098
REMARK  Name = 
REMARK  6 active torsions:
REMARK  status: ('A' for Active; 'I' for Inactive)
REMARK    1  A    between atoms: C_1  and  C_2
REMARK    2  A    between atoms: C_4  and  C_5
REMARK    3  A    between atoms: C_11  and  C_12
REMARK    4  A    between atoms: C_12  and  N_13
REMARK    5  A    between atoms: C_17  and  C_18
REMARK    6  A    between atoms: C_18  and  O_19
REMARK                            x       y       z     vdW  Elec       q    Type
REMARK                         _______ _______ _______ _____ _____    ______ ____
ROOT
ATOM      1  C   UNL     1       7.895   6.868  18.377  0.00  0.00    +0.000 C 
ATOM      2  C   UNL     1       7.019   6.032  17.532  0.00  0.00    +0.000 A 
ATOM      3  O   UNL     1       7.478   5.832  16.262  0.00  0.00    +0.000 OA
ATOM      4  C   UNL     1       6.513   5.084  15.646  0.00  0.00    +0.000 A 
ATOM      5  N   UNL     1       5.486   4.810  16.430  0.00  0.00    +0.000 NA
ATOM      6  C   UNL     1       5.810   5.371  17.658  0.00  0.00    +0.000 A 
ENDROOT
BRANCH   4   7
ATOM      7  C   UNL     1       6.646   4.626  14.250  0.00  0.00    +0.000 A 
ATOM      8  C   UNL     1       5.837   3.681  13.576  0.00  0.00    +0.000 A 
ATOM      9  C   UNL     1       6.334   3.612  12.295  0.00  0.00    +0.000 A 
ATOM     10  O   UNL     1       7.396   4.446  12.147  0.00  0.00    +0.000 OA
ATOM     11  C   UNL     1       7.586   5.061  13.348  0.00  0.00    +0.000 A 
ENDBRANCH   4   7
BRANCH   6  12
ATOM     12  C   UNL     1       4.876   5.258  18.831  0.00  0.00    +0.000 C 
BRANCH  12  13
ATOM     13  N   UNL     1       3.594   4.543  18.607  0.00  0.00    +0.000 NA
ATOM     14  C   UNL     1       2.406   5.351  18.899  0.00  0.00    +0.000 C 
ATOM     15  C   UNL     1       1.996   4.983  20.312  0.00  0.00    +0.000 C 
ATOM     16  C   UNL     1       2.327   3.508  20.399  0.00  0.00    +0.000 C 
ATOM     17  C   UNL     1       3.449   3.278  19.377  0.00  0.00    +0.000 C 
BRANCH  17  18
ATOM     18  C   UNL     1       3.075   2.095  18.459  0.00  0.00    +0.000 C 
BRANCH  18  19
ATOM     19  O   UNL     1       4.189   1.238  18.228  0.00  0.00    +0.000 OA
ATOM     20  H   UNL     1       3.828   0.501  17.705  0.00  0.00    +0.000 HD
ENDBRANCH  18  19
ENDBRANCH  17  18
ENDBRANCH  12  13
ENDBRANCH   6  12
TORSDOF 5
ENDMDL
MODEL 3
REMARK VINA RESULT:      -7.0      1.536      2.293
REMARK  Name = 
REMARK  6 active torsions:
REMARK  status: ('A' for Active; 'I' for Inactive)
REMARK    1  A    between atoms: C_1  and  C_2
REMARK    2  A    between atoms: C_4  and  C_5
REMARK    3  A    between atoms: C_11  and  C_12
REMARK    4  A    between atoms: C_12  and  N_13
REMARK    5  A    between atoms: C_17  and  C_18
REMARK    6  A    between atoms: C_18  and  O_19
REMARK                            x       y       z     vdW  Elec       q    Type
REMARK                         _______ _______ _______ _____ _____    ______ ____
ROOT
ATOM      1  C   UNL     1       7.695   7.484  17.907  0.00  0.00    +0.000 C 
ATOM      2  C   UNL     1       7.164   6.268  17.259  0.00  0.00    +0.000 A 
ATOM      3  O   UNL     1       7.381   6.202  15.913  0.00  0.00    +0.000 OA
ATOM      4  C   UNL     1       6.782   5.041  15.510  0.00  0.00    +0.000 A 
ATOM      5  N   UNL     1       6.200   4.385  16.498  0.00  0.00    +0.000 NA
ATOM      6  C   UNL     1       6.472   5.131  17.636  0.00  0.00    +0.000 A 
ENDROOT
BRANCH   4   7
ATOM      7  C   UNL     1       6.816   4.585  14.108  0.00  0.00    +0.000 A 
ATOM      8  C   UNL     1       5.989   3.610  13.502  0.00  0.00    +0.000 A 
ATOM      9  C   UNL     1       6.381   3.556  12.184  0.00  0.00    +0.000 A 
ATOM     10  O   UNL     1       7.396   4.427  11.950  0.00  0.00    +0.000 OA
ATOM     11  C   UNL     1       7.662   5.051  13.131  0.00  0.00    +0.000 A 
ENDBRANCH   4   7
BRANCH   6  12
ATOM     12  C   UNL     1       5.978   4.692  18.986  0.00  0.00    +0.000 C 
BRANCH  12  13
ATOM     13  N   UNL     1       4.531   4.878  19.268  0.00  0.00    +0.000 NA
ATOM     14  C   UNL     1       3.830   3.636  19.607  0.00  0.00    +0.000 C 
ATOM     15  C   UNL     1       3.191   3.160  18.317  0.00  0.00    +0.000 C 
ATOM     16  C   UNL     1       2.800   4.448  17.624  0.00  0.00    +0.000 C 
ATOM     17  C   UNL     1       3.764   5.513  18.163  0.00  0.00    +0.000 C 
BRANCH  17  18
ATOM     18  C   UNL     1       2.959   6.733  18.661  0.00  0.00    +0.000 C 
BRANCH  18  19
ATOM     19  O   UNL     1       2.717   6.664  20.063  0.00  0.00    +0.000 OA
ATOM     20  H   UNL     1       3.217   5.883  20.360  0.00  0.00    +0.000 HD
ENDBRANCH  18  19
ENDBRANCH  17  18
ENDBRANCH  12  13
ENDBRANCH   6  12
TORSDOF 5
ENDMDL
MODEL 4
REMARK VINA RESULT:      -7.0      0.993      1.040
REMARK  Name = 
REMARK  6 active torsions:
REMARK  status: ('A' for Active; 'I' for Inactive)
REMARK    1  A    between atoms: C_1  and  C_2
REMARK    2  A    between atoms: C_4  and  C_5
REMARK    3  A    between atoms: C_11  and  C_12
REMARK    4  A    between atoms: C_12  and  N_13
REMARK    5  A    between atoms: C_17  and  C_18
REMARK    6  A    between atoms: C_18  and  O_19
REMARK                            x       y       z     vdW  Elec       q    Type
REMARK                         _______ _______ _______ _____ _____    ______ ____
ROOT
ATOM      1  C   UNL     1       7.837   5.811  19.063  0.00  0.00    +0.000 C 
ATOM      2  C   UNL     1       6.982   5.165  18.047  0.00  0.00    +0.000 A 
ATOM      3  O   UNL     1       7.459   5.245  16.771  0.00  0.00    +0.000 OA
ATOM      4  C   UNL     1       6.511   4.634  15.996  0.00  0.00    +0.000 A 
ATOM      5  N   UNL     1       5.478   4.190  16.689  0.00  0.00    +0.000 NA
ATOM      6  C   UNL     1       5.781   4.480  18.012  0.00  0.00    +0.000 A 
ENDROOT
BRANCH   4   7
ATOM      7  C   UNL     1       6.667   4.485  14.537  0.00  0.00    +0.000 A 
ATOM      8  C   UNL     1       7.612   5.130  13.704  0.00  0.00    +0.000 A 
ATOM      9  C   UNL     1       7.381   4.649  12.436  0.00  0.00    +0.000 A 
ATOM     10  O   UNL     1       6.353   3.761  12.441  0.00  0.00    +0.000 OA
ATOM     11  C   UNL     1       5.916   3.667  13.728  0.00  0.00    +0.000 A 
ENDBRANCH   4   7
BRANCH   6  12
ATOM     12  C   UNL     1       4.834   4.111  19.121  0.00  0.00    +0.000 C 
BRANCH  12  13
ATOM     13  N   UNL     1       3.386   4.091  18.794  0.00  0.00    +0.000 NA
ATOM     14  C   UNL     1       2.752   5.412  18.834  0.00  0.00    +0.000 C 
ATOM     15  C   UNL     1       2.115   5.521  20.206  0.00  0.00    +0.000 C 
ATOM     16  C   UNL     1       1.649   4.109  20.488  0.00  0.00    +0.000 C 
ATOM     17  C   UNL     1       2.570   3.200  19.661  0.00  0.00    +0.000 C 
BRANCH  17  18
ATOM     18  C   UNL     1       1.714   2.224  18.825  0.00  0.00    +0.000 C 
BRANCH  18  19
ATOM     19  O   UNL     1       2.420   1.759  17.678  0.00  0.00    +0.000 OA
ATOM     20  H   UNL     1       2.802   2.563  17.283  0.00  0.00    +0.000 HD
ENDBRANCH  18  19
ENDBRANCH  17  18
ENDBRANCH  12  13
ENDBRANCH   6  12
TORSDOF 5
ENDMDL
MODEL 5
REMARK VINA RESULT:      -6.9      1.574      1.999
REMARK  Name = 
REMARK  6 active torsions:
REMARK  status: ('A' for Active; 'I' for Inactive)
REMARK    1  A    between atoms: C_1  and  C_2
REMARK    2  A    between atoms: C_4  and  C_5
REMARK    3  A    between atoms: C_11  and  C_12
REMARK    4  A    between atoms: C_12  and  N_13
REMARK    5  A    between atoms: C_17  and  C_18
REMARK    6  A    between atoms: C_18  and  O_19
REMARK                            x       y       z     vdW  Elec       q    Type
REMARK                         _______ _______ _______ _____ _____    ______ ____
ROOT
ATOM      1  C   UNL     1       6.230   5.178  19.081  0.00  0.00    +0.000 C 
ATOM      2  C   UNL     1       5.622   4.828  17.781  0.00  0.00    +0.000 A 
ATOM      3  O   UNL     1       6.493   4.822  16.731  0.00  0.00    +0.000 OA
ATOM      4  C   UNL     1       5.731   4.522  15.636  0.00  0.00    +0.000 A 
ATOM      5  N   UNL     1       4.452   4.352  15.921  0.00  0.00    +0.000 NA
ATOM      6  C   UNL     1       4.368   4.499  17.299  0.00  0.00    +0.000 A 
ENDROOT
BRANCH   4   7
ATOM      7  C   UNL     1       6.312   4.391  14.286  0.00  0.00    +0.000 A 
ATOM      8  C   UNL     1       5.864   3.554  13.237  0.00  0.00    +0.000 A 
ATOM      9  C   UNL     1       6.704   3.803  12.177  0.00  0.00    +0.000 A 
ATOM     10  O   UNL     1       7.638   4.731  12.514  0.00  0.00    +0.000 OA
ATOM     11  C   UNL     1       7.397   5.083  13.807  0.00  0.00    +0.000 A 
ENDBRANCH   4   7
BRANCH   6  12
ATOM     12  C   UNL     1       3.051   4.361  18.013  0.00  0.00    +0.000 C 
BRANCH  12  13
ATOM     13  N   UNL     1       2.846   3.130  18.818  0.00  0.00    +0.000 NA
ATOM     14  C   UNL     1       1.476   2.612  18.770  0.00  0.00    +0.000 C 
ATOM     15  C   UNL     1       0.787   3.154  20.008  0.00  0.00    +0.000 C 
ATOM     16  C   UNL     1       1.888   3.155  21.047  0.00  0.00    +0.000 C 
ATOM     17  C   UNL     1       3.199   3.269  20.257  0.00  0.00    +0.000 C 
BRANCH  17  18
ATOM     18  C   UNL     1       4.172   2.159  20.711  0.00  0.00    +0.000 C 
BRANCH  18  19
ATOM     19  O   UNL     1       5.110   1.834  19.690  0.00  0.00    +0.000 OA
ATOM     20  H   UNL     1       5.576   1.048  20.025  0.00  0.00    +0.000 HD
ENDBRANCH  18  19
ENDBRANCH  17  18
ENDBRANCH  12  13
ENDBRANCH   6  12
TORSDOF 5
ENDMDL
MODEL 6
REMARK VINA RESULT:      -6.9      1.513      1.754
REMARK  Name = 
REMARK  6 active torsions:
REMARK  status: ('A' for Active; 'I' for Inactive)
REMARK    1  A    between atoms: C_1  and  C_2
REMARK    2  A    between atoms: C_4  and  C_5
REMARK    3  A    between atoms: C_11  and  C_12
REMARK    4  A    between atoms: C_12  and  N_13
REMARK    5  A    between atoms: C_17  and  C_18
REMARK    6  A    between atoms: C_18  and  O_19
REMARK                            x       y       z     vdW  Elec       q    Type
REMARK                         _______ _______ _______ _____ _____    ______ ____
ROOT
ATOM      1  C   UNL     1       8.029   5.695  19.193  0.00  0.00    +0.000 C 
ATOM      2  C   UNL     1       6.995   5.319  18.209  0.00  0.00    +0.000 A 
ATOM      3  O   UNL     1       7.467   5.088  16.950  0.00  0.00    +0.000 OA
ATOM      4  C   UNL     1       6.361   4.805  16.198  0.00  0.00    +0.000 A 
ATOM      5  N   UNL     1       5.236   4.851  16.889  0.00  0.00    +0.000 NA
ATOM      6  C   UNL     1       5.624   5.135  18.191  0.00  0.00    +0.000 A 
ENDROOT
BRANCH   4   7
ATOM      7  C   UNL     1       6.450   4.465  14.766  0.00  0.00    +0.000 A 
ATOM      8  C   UNL     1       5.638   3.556  14.047  0.00  0.00    +0.000 A 
ATOM      9  C   UNL     1       6.086   3.604  12.747  0.00  0.00    +0.000 A 
ATOM     10  O   UNL     1       7.121   4.476  12.629  0.00  0.00    +0.000 OA
ATOM     11  C   UNL     1       7.343   4.996  13.868  0.00  0.00    +0.000 A 
ENDBRANCH   4   7
BRANCH   6  12
ATOM     12  C   UNL     1       4.607   5.259  19.292  0.00  0.00    +0.000 C 
BRANCH  12  13
ATOM     13  N   UNL     1       3.186   5.408  18.885  0.00  0.00    +0.000 NA
ATOM     14  C   UNL     1       2.480   6.485  19.585  0.00  0.00    +0.000 C 
ATOM     15  C   UNL     1       1.749   5.819  20.735  0.00  0.00    +0.000 C 
ATOM     16  C   UNL     1       1.343   4.479  20.160  0.00  0.00    +0.000 C 
ATOM     17  C   UNL     1       2.364   4.180  19.054  0.00  0.00    +0.000 C 
BRANCH  17  18
ATOM     18  C   UNL     1       1.620   3.814  17.751  0.00  0.00    +0.000 C 
BRANCH  18  19
ATOM     19  O   UNL     1       2.488   3.191  16.809  0.00  0.00    +0.000 OA
ATOM     20  H   UNL     1       2.585   2.277  17.132  0.00  0.00    +0.000 HD
ENDBRANCH  18  19
ENDBRANCH  17  18
ENDBRANCH  12  13
ENDBRANCH   6  12
TORSDOF 5
ENDMDL
MODEL 7
REMARK VINA RESULT:      -6.8      1.213      1.618
REMARK  Name = 
REMARK  6 active torsions:
REMARK  status: ('A' for Active; 'I' for Inactive)
REMARK    1  A    between atoms: C_1  and  C_2
REMARK    2  A    between atoms: C_4  and  C_5
REMARK    3  A    between atoms: C_11  and  C_12
REMARK    4  A    between atoms: C_12  and  N_13
REMARK    5  A    between atoms: C_17  and  C_18
REMARK    6  A    between atoms: C_18  and  O_19
REMARK                            x       y       z     vdW  Elec       q    Type
REMARK                         _______ _______ _______ _____ _____    ______ ____
ROOT
ATOM      1  C   UNL     1       7.819   7.082  18.196  0.00  0.00    +0.000 C 
ATOM      2  C   UNL     1       7.115   6.024  17.445  0.00  0.00    +0.000 A 
ATOM      3  O   UNL     1       7.441   5.954  16.122  0.00  0.00    +0.000 OA
ATOM      4  C   UNL     1       6.657   4.956  15.612  0.00  0.00    +0.000 A 
ATOM      5  N   UNL     1       5.863   4.406  16.513  0.00  0.00    +0.000 NA
ATOM      6  C   UNL     1       6.172   5.045  17.705  0.00  0.00    +0.000 A 
ENDROOT
BRANCH   4   7
ATOM      7  C   UNL     1       6.731   4.544  14.198  0.00  0.00    +0.000 A 
ATOM      8  C   UNL     1       5.913   3.599  13.535  0.00  0.00    +0.000 A 
ATOM      9  C   UNL     1       6.346   3.582  12.229  0.00  0.00    +0.000 A 
ATOM     10  O   UNL     1       7.378   4.448  12.055  0.00  0.00    +0.000 OA
ATOM     11  C   UNL     1       7.613   5.031  13.264  0.00  0.00    +0.000 A 
ENDBRANCH   4   7
BRANCH   6  12
ATOM     12  C   UNL     1       5.471   4.679  18.984  0.00  0.00    +0.000 C 
BRANCH  12  13
ATOM     13  N   UNL     1       4.030   4.332  18.889  0.00  0.00    +0.000 NA
ATOM     14  C   UNL     1       3.278   5.177  17.957  0.00  0.00    +0.000 C 
ATOM     15  C   UNL     1       2.635   6.255  18.807  0.00  0.00    +0.000 C 
ATOM     16  C   UNL     1       2.300   5.532  20.094  0.00  0.00    +0.000 C 
ATOM     17  C   UNL     1       3.300   4.370  20.184  0.00  0.00    +0.000 C 
BRANCH  17  18
ATOM     18  C   UNL     1       2.536   3.053  20.443  0.00  0.00    +0.000 C 
BRANCH  18  19
ATOM     19  O   UNL     1       2.480   2.745  21.833  0.00  0.00    +0.000 OA
ATOM     20  H   UNL     1       3.391   2.877  22.150  0.00  0.00    +0.000 HD
ENDBRANCH  18  19
ENDBRANCH  17  18
ENDBRANCH  12  13
ENDBRANCH   6  12
TORSDOF 5
ENDMDL
MODEL 8
REMARK VINA RESULT:      -6.7      1.274      1.968
REMARK  Name = 
REMARK  6 active torsions:
REMARK  status: ('A' for Active; 'I' for Inactive)
REMARK    1  A    between atoms: C_1  and  C_2
REMARK    2  A    between atoms: C_4  and  C_5
REMARK    3  A    between atoms: C_11  and  C_12
REMARK    4  A    between atoms: C_12  and  N_13
REMARK    5  A    between atoms: C_17  and  C_18
REMARK    6  A    between atoms: C_18  and  O_19
REMARK                            x       y       z     vdW  Elec       q    Type
REMARK                         _______ _______ _______ _____ _____    ______ ____
ROOT
ATOM      1  C   UNL     1       7.551   5.917  18.871  0.00  0.00    +0.000 C 
ATOM      2  C   UNL     1       6.644   5.499  17.783  0.00  0.00    +0.000 A 
ATOM      3  O   UNL     1       7.263   5.244  16.594  0.00  0.00    +0.000 OA
ATOM      4  C   UNL     1       6.256   4.921  15.728  0.00  0.00    +0.000 A 
ATOM      5  N   UNL     1       5.057   4.965  16.282  0.00  0.00    +0.000 NA
ATOM      6  C   UNL     1       5.287   5.290  17.612  0.00  0.00    +0.000 A 
ENDROOT
BRANCH   4   7
ATOM      7  C   UNL     1       6.516   4.547  14.325  0.00  0.00    +0.000 A 
ATOM      8  C   UNL     1       5.789   3.627  13.533  0.00  0.00    +0.000 A 
ATOM      9  C   UNL     1       6.392   3.640  12.297  0.00  0.00    +0.000 A 
ATOM     10  O   UNL     1       7.443   4.501  12.287  0.00  0.00    +0.000 OA
ATOM     11  C   UNL     1       7.517   5.050  13.531  0.00  0.00    +0.000 A 
ENDBRANCH   4   7
BRANCH   6  12
ATOM     12  C   UNL     1       4.147   5.424  18.584  0.00  0.00    +0.000 C 
BRANCH  12  13
ATOM     13  N   UNL     1       3.956   4.317  19.556  0.00  0.00    +0.000 NA
ATOM     14  C   UNL     1       4.578   3.055  19.146  0.00  0.00    +0.000 C 
ATOM     15  C   UNL     1       3.475   2.246  18.493  0.00  0.00    +0.000 C 
ATOM     16  C   UNL     1       2.248   2.614  19.298  0.00  0.00    +0.000 C 
ATOM     17  C   UNL     1       2.535   4.010  19.868  0.00  0.00    +0.000 C 
BRANCH  17  18
ATOM     18  C   UNL     1       2.277   4.007  21.391  0.00  0.00    +0.000 C 
BRANCH  18  19
ATOM     19  O   UNL     1       2.636   2.761  21.980  0.00  0.00    +0.000 OA
ATOM     20  H   UNL     1       1.856   2.503  22.503  0.00  0.00    +0.000 HD
ENDBRANCH  18  19
ENDBRANCH  17  18
ENDBRANCH  12  13
ENDBRANCH   6  12
TORSDOF 5
ENDMDL
MODEL 9
REMARK VINA RESULT:      -6.7      1.425      2.112
REMARK  Name = 
REMARK  6 active torsions:
REMARK  status: ('A' for Active; 'I' for Inactive)
REMARK    1  A    between atoms: C_1  and  C_2
REMARK    2  A    between atoms: C_4  and  C_5
REMARK    3  A    between atoms: C_11  and  C_12
REMARK    4  A    between atoms: C_12  and  N_13
REMARK    5  A    between atoms: C_17  and  C_18
REMARK    6  A    between atoms: C_18  and  O_19
REMARK                            x       y       z     vdW  Elec       q    Type
REMARK                         _______ _______ _______ _____ _____    ______ ____
ROOT
ATOM      1  C   UNL     1       7.751   6.667  18.237  0.00  0.00    +0.000 C 
ATOM      2  C   UNL     1       6.811   6.147  17.224  0.00  0.00    +0.000 A 
ATOM      3  O   UNL     1       7.404   5.670  16.092  0.00  0.00    +0.000 OA
ATOM      4  C   UNL     1       6.372   5.286  15.281  0.00  0.00    +0.000 A 
ATOM      5  N   UNL     1       5.183   5.496  15.817  0.00  0.00    +0.000 NA
ATOM      6  C   UNL     1       5.442   6.006  17.081  0.00  0.00    +0.000 A 
ENDROOT
BRANCH   4   7
ATOM      7  C   UNL     1       6.598   4.683  13.954  0.00  0.00    +0.000 A 
ATOM      8  C   UNL     1       5.877   3.619  13.361  0.00  0.00    +0.000 A 
ATOM      9  C   UNL     1       6.438   3.436  12.118  0.00  0.00    +0.000 A 
ATOM     10  O   UNL     1       7.457   4.312  11.919  0.00  0.00    +0.000 OA
ATOM     11  C   UNL     1       7.554   5.070  13.047  0.00  0.00    +0.000 A 
ENDBRANCH   4   7
BRANCH   6  12
ATOM     12  C   UNL     1       4.320   6.364  18.016  0.00  0.00    +0.000 C 
BRANCH  12  13
ATOM     13  N   UNL     1       3.733   5.262  18.820  0.00  0.00    +0.000 NA
ATOM     14  C   UNL     1       4.004   3.927  18.281  0.00  0.00    +0.000 C 
ATOM     15  C   UNL     1       2.780   3.556  17.466  0.00  0.00    +0.000 C 
ATOM     16  C   UNL     1       1.641   4.177  18.245  0.00  0.00    +0.000 C 
ATOM     17  C   UNL     1       2.261   5.354  19.011  0.00  0.00    +0.000 C 
BRANCH  17  18
ATOM     18  C   UNL     1       1.875   5.257  20.503  0.00  0.00    +0.000 C 
BRANCH  18  19
ATOM     19  O   UNL     1       1.455   3.942  20.851  0.00  0.00    +0.000 OA
ATOM     20  H   UNL     1       2.244   3.528  21.244  0.00  0.00    +0.000 HD
ENDBRANCH  18  19
ENDBRANCH  17  18
ENDBRANCH  12  13
ENDBRANCH   6  12
TORSDOF 5
ENDMDL
