MODEL 1
REMARK VINA RESULT:      -7.9      0.000      0.000
REMARK  Name = 
REMARK  11 active torsions:
REMARK  status: ('A' for Active; 'I' for Inactive)
REMARK    1  A    between atoms: C_1  and  O_2
REMARK    2  A    between atoms: O_2  and  C_3
REMARK    3  A    between atoms: C_6  and  C_7
REMARK    4  A    between atoms: C_7  and  C_8
REMARK    5  A    between atoms: C_8  and  N_9
REMARK    6  A    between atoms: C_10  and  C_12
REMARK    7  A    between atoms: N_14  and  C_15
REMARK    8  A    between atoms: C_15  and  C_16
REMARK    9  A    between atoms: C_16  and  C_17
REMARK   10  A    between atoms: C_16  and  N_23
REMARK   11  A    between atoms: N_26  and  C_27
REMARK                            x       y       z     vdW  Elec       q    Type
REMARK                         _______ _______ _______ _____ _____    ______ ____
ROOT
ATOM      1  C   UNL     1       3.360   5.458  17.316  0.00  0.00    +0.000 C 
ENDROOT
BRANCH   1   4
ATOM      2  C   UNL     1       5.542   6.334  16.570  0.00  0.00    +0.000 C 
ATOM      3  O   UNL     1       5.196   6.617  15.429  0.00  0.00    +0.000 OA
ATOM      4  N   UNL     1       4.767   5.701  17.511  0.00  0.00    +0.000 N 
ATOM      5  H   UNL     1       5.139   5.735  18.463  0.00  0.00    +0.000 HD
BRANCH   2   7
ATOM      6  N   UNL     1       7.163   8.092  17.153  0.00  0.00    +0.000 N 
ATOM      7  C   UNL     1       6.944   6.731  17.077  0.00  0.00    +0.000 C 
ATOM      8  O   UNL     1       7.742   5.858  17.385  0.00  0.00    +0.000 OA
ATOM      9  H   UNL     1       6.390   8.704  16.900  0.00  0.00    +0.000 HD
BRANCH   6  10
ATOM     10  C   UNL     1       8.447   8.603  17.577  0.00  0.00    +0.000 C 
BRANCH  10  11
ATOM     11  C   UNL     1       8.443   9.191  18.987  0.00  0.00    +0.000 C 
BRANCH  11  15
ATOM     12  C   UNL     1      11.191  12.523  19.298  0.00  0.00    +0.000 A 
ATOM     13  C   UNL     1      10.857  11.997  18.049  0.00  0.00    +0.000 A 
ATOM     14  C   UNL     1       9.951  10.936  17.943  0.00  0.00    +0.000 A 
ATOM     15  C   UNL     1       9.379  10.373  19.090  0.00  0.00    +0.000 A 
ATOM     16  C   UNL     1       9.733  10.894  20.343  0.00  0.00    +0.000 A 
ATOM     17  C   UNL     1      10.631  11.962  20.443  0.00  0.00    +0.000 A 
BRANCH  12  19
ATOM     18  C   UNL     1      11.655  14.777  19.841  0.00  0.00    +0.000 C 
ATOM     19  O   UNL     1      12.102  13.547  19.281  0.00  0.00    +0.000 OA
ENDBRANCH  12  19
ENDBRANCH  11  15
ENDBRANCH  10  11
ENDBRANCH   6  10
ENDBRANCH   2   7
ENDBRANCH   1   4
BRANCH   1  20
ATOM     20  C   UNL     1       2.409   5.846  18.517  0.00  0.00    +0.000 C 
BRANCH  20  21
ATOM     21  C   UNL     1       2.291   4.627  19.443  0.00  0.00    +0.000 A 
ATOM     22  C   UNL     1       1.111   4.279  20.116  0.00  0.00    +0.000 A 
ATOM     23  C   UNL     1       1.132   3.289  21.101  0.00  0.00    +0.000 A 
ATOM     24  C   UNL     1       2.325   2.637  21.359  0.00  0.00    +0.000 A 
ATOM     25  N   UNL     1       3.464   2.883  20.681  0.00  0.00    +0.000 NA
ATOM     26  C   UNL     1       3.420   3.866  19.749  0.00  0.00    +0.000 A 
ENDBRANCH  20  21
BRANCH  20  27
ATOM     27  N   UNL     1       2.918   7.092  19.162  0.00  0.00    +0.000 NA
ATOM     28  C   UNL     1       2.884   8.258  18.219  0.00  0.00    +0.000 C 
ATOM     29  C   UNL     1       1.483   8.833  17.891  0.00  0.00    +0.000 C 
ATOM     30  N   UNL     1       0.803   9.164  19.142  0.00  0.00    +0.000 N 
ATOM     31  C   UNL     1       0.735   8.077  20.126  0.00  0.00    +0.000 C 
ATOM     32  C   UNL     1       2.161   7.518  20.371  0.00  0.00    +0.000 C 
BRANCH  30  33
ATOM     33  C   UNL     1      -0.097  10.212  19.169  0.00  0.00    +0.000 A 
ATOM     34  C   UNL     1      -0.235  11.056  20.279  0.00  0.00    +0.000 A 
ATOM     35  C   UNL     1      -1.273  11.989  20.362  0.00  0.00    +0.000 A 
ATOM     36  C   UNL     1      -2.198  12.093  19.328  0.00  0.00    +0.000 A 
ATOM     37  C   UNL     1      -2.055  11.295  18.197  0.00  0.00    +0.000 A 
ATOM     38  C   UNL     1      -1.002  10.379  18.113  0.00  0.00    +0.000 A 
ENDBRANCH  30  33
ENDBRANCH  20  27
ENDBRANCH   1  20
TORSDOF 10
ENDMDL
MODEL 2
REMARK VINA RESULT:      -7.8      1.143      1.286
REMARK  Name = 
REMARK  11 active torsions:
REMARK  status: ('A' for Active; 'I' for Inactive)
REMARK    1  A    between atoms: C_1  and  O_2
REMARK    2  A    between atoms: O_2  and  C_3
REMARK    3  A    between atoms: C_6  and  C_7
REMARK    4  A    between atoms: C_7  and  C_8
REMARK    5  A    between atoms: C_8  and  N_9
REMARK    6  A    between atoms: C_10  and  C_12
REMARK    7  A    between atoms: N_14  and  C_15
REMARK    8  A    between atoms: C_15  and  C_16
REMARK    9  A    between atoms: C_16  and  C_17
REMARK   10  A    between atoms: C_16  and  N_23
REMARK   11  A    between atoms: N_26  and  C_27
REMARK                            x       y       z     vdW  Elec       q    Type
REMARK                         _______ _______ _______ _____ _____    ______ ____
ROOT
ATOM      1  C   UNL     1       3.337   5.486  17.505  0.00  0.00    +0.000 C 
ENDROOT
BRANCH   1   4
ATOM      2  C   UNL     1       5.793   5.714  17.543  0.00  0.00    +0.000 C 
ATOM      3  O   UNL     1       6.031   4.581  17.946  0.00  0.00    +0.000 OA
ATOM      4  N   UNL     1       4.544   6.264  17.386  0.00  0.00    +0.000 N 
ATOM      5  H   UNL     1       4.525   7.133  16.847  0.00  0.00    +0.000 HD
BRANCH   2   7
ATOM      6  N   UNL     1       7.086   7.778  17.894  0.00  0.00    +0.000 N 
ATOM      7  C   UNL     1       6.946   6.646  17.117  0.00  0.00    +0.000 C 
ATOM      8  O   UNL     1       7.649   6.336  16.166  0.00  0.00    +0.000 OA
ATOM      9  H   UNL     1       6.451   7.886  18.681  0.00  0.00    +0.000 HD
BRANCH   6  10
ATOM     10  C   UNL     1       8.104   8.757  17.582  0.00  0.00    +0.000 C 
BRANCH  10  11
ATOM     11  C   UNL     1       8.902   9.226  18.797  0.00  0.00    +0.000 C 
BRANCH  11  15
ATOM     12  C   UNL     1      10.051  13.381  18.383  0.00  0.00    +0.000 A 
ATOM     13  C   UNL     1       8.969  12.872  17.663  0.00  0.00    +0.000 A 
ATOM     14  C   UNL     1       8.580  11.536  17.812  0.00  0.00    +0.000 A 
ATOM     15  C   UNL     1       9.282  10.683  18.673  0.00  0.00    +0.000 A 
ATOM     16  C   UNL     1      10.379  11.197  19.380  0.00  0.00    +0.000 A 
ATOM     17  C   UNL     1      10.758  12.535  19.235  0.00  0.00    +0.000 A 
BRANCH  12  19
ATOM     18  C   UNL     1      11.341  14.927  17.145  0.00  0.00    +0.000 C 
ATOM     19  O   UNL     1      10.352  14.695  18.142  0.00  0.00    +0.000 OA
ENDBRANCH  12  19
ENDBRANCH  11  15
ENDBRANCH  10  11
ENDBRANCH   6  10
ENDBRANCH   2   7
ENDBRANCH   1   4
BRANCH   1  20
ATOM     20  C   UNL     1       2.252   6.026  18.519  0.00  0.00    +0.000 C 
BRANCH  20  21
ATOM     21  C   UNL     1       1.897   4.887  19.486  0.00  0.00    +0.000 A 
ATOM     22  C   UNL     1       2.295   4.862  20.830  0.00  0.00    +0.000 A 
ATOM     23  C   UNL     1       2.121   3.704  21.591  0.00  0.00    +0.000 A 
ATOM     24  C   UNL     1       1.512   2.610  21.003  0.00  0.00    +0.000 A 
ATOM     25  N   UNL     1       1.041   2.617  19.739  0.00  0.00    +0.000 NA
ATOM     26  C   UNL     1       1.246   3.745  19.016  0.00  0.00    +0.000 A 
ENDBRANCH  20  21
BRANCH  20  27
ATOM     27  N   UNL     1       2.759   7.274  19.160  0.00  0.00    +0.000 NA
ATOM     28  C   UNL     1       2.703   8.442  18.221  0.00  0.00    +0.000 C 
ATOM     29  C   UNL     1       1.292   9.006  17.914  0.00  0.00    +0.000 C 
ATOM     30  N   UNL     1       0.628   9.328  19.175  0.00  0.00    +0.000 N 
ATOM     31  C   UNL     1       0.582   8.239  20.158  0.00  0.00    +0.000 C 
ATOM     32  C   UNL     1       2.016   7.691  20.381  0.00  0.00    +0.000 C 
BRANCH  30  33
ATOM     33  C   UNL     1      -0.281  10.369  19.218  0.00  0.00    +0.000 A 
ATOM     34  C   UNL     1      -0.415  11.205  20.335  0.00  0.00    +0.000 A 
ATOM     35  C   UNL     1      -1.460  12.128  20.434  0.00  0.00    +0.000 A 
ATOM     36  C   UNL     1      -2.396  12.231  19.409  0.00  0.00    +0.000 A 
ATOM     37  C   UNL     1      -2.257  11.443  18.271  0.00  0.00    +0.000 A 
ATOM     38  C   UNL     1      -1.197  10.535  18.171  0.00  0.00    +0.000 A 
ENDBRANCH  30  33
ENDBRANCH  20  27
ENDBRANCH   1  20
TORSDOF 10
ENDMDL
MODEL 3
REMARK VINA RESULT:      -7.7      4.021      7.804
REMARK  Name = 
REMARK  11 active torsions:
REMARK  status: ('A' for Active; 'I' for Inactive)
REMARK    1  A    between atoms: C_1  and  O_2
REMARK    2  A    between atoms: O_2  and  C_3
REMARK    3  A    between atoms: C_6  and  C_7
REMARK    4  A    between atoms: C_7  and  C_8
REMARK    5  A    between atoms: C_8  and  N_9
REMARK    6  A    between atoms: C_10  and  C_12
REMARK    7  A    between atoms: N_14  and  C_15
REMARK    8  A    between atoms: C_15  and  C_16
REMARK    9  A    between atoms: C_16  and  C_17
REMARK   10  A    between atoms: C_16  and  N_23
REMARK   11  A    between atoms: N_26  and  C_27
REMARK                            x       y       z     vdW  Elec       q    Type
REMARK                         _______ _______ _______ _____ _____    ______ ____
ROOT
ATOM      1  C   UNL     1      -0.254  10.122  20.006  0.00  0.00    +0.000 C 
ENDROOT
BRANCH   1   4
ATOM      2  C   UNL     1       1.426   8.337  20.289  0.00  0.00    +0.000 C 
ATOM      3  O   UNL     1       1.387   8.303  21.513  0.00  0.00    +0.000 OA
ATOM      4  N   UNL     1       0.748   9.225  19.489  0.00  0.00    +0.000 N 
ATOM      5  H   UNL     1       0.730   8.978  18.497  0.00  0.00    +0.000 HD
BRANCH   2   7
ATOM      6  N   UNL     1       2.509   6.129  20.201  0.00  0.00    +0.000 N 
ATOM      7  C   UNL     1       2.253   7.295  19.508  0.00  0.00    +0.000 C 
ATOM      8  O   UNL     1       2.607   7.543  18.364  0.00  0.00    +0.000 OA
ATOM      9  H   UNL     1       2.116   6.046  21.136  0.00  0.00    +0.000 HD
BRANCH   6  10
ATOM     10  C   UNL     1       3.306   5.083  19.601  0.00  0.00    +0.000 C 
BRANCH  10  11
ATOM     11  C   UNL     1       4.802   5.394  19.558  0.00  0.00    +0.000 C 
BRANCH  11  15
ATOM     12  C   UNL     1       6.306   5.165  15.504  0.00  0.00    +0.000 A 
ATOM     13  C   UNL     1       7.063   5.775  16.505  0.00  0.00    +0.000 A 
ATOM     14  C   UNL     1       6.591   5.831  17.821  0.00  0.00    +0.000 A 
ATOM     15  C   UNL     1       5.342   5.289  18.151  0.00  0.00    +0.000 A 
ATOM     16  C   UNL     1       4.579   4.693  17.137  0.00  0.00    +0.000 A 
ATOM     17  C   UNL     1       5.059   4.632  15.825  0.00  0.00    +0.000 A 
BRANCH  12  19
ATOM     18  C   UNL     1       6.581   4.056  13.435  0.00  0.00    +0.000 C 
ATOM     19  O   UNL     1       6.859   5.188  14.251  0.00  0.00    +0.000 OA
ENDBRANCH  12  19
ENDBRANCH  11  15
ENDBRANCH  10  11
ENDBRANCH   6  10
ENDBRANCH   2   7
ENDBRANCH   1   4
BRANCH   1  20
ATOM     20  C   UNL     1      -0.586  11.388  19.121  0.00  0.00    +0.000 C 
BRANCH  20  21
ATOM     21  C   UNL     1      -1.878  11.099  18.343  0.00  0.00    +0.000 A 
ATOM     22  C   UNL     1      -1.921  10.318  17.180  0.00  0.00    +0.000 A 
ATOM     23  C   UNL     1      -3.086  10.272  16.410  0.00  0.00    +0.000 A 
ATOM     24  C   UNL     1      -4.196  10.975  16.845  0.00  0.00    +0.000 A 
ATOM     25  N   UNL     1      -4.224  11.673  17.998  0.00  0.00    +0.000 NA
ATOM     26  C   UNL     1      -3.073  11.721  18.712  0.00  0.00    +0.000 A 
ENDBRANCH  20  21
BRANCH  20  27
ATOM     27  N   UNL     1      -0.622  12.599  19.993  0.00  0.00    +0.000 NA
ATOM     28  C   UNL     1       0.508  12.605  20.979  0.00  0.00    +0.000 C 
ATOM     29  C   UNL     1       1.919  12.890  20.403  0.00  0.00    +0.000 C 
ATOM     30  N   UNL     1       1.879  14.147  19.658  0.00  0.00    +0.000 N 
ATOM     31  C   UNL     1       0.836  14.235  18.629  0.00  0.00    +0.000 C 
ATOM     32  C   UNL     1      -0.538  13.892  19.262  0.00  0.00    +0.000 C 
BRANCH  30  33
ATOM     33  C   UNL     1       3.011  14.938  19.599  0.00  0.00    +0.000 A 
ATOM     34  C   UNL     1       3.187  16.061  20.418  0.00  0.00    +0.000 A 
ATOM     35  C   UNL     1       4.246  16.952  20.218  0.00  0.00    +0.000 A 
ATOM     36  C   UNL     1       5.153  16.732  19.185  0.00  0.00    +0.000 A 
ATOM     37  C   UNL     1       5.023  15.599  18.387  0.00  0.00    +0.000 A 
ATOM     38  C   UNL     1       3.972  14.703  18.607  0.00  0.00    +0.000 A 
ENDBRANCH  30  33
ENDBRANCH  20  27
ENDBRANCH   1  20
TORSDOF 10
ENDMDL
MODEL 4
REMARK VINA RESULT:      -7.7      0.998      1.143
REMARK  Name = 
REMARK  11 active torsions:
REMARK  status: ('A' for Active; 'I' for Inactive)
REMARK    1  A    between atoms: C_1  and  O_2
REMARK    2  A    between atoms: O_2  and  C_3
REMARK    3  A    between atoms: C_6  and  C_7
REMARK    4  A    between atoms: C_7  and  C_8
REMARK    5  A    between atoms: C_8  and  N_9
REMARK    6  A    between atoms: C_10  and  C_12
REMARK    7  A    between atoms: N_14  and  C_15
REMARK    8  A    between atoms: C_15  and  C_16
REMARK    9  A    between atoms: C_16  and  C_17
REMARK   10  A    between atoms: C_16  and  N_23
REMARK   11  A    between atoms: N_26  and  C_27
REMARK                            x       y       z     vdW  Elec       q    Type
REMARK                         _______ _______ _______ _____ _____    ______ ____
ROOT
ATOM      1  C   UNL     1       3.434   5.342  17.395  0.00  0.00    +0.000 C 
ENDROOT
BRANCH   1   4
ATOM      2  C   UNL     1       5.635   6.258  16.761  0.00  0.00    +0.000 C 
ATOM      3  O   UNL     1       5.361   6.478  15.587  0.00  0.00    +0.000 OA
ATOM      4  N   UNL     1       4.815   5.642  17.675  0.00  0.00    +0.000 N 
ATOM      5  H   UNL     1       5.118   5.730  18.648  0.00  0.00    +0.000 HD
BRANCH   2   7
ATOM      6  N   UNL     1       7.071   8.084  17.572  0.00  0.00    +0.000 N 
ATOM      7  C   UNL     1       6.984   6.726  17.345  0.00  0.00    +0.000 C 
ATOM      8  O   UNL     1       7.857   5.902  17.577  0.00  0.00    +0.000 OA
ATOM      9  H   UNL     1       6.248   8.646  17.368  0.00  0.00    +0.000 HD
BRANCH   6  10
ATOM     10  C   UNL     1       8.294   8.663  18.083  0.00  0.00    +0.000 C 
BRANCH  10  11
ATOM     11  C   UNL     1       8.642  10.016  17.464  0.00  0.00    +0.000 C 
BRANCH  11  15
ATOM     12  C   UNL     1       9.826  12.885  20.484  0.00  0.00    +0.000 A 
ATOM     13  C   UNL     1       9.390  13.318  19.231  0.00  0.00    +0.000 A 
ATOM     14  C   UNL     1       8.984  12.395  18.260  0.00  0.00    +0.000 A 
ATOM     15  C   UNL     1       9.026  11.021  18.526  0.00  0.00    +0.000 A 
ATOM     16  C   UNL     1       9.482  10.592  19.780  0.00  0.00    +0.000 A 
ATOM     17  C   UNL     1       9.877  11.519  20.750  0.00  0.00    +0.000 A 
BRANCH  12  19
ATOM     18  C   UNL     1      10.938  14.953  20.758  0.00  0.00    +0.000 C 
ATOM     19  O   UNL     1      10.217  13.876  21.345  0.00  0.00    +0.000 OA
ENDBRANCH  12  19
ENDBRANCH  11  15
ENDBRANCH  10  11
ENDBRANCH   6  10
ENDBRANCH   2   7
ENDBRANCH   1   4
BRANCH   1  20
ATOM     20  C   UNL     1       2.367   5.980  18.370  0.00  0.00    +0.000 C 
BRANCH  20  21
ATOM     21  C   UNL     1       1.966   4.915  19.400  0.00  0.00    +0.000 A 
ATOM     22  C   UNL     1       2.524   4.832  20.683  0.00  0.00    +0.000 A 
ATOM     23  C   UNL     1       2.270   3.719  21.487  0.00  0.00    +0.000 A 
ATOM     24  C   UNL     1       1.427   2.732  21.006  0.00  0.00    +0.000 A 
ATOM     25  N   UNL     1       0.805   2.809  19.812  0.00  0.00    +0.000 NA
ATOM     26  C   UNL     1       1.089   3.888  19.043  0.00  0.00    +0.000 A 
ENDBRANCH  20  21
BRANCH  20  27
ATOM     27  N   UNL     1       2.918   7.245  18.939  0.00  0.00    +0.000 NA
ATOM     28  C   UNL     1       2.812   8.382  17.968  0.00  0.00    +0.000 C 
ATOM     29  C   UNL     1       1.389   8.947  17.727  0.00  0.00    +0.000 C 
ATOM     30  N   UNL     1       0.802   9.314  19.015  0.00  0.00    +0.000 N 
ATOM     31  C   UNL     1       0.810   8.257  20.032  0.00  0.00    +0.000 C 
ATOM     32  C   UNL     1       2.251   7.705  20.188  0.00  0.00    +0.000 C 
BRANCH  30  33
ATOM     33  C   UNL     1      -0.097  10.362  19.078  0.00  0.00    +0.000 A 
ATOM     34  C   UNL     1      -0.083  11.302  20.117  0.00  0.00    +0.000 A 
ATOM     35  C   UNL     1      -1.109  12.241  20.265  0.00  0.00    +0.000 A 
ATOM     36  C   UNL     1      -2.174  12.253  19.369  0.00  0.00    +0.000 A 
ATOM     37  C   UNL     1      -2.185  11.357  18.304  0.00  0.00    +0.000 A 
ATOM     38  C   UNL     1      -1.145  10.435  18.152  0.00  0.00    +0.000 A 
ENDBRANCH  30  33
ENDBRANCH  20  27
ENDBRANCH   1  20
TORSDOF 10
ENDMDL
MODEL 5
REMARK VINA RESULT:      -7.6      4.466      8.162
REMARK  Name = 
REMARK  11 active torsions:
REMARK  status: ('A' for Active; 'I' for Inactive)
REMARK    1  A    between atoms: C_1  and  O_2
REMARK    2  A    between atoms: O_2  and  C_3
REMARK    3  A    between atoms: C_6  and  C_7
REMARK    4  A    between atoms: C_7  and  C_8
REMARK    5  A    between atoms: C_8  and  N_9
REMARK    6  A    between atoms: C_10  and  C_12
REMARK    7  A    between atoms: N_14  and  C_15
REMARK    8  A    between atoms: C_15  and  C_16
REMARK    9  A    between atoms: C_16  and  C_17
REMARK   10  A    between atoms: C_16  and  N_23
REMARK   11  A    between atoms: N_26  and  C_27
REMARK                            x       y       z     vdW  Elec       q    Type
REMARK                         _______ _______ _______ _____ _____    ______ ____
ROOT
ATOM      1  C   UNL     1      -0.642  10.317  21.335  0.00  0.00    +0.000 C 
ENDROOT
BRANCH   1   4
ATOM      2  C   UNL     1       1.260   8.804  20.915  0.00  0.00    +0.000 C 
ATOM      3  O   UNL     1       1.681   8.787  22.066  0.00  0.00    +0.000 OA
ATOM      4  N   UNL     1       0.216   9.568  20.453  0.00  0.00    +0.000 N 
ATOM      5  H   UNL     1      -0.130   9.303  19.528  0.00  0.00    +0.000 HD
BRANCH   2   7
ATOM      6  N   UNL     1       2.066   6.574  20.255  0.00  0.00    +0.000 N 
ATOM      7  C   UNL     1       1.881   7.880  19.847  0.00  0.00    +0.000 C 
ATOM      8  O   UNL     1       2.149   8.332  18.743  0.00  0.00    +0.000 OA
ATOM      9  H   UNL     1       1.759   6.330  21.194  0.00  0.00    +0.000 HD
BRANCH   6  10
ATOM     10  C   UNL     1       2.675   5.610  19.366  0.00  0.00    +0.000 C 
BRANCH  10  11
ATOM     11  C   UNL     1       4.185   5.466  19.551  0.00  0.00    +0.000 C 
BRANCH  11  15
ATOM     12  C   UNL     1       6.137   5.123  15.702  0.00  0.00    +0.000 A 
ATOM     13  C   UNL     1       6.443   6.183  16.557  0.00  0.00    +0.000 A 
ATOM     14  C   UNL     1       5.831   6.284  17.811  0.00  0.00    +0.000 A 
ATOM     15  C   UNL     1       4.890   5.333  18.222  0.00  0.00    +0.000 A 
ATOM     16  C   UNL     1       4.574   4.280  17.350  0.00  0.00    +0.000 A 
ATOM     17  C   UNL     1       5.195   4.178  16.101  0.00  0.00    +0.000 A 
BRANCH  12  19
ATOM     18  C   UNL     1       6.439   4.082  13.601  0.00  0.00    +0.000 C 
ATOM     19  O   UNL     1       6.781   5.137  14.492  0.00  0.00    +0.000 OA
ENDBRANCH  12  19
ENDBRANCH  11  15
ENDBRANCH  10  11
ENDBRANCH   6  10
ENDBRANCH   2   7
ENDBRANCH   1   4
BRANCH   1  20
ATOM     20  C   UNL     1      -0.881  11.833  20.959  0.00  0.00    +0.000 C 
BRANCH  20  21
ATOM     21  C   UNL     1      -2.121  12.322  21.721  0.00  0.00    +0.000 A 
ATOM     22  C   UNL     1      -2.278  12.191  23.108  0.00  0.00    +0.000 A 
ATOM     23  C   UNL     1      -3.512  12.462  23.702  0.00  0.00    +0.000 A 
ATOM     24  C   UNL     1      -4.551  12.902  22.901  0.00  0.00    +0.000 A 
ATOM     25  N   UNL     1      -4.422  13.120  21.576  0.00  0.00    +0.000 NA
ATOM     26  C   UNL     1      -3.221  12.825  21.022  0.00  0.00    +0.000 A 
ENDBRANCH  20  21
BRANCH  20  27
ATOM     27  N   UNL     1       0.371  12.604  21.215  0.00  0.00    +0.000 NA
ATOM     28  C   UNL     1       1.206  12.731  19.976  0.00  0.00    +0.000 C 
ATOM     29  C   UNL     1       0.671  13.692  18.884  0.00  0.00    +0.000 C 
ATOM     30  N   UNL     1       0.438  15.005  19.484  0.00  0.00    +0.000 N 
ATOM     31  C   UNL     1      -0.409  15.007  20.682  0.00  0.00    +0.000 C 
ATOM     32  C   UNL     1       0.155  13.991  21.710  0.00  0.00    +0.000 C 
BRANCH  30  33
ATOM     33  C   UNL     1       0.588  16.142  18.711  0.00  0.00    +0.000 A 
ATOM     34  C   UNL     1      -0.506  16.880  18.241  0.00  0.00    +0.000 A 
ATOM     35  C   UNL     1      -0.344  17.912  17.311  0.00  0.00    +0.000 A 
ATOM     36  C   UNL     1       0.925  18.225  16.835  0.00  0.00    +0.000 A 
ATOM     37  C   UNL     1       2.031  17.534  17.322  0.00  0.00    +0.000 A 
ATOM     38  C   UNL     1       1.862  16.516  18.266  0.00  0.00    +0.000 A 
ENDBRANCH  30  33
ENDBRANCH  20  27
ENDBRANCH   1  20
TORSDOF 10
ENDMDL
MODEL 6
REMARK VINA RESULT:      -7.5      4.228      7.961
REMARK  Name = 
REMARK  11 active torsions:
REMARK  status: ('A' for Active; 'I' for Inactive)
REMARK    1  A    between atoms: C_1  and  O_2
REMARK    2  A    between atoms: O_2  and  C_3
REMARK    3  A    between atoms: C_6  and  C_7
REMARK    4  A    between atoms: C_7  and  C_8
REMARK    5  A    between atoms: C_8  and  N_9
REMARK    6  A    between atoms: C_10  and  C_12
REMARK    7  A    between atoms: N_14  and  C_15
REMARK    8  A    between atoms: C_15  and  C_16
REMARK    9  A    between atoms: C_16  and  C_17
REMARK   10  A    between atoms: C_16  and  N_23
REMARK   11  A    between atoms: N_26  and  C_27
REMARK                            x       y       z     vdW  Elec       q    Type
REMARK                         _______ _______ _______ _____ _____    ______ ____
ROOT
ATOM      1  C   UNL     1       3.242   6.740  18.398  0.00  0.00    +0.000 C 
ENDROOT
BRANCH   1   4
ATOM      2  C   UNL     1       1.948   8.826  18.159  0.00  0.00    +0.000 C 
ATOM      3  O   UNL     1       2.403   9.148  17.068  0.00  0.00    +0.000 OA
ATOM      4  N   UNL     1       2.347   7.747  18.909  0.00  0.00    +0.000 N 
ATOM      5  H   UNL     1       1.722   7.510  19.684  0.00  0.00    +0.000 HD
BRANCH   2   7
ATOM      6  N   UNL     1      -0.045  10.242  17.876  0.00  0.00    +0.000 N 
ATOM      7  C   UNL     1       0.793   9.633  18.788  0.00  0.00    +0.000 C 
ATOM      8  O   UNL     1       0.681   9.674  20.005  0.00  0.00    +0.000 OA
ATOM      9  H   UNL     1       0.148  10.088  16.889  0.00  0.00    +0.000 HD
BRANCH   6  10
ATOM     10  C   UNL     1      -1.147  11.061  18.329  0.00  0.00    +0.000 C 
BRANCH  10  11
ATOM     11  C   UNL     1      -0.932  12.559  18.115  0.00  0.00    +0.000 C 
BRANCH  11  15
ATOM     12  C   UNL     1       1.273  14.251  21.435  0.00  0.00    +0.000 A 
ATOM     13  C   UNL     1       1.679  14.491  20.122  0.00  0.00    +0.000 A 
ATOM     14  C   UNL     1       0.956  13.965  19.045  0.00  0.00    +0.000 A 
ATOM     15  C   UNL     1      -0.178  13.175  19.270  0.00  0.00    +0.000 A 
ATOM     16  C   UNL     1      -0.570  12.923  20.592  0.00  0.00    +0.000 A 
ATOM     17  C   UNL     1       0.151  13.458  21.665  0.00  0.00    +0.000 A 
BRANCH  12  19
ATOM     18  C   UNL     1       3.047  15.726  21.950  0.00  0.00    +0.000 C 
ATOM     19  O   UNL     1       2.069  14.798  22.407  0.00  0.00    +0.000 OA
ENDBRANCH  12  19
ENDBRANCH  11  15
ENDBRANCH  10  11
ENDBRANCH   6  10
ENDBRANCH   2   7
ENDBRANCH   1   4
BRANCH   1  20
ATOM     20  C   UNL     1       3.678   5.609  19.412  0.00  0.00    +0.000 C 
BRANCH  20  21
ATOM     21  C   UNL     1       2.680   4.448  19.288  0.00  0.00    +0.000 A 
ATOM     22  C   UNL     1       2.610   3.389  20.204  0.00  0.00    +0.000 A 
ATOM     23  C   UNL     1       1.830   2.266  19.916  0.00  0.00    +0.000 A 
ATOM     24  C   UNL     1       1.103   2.247  18.739  0.00  0.00    +0.000 A 
ATOM     25  N   UNL     1       1.078   3.277  17.869  0.00  0.00    +0.000 NA
ATOM     26  C   UNL     1       1.863   4.343  18.161  0.00  0.00    +0.000 A 
ENDBRANCH  20  21
BRANCH  20  27
ATOM     27  N   UNL     1       5.106   5.254  19.165  0.00  0.00    +0.000 NA
ATOM     28  C   UNL     1       5.236   3.930  18.472  0.00  0.00    +0.000 C 
ATOM     29  C   UNL     1       4.823   3.896  16.978  0.00  0.00    +0.000 C 
ATOM     30  N   UNL     1       5.567   4.929  16.259  0.00  0.00    +0.000 N 
ATOM     31  C   UNL     1       5.474   6.280  16.825  0.00  0.00    +0.000 C 
ATOM     32  C   UNL     1       5.852   6.233  18.329  0.00  0.00    +0.000 C 
BRANCH  30  33
ATOM     33  C   UNL     1       5.894   4.731  14.931  0.00  0.00    +0.000 A 
ATOM     34  C   UNL     1       5.111   3.947  14.073  0.00  0.00    +0.000 A 
ATOM     35  C   UNL     1       5.552   3.606  12.790  0.00  0.00    +0.000 A 
ATOM     36  C   UNL     1       6.793   4.047  12.342  0.00  0.00    +0.000 A 
ATOM     37  C   UNL     1       7.568   4.863  13.161  0.00  0.00    +0.000 A 
ATOM     38  C   UNL     1       7.111   5.216  14.435  0.00  0.00    +0.000 A 
ENDBRANCH  30  33
ENDBRANCH  20  27
ENDBRANCH   1  20
TORSDOF 10
ENDMDL
MODEL 7
REMARK VINA RESULT:      -7.4      1.050      1.482
REMARK  Name = 
REMARK  11 active torsions:
REMARK  status: ('A' for Active; 'I' for Inactive)
REMARK    1  A    between atoms: C_1  and  O_2
REMARK    2  A    between atoms: O_2  and  C_3
REMARK    3  A    between atoms: C_6  and  C_7
REMARK    4  A    between atoms: C_7  and  C_8
REMARK    5  A    between atoms: C_8  and  N_9
REMARK    6  A    between atoms: C_10  and  C_12
REMARK    7  A    between atoms: N_14  and  C_15
REMARK    8  A    between atoms: C_15  and  C_16
REMARK    9  A    between atoms: C_16  and  C_17
REMARK   10  A    between atoms: C_16  and  N_23
REMARK   11  A    between atoms: N_26  and  C_27
REMARK                            x       y       z     vdW  Elec       q    Type
REMARK                         _______ _______ _______ _____ _____    ______ ____
ROOT
ATOM      1  C   UNL     1       3.568   4.853  17.244  0.00  0.00    +0.000 C 
ENDROOT
BRANCH   1   4
ATOM      2  C   UNL     1       5.546   6.131  16.508  0.00  0.00    +0.000 C 
ATOM      3  O   UNL     1       5.039   6.601  15.496  0.00  0.00    +0.000 OA
ATOM      4  N   UNL     1       4.956   5.223  17.354  0.00  0.00    +0.000 N 
ATOM      5  H   UNL     1       5.434   5.102  18.250  0.00  0.00    +0.000 HD
BRANCH   2   7
ATOM      6  N   UNL     1       6.990   7.831  17.547  0.00  0.00    +0.000 N 
ATOM      7  C   UNL     1       6.951   6.584  16.956  0.00  0.00    +0.000 C 
ATOM      8  O   UNL     1       7.906   5.840  16.784  0.00  0.00    +0.000 OA
ATOM      9  H   UNL     1       6.107   8.322  17.660  0.00  0.00    +0.000 HD
BRANCH   6  10
ATOM     10  C   UNL     1       8.250   8.394  17.979  0.00  0.00    +0.000 C 
BRANCH  10  11
ATOM     11  C   UNL     1       8.571   9.747  17.345  0.00  0.00    +0.000 C 
BRANCH  11  15
ATOM     12  C   UNL     1       9.816  12.618  20.338  0.00  0.00    +0.000 A 
ATOM     13  C   UNL     1       9.734  11.261  20.652  0.00  0.00    +0.000 A 
ATOM     14  C   UNL     1       9.354  10.327  19.681  0.00  0.00    +0.000 A 
ATOM     15  C   UNL     1       9.035  10.742  18.383  0.00  0.00    +0.000 A 
ATOM     16  C   UNL     1       9.102  12.110  18.079  0.00  0.00    +0.000 A 
ATOM     17  C   UNL     1       9.491  13.038  19.050  0.00  0.00    +0.000 A 
BRANCH  12  19
ATOM     18  C   UNL     1       9.246  14.465  21.698  0.00  0.00    +0.000 C 
ATOM     19  O   UNL     1      10.178  13.441  21.372  0.00  0.00    +0.000 OA
ENDBRANCH  12  19
ENDBRANCH  11  15
ENDBRANCH  10  11
ENDBRANCH   6  10
ENDBRANCH   2   7
ENDBRANCH   1   4
BRANCH   1  20
ATOM     20  C   UNL     1       2.599   5.430  18.350  0.00  0.00    +0.000 C 
BRANCH  20  21
ATOM     21  C   UNL     1       2.262   4.295  19.327  0.00  0.00    +0.000 A 
ATOM     22  C   UNL     1       0.953   3.964  19.706  0.00  0.00    +0.000 A 
ATOM     23  C   UNL     1       0.733   3.067  20.754  0.00  0.00    +0.000 A 
ATOM     24  C   UNL     1       1.828   2.486  21.369  0.00  0.00    +0.000 A 
ATOM     25  N   UNL     1       3.100   2.713  20.984  0.00  0.00    +0.000 NA
ATOM     26  C   UNL     1       3.285   3.606  19.982  0.00  0.00    +0.000 A 
ENDBRANCH  20  21
BRANCH  20  27
ATOM     27  N   UNL     1       3.222   6.639  18.965  0.00  0.00    +0.000 NA
ATOM     28  C   UNL     1       3.081   7.844  18.084  0.00  0.00    +0.000 C 
ATOM     29  C   UNL     1       1.660   8.456  17.984  0.00  0.00    +0.000 C 
ATOM     30  N   UNL     1       1.174   8.744  19.332  0.00  0.00    +0.000 N 
ATOM     31  C   UNL     1       1.222   7.618  20.271  0.00  0.00    +0.000 C 
ATOM     32  C   UNL     1       2.656   7.025  20.286  0.00  0.00    +0.000 C 
BRANCH  30  33
ATOM     33  C   UNL     1       0.310   9.805  19.530  0.00  0.00    +0.000 A 
ATOM     34  C   UNL     1       0.034  10.747  18.530  0.00  0.00    +0.000 A 
ATOM     35  C   UNL     1      -0.692  11.911  18.804  0.00  0.00    +0.000 A 
ATOM     36  C   UNL     1      -1.156  12.152  20.093  0.00  0.00    +0.000 A 
ATOM     37  C   UNL     1      -0.931  11.210  21.092  0.00  0.00    +0.000 A 
ATOM     38  C   UNL     1      -0.222  10.039  20.805  0.00  0.00    +0.000 A 
ENDBRANCH  30  33
ENDBRANCH  20  27
ENDBRANCH   1  20
TORSDOF 10
ENDMDL
MODEL 8
REMARK VINA RESULT:      -7.4      4.185      7.811
REMARK  Name = 
REMARK  11 active torsions:
REMARK  status: ('A' for Active; 'I' for Inactive)
REMARK    1  A    between atoms: C_1  and  O_2
REMARK    2  A    between atoms: O_2  and  C_3
REMARK    3  A    between atoms: C_6  and  C_7
REMARK    4  A    between atoms: C_7  and  C_8
REMARK    5  A    between atoms: C_8  and  N_9
REMARK    6  A    between atoms: C_10  and  C_12
REMARK    7  A    between atoms: N_14  and  C_15
REMARK    8  A    between atoms: C_15  and  C_16
REMARK    9  A    between atoms: C_16  and  C_17
REMARK   10  A    between atoms: C_16  and  N_23
REMARK   11  A    between atoms: N_26  and  C_27
REMARK                            x       y       z     vdW  Elec       q    Type
REMARK                         _______ _______ _______ _____ _____    ______ ____
ROOT
ATOM      1  C   UNL     1       0.128  10.191  20.026  0.00  0.00    +0.000 C 
ENDROOT
BRANCH   1   4
ATOM      2  C   UNL     1       1.576   8.208  20.262  0.00  0.00    +0.000 C 
ATOM      3  O   UNL     1       1.475   8.106  21.479  0.00  0.00    +0.000 OA
ATOM      4  N   UNL     1       1.044   9.215  19.494  0.00  0.00    +0.000 N 
ATOM      5  H   UNL     1       1.046   9.030  18.488  0.00  0.00    +0.000 HD
BRANCH   2   7
ATOM      6  N   UNL     1       2.746   6.044  20.194  0.00  0.00    +0.000 N 
ATOM      7  C   UNL     1       2.315   7.124  19.450  0.00  0.00    +0.000 C 
ATOM      8  O   UNL     1       2.457   7.268  18.245  0.00  0.00    +0.000 OA
ATOM      9  H   UNL     1       2.521   6.041  21.187  0.00  0.00    +0.000 HD
BRANCH   6  10
ATOM     10  C   UNL     1       3.486   4.973  19.566  0.00  0.00    +0.000 C 
BRANCH  10  11
ATOM     11  C   UNL     1       4.994   5.217  19.504  0.00  0.00    +0.000 C 
BRANCH  11  15
ATOM     12  C   UNL     1       6.549   4.407  15.545  0.00  0.00    +0.000 A 
ATOM     13  C   UNL     1       5.172   4.439  15.770  0.00  0.00    +0.000 A 
ATOM     14  C   UNL     1       4.665   4.723  17.043  0.00  0.00    +0.000 A 
ATOM     15  C   UNL     1       5.533   4.963  18.116  0.00  0.00    +0.000 A 
ATOM     16  C   UNL     1       6.915   4.912  17.887  0.00  0.00    +0.000 A 
ATOM     17  C   UNL     1       7.417   4.637  16.610  0.00  0.00    +0.000 A 
BRANCH  12  19
ATOM     18  C   UNL     1       5.870   3.793  13.366  0.00  0.00    +0.000 C 
ATOM     19  O   UNL     1       6.930   4.099  14.265  0.00  0.00    +0.000 OA
ENDBRANCH  12  19
ENDBRANCH  11  15
ENDBRANCH  10  11
ENDBRANCH   6  10
ENDBRANCH   2   7
ENDBRANCH   1   4
BRANCH   1  20
ATOM     20  C   UNL     1      -0.211  11.419  19.090  0.00  0.00    +0.000 C 
BRANCH  20  21
ATOM     21  C   UNL     1      -1.443  11.052  18.251  0.00  0.00    +0.000 A 
ATOM     22  C   UNL     1      -2.304   9.990  18.565  0.00  0.00    +0.000 A 
ATOM     23  C   UNL     1      -3.276   9.582  17.648  0.00  0.00    +0.000 A 
ATOM     24  C   UNL     1      -3.394  10.274  16.456  0.00  0.00    +0.000 A 
ATOM     25  N   UNL     1      -2.642  11.350  16.147  0.00  0.00    +0.000 NA
ATOM     26  C   UNL     1      -1.690  11.708  17.044  0.00  0.00    +0.000 A 
ENDBRANCH  20  21
BRANCH  20  27
ATOM     27  N   UNL     1      -0.349  12.647  19.926  0.00  0.00    +0.000 NA
ATOM     28  C   UNL     1       0.725  12.733  20.968  0.00  0.00    +0.000 C 
ATOM     29  C   UNL     1       2.149  13.071  20.458  0.00  0.00    +0.000 C 
ATOM     30  N   UNL     1       2.090  14.306  19.678  0.00  0.00    +0.000 N 
ATOM     31  C   UNL     1       1.100  14.318  18.594  0.00  0.00    +0.000 C 
ATOM     32  C   UNL     1      -0.288  13.925  19.165  0.00  0.00    +0.000 C 
BRANCH  30  33
ATOM     33  C   UNL     1       3.185  15.149  19.656  0.00  0.00    +0.000 A 
ATOM     34  C   UNL     1       3.247  16.321  20.422  0.00  0.00    +0.000 A 
ATOM     35  C   UNL     1       4.276  17.252  20.248  0.00  0.00    +0.000 A 
ATOM     36  C   UNL     1       5.266  17.024  19.297  0.00  0.00    +0.000 A 
ATOM     37  C   UNL     1       5.249  15.846  18.557  0.00  0.00    +0.000 A 
ATOM     38  C   UNL     1       4.228  14.911  18.751  0.00  0.00    +0.000 A 
ENDBRANCH  30  33
ENDBRANCH  20  27
ENDBRANCH   1  20
TORSDOF 10
ENDMDL
MODEL 9
REMARK VINA RESULT:      -7.4      4.227      9.497
REMARK  Name = 
REMARK  11 active torsions:
REMARK  status: ('A' for Active; 'I' for Inactive)
REMARK    1  A    between atoms: C_1  and  O_2
REMARK    2  A    between atoms: O_2  and  C_3
REMARK    3  A    between atoms: C_6  and  C_7
REMARK    4  A    between atoms: C_7  and  C_8
REMARK    5  A    between atoms: C_8  and  N_9
REMARK    6  A    between atoms: C_10  and  C_12
REMARK    7  A    between atoms: N_14  and  C_15
REMARK    8  A    between atoms: C_15  and  C_16
REMARK    9  A    between atoms: C_16  and  C_17
REMARK   10  A    between atoms: C_16  and  N_23
REMARK   11  A    between atoms: N_26  and  C_27
REMARK                            x       y       z     vdW  Elec       q    Type
REMARK                         _______ _______ _______ _____ _____    ______ ____
ROOT
ATOM      1  C   UNL     1       3.389   6.896  18.033  0.00  0.00    +0.000 C 
ENDROOT
BRANCH   1   4
ATOM      2  C   UNL     1       1.971   8.911  18.148  0.00  0.00    +0.000 C 
ATOM      3  O   UNL     1       2.437   9.466  17.160  0.00  0.00    +0.000 OA
ATOM      4  N   UNL     1       2.416   7.731  18.691  0.00  0.00    +0.000 N 
ATOM      5  H   UNL     1       1.786   7.312  19.378  0.00  0.00    +0.000 HD
BRANCH   2   7
ATOM      6  N   UNL     1       0.837   9.504  20.250  0.00  0.00    +0.000 N 
ATOM      7  C   UNL     1       0.749   9.512  18.872  0.00  0.00    +0.000 C 
ATOM      8  O   UNL     1      -0.182   9.956  18.215  0.00  0.00    +0.000 OA
ATOM      9  H   UNL     1       1.692   9.138  20.661  0.00  0.00    +0.000 HD
BRANCH   6  10
ATOM     10  C   UNL     1      -0.256  10.003  21.055  0.00  0.00    +0.000 C 
BRANCH  10  11
ATOM     11  C   UNL     1      -0.245  11.520  21.239  0.00  0.00    +0.000 C 
BRANCH  11  15
ATOM     12  C   UNL     1      -3.961  12.996  22.902  0.00  0.00    +0.000 A 
ATOM     13  C   UNL     1      -3.577  13.348  21.607  0.00  0.00    +0.000 A 
ATOM     14  C   UNL     1      -2.388  12.855  21.058  0.00  0.00    +0.000 A 
ATOM     15  C   UNL     1      -1.556  12.012  21.805  0.00  0.00    +0.000 A 
ATOM     16  C   UNL     1      -1.939  11.676  23.112  0.00  0.00    +0.000 A 
ATOM     17  C   UNL     1      -3.133  12.164  23.653  0.00  0.00    +0.000 A 
BRANCH  12  19
ATOM     18  C   UNL     1      -5.305  14.935  23.043  0.00  0.00    +0.000 C 
ATOM     19  O   UNL     1      -5.132  13.554  23.341  0.00  0.00    +0.000 OA
ENDBRANCH  12  19
ENDBRANCH  11  15
ENDBRANCH  10  11
ENDBRANCH   6  10
ENDBRANCH   2   7
ENDBRANCH   1   4
BRANCH   1  20
ATOM     20  C   UNL     1       4.152   5.856  18.945  0.00  0.00    +0.000 C 
BRANCH  20  21
ATOM     21  C   UNL     1       3.502   4.480  18.743  0.00  0.00    +0.000 A 
ATOM     22  C   UNL     1       2.643   4.179  17.676  0.00  0.00    +0.000 A 
ATOM     23  C   UNL     1       1.924   2.982  17.671  0.00  0.00    +0.000 A 
ATOM     24  C   UNL     1       2.114   2.091  18.713  0.00  0.00    +0.000 A 
ATOM     25  N   UNL     1       2.989   2.302  19.717  0.00  0.00    +0.000 NA
ATOM     26  C   UNL     1       3.655   3.483  19.709  0.00  0.00    +0.000 A 
ENDBRANCH  20  21
BRANCH  20  27
ATOM     27  N   UNL     1       5.613   5.922  18.646  0.00  0.00    +0.000 NA
ATOM     28  C   UNL     1       6.161   4.581  18.260  0.00  0.00    +0.000 C 
ATOM     29  C   UNL     1       5.757   4.053  16.859  0.00  0.00    +0.000 C 
ATOM     30  N   UNL     1       6.104   5.059  15.857  0.00  0.00    +0.000 N 
ATOM     31  C   UNL     1       5.579   6.406  16.110  0.00  0.00    +0.000 C 
ATOM     32  C   UNL     1       5.979   6.851  17.542  0.00  0.00    +0.000 C 
BRANCH  30  33
ATOM     33  C   UNL     1       6.455   4.656  14.582  0.00  0.00    +0.000 A 
ATOM     34  C   UNL     1       7.484   5.269  13.856  0.00  0.00    +0.000 A 
ATOM     35  C   UNL     1       7.700   4.974  12.506  0.00  0.00    +0.000 A 
ATOM     36  C   UNL     1       6.884   4.054  11.857  0.00  0.00    +0.000 A 
ATOM     37  C   UNL     1       5.884   3.400  12.570  0.00  0.00    +0.000 A 
ATOM     38  C   UNL     1       5.687   3.686  13.925  0.00  0.00    +0.000 A 
ENDBRANCH  30  33
ENDBRANCH  20  27
ENDBRANCH   1  20
TORSDOF 10
ENDMDL
