MODEL 1
REMARK VINA RESULT:      -8.0      0.000      0.000
REMARK  Name = 
REMARK  1 active torsions:
REMARK  status: ('A' for Active; 'I' for Inactive)
REMARK    1  A    between atoms: C_4  and  C_5
REMARK                            x       y       z     vdW  Elec       q    Type
REMARK                         _______ _______ _______ _____ _____    ______ ____
ROOT
ATOM      1  O   UNL     1       3.392   1.128  18.541  0.00  0.00    +0.000 OA
ATOM      2  C   UNL     1       3.553   2.322  18.325  0.00  0.00    +0.000 C 
ATOM      3  C   UNL     1       4.469   2.766  17.254  0.00  0.00    +0.000 C 
ATOM      4  C   UNL     1       4.618   4.055  16.925  0.00  0.00    +0.000 C 
ATOM      5  C   UNL     1       3.836   5.108  17.633  0.00  0.00    +0.000 C 
ATOM      6  O   UNL     1       3.907   6.284  17.293  0.00  0.00    +0.000 OA
ATOM      7  C   UNL     1       2.993   4.701  18.773  0.00  0.00    +0.000 A 
ATOM      8  C   UNL     1       2.331   5.678  19.528  0.00  0.00    +0.000 A 
ATOM      9  C   UNL     1       1.571   5.307  20.640  0.00  0.00    +0.000 A 
ATOM     10  C   UNL     1       1.463   3.963  20.995  0.00  0.00    +0.000 A 
ATOM     11  C   UNL     1       2.104   2.985  20.231  0.00  0.00    +0.000 A 
ATOM     12  C   UNL     1       2.870   3.356  19.119  0.00  0.00    +0.000 A 
ENDROOT
BRANCH   4  13
ATOM     13  C   UNL     1       5.576   4.436  15.881  0.00  0.00    +0.000 A 
ATOM     14  C   UNL     1       5.429   4.085  14.552  0.00  0.00    +0.000 A 
ATOM     15  N   UNL     1       6.303   4.425  13.579  0.00  0.00    +0.000 NA
ATOM     16  C   UNL     1       7.349   5.161  13.981  0.00  0.00    +0.000 A 
ATOM     17 CL   UNL     1       8.469   5.622  12.780  0.00  0.00    +0.000 Cl
ATOM     18  N   UNL     1       7.610   5.567  15.232  0.00  0.00    +0.000 NA
ATOM     19  C   UNL     1       6.701   5.196  16.158  0.00  0.00    +0.000 A 
ENDBRANCH   4  13
TORSDOF 1
ENDMDL
MODEL 2
REMARK VINA RESULT:      -8.0      0.129      1.092
REMARK  Name = 
REMARK  1 active torsions:
REMARK  status: ('A' for Active; 'I' for Inactive)
REMARK    1  A    between atoms: C_4  and  C_5
REMARK                            x       y       z     vdW  Elec       q    Type
REMARK                         _______ _______ _______ _____ _____    ______ ____
ROOT
ATOM      1  O   UNL     1       3.579   1.052  18.683  0.00  0.00    +0.000 OA
ATOM      2  C   UNL     1       3.664   2.247  18.431  0.00  0.00    +0.000 C 
ATOM      3  C   UNL     1       4.565   2.717  17.357  0.00  0.00    +0.000 C 
ATOM      4  C   UNL     1       4.634   4.002  16.990  0.00  0.00    +0.000 C 
ATOM      5  C   UNL     1       3.776   5.023  17.654  0.00  0.00    +0.000 C 
ATOM      6  O   UNL     1       3.774   6.190  17.279  0.00  0.00    +0.000 OA
ATOM      7  C   UNL     1       2.944   4.597  18.796  0.00  0.00    +0.000 A 
ATOM      8  C   UNL     1       2.209   5.551  19.512  0.00  0.00    +0.000 A 
ATOM      9  C   UNL     1       1.458   5.165  20.625  0.00  0.00    +0.000 A 
ATOM     10  C   UNL     1       1.433   3.828  21.021  0.00  0.00    +0.000 A 
ATOM     11  C   UNL     1       2.147   2.871  20.297  0.00  0.00    +0.000 A 
ATOM     12  C   UNL     1       2.904   3.258  19.183  0.00  0.00    +0.000 A 
ENDROOT
BRANCH   4  13
ATOM     13  C   UNL     1       5.582   4.413  15.947  0.00  0.00    +0.000 A 
ATOM     14  C   UNL     1       6.712   5.168  16.205  0.00  0.00    +0.000 A 
ATOM     15  N   UNL     1       7.592   5.558  15.257  0.00  0.00    +0.000 NA
ATOM     16  C   UNL     1       7.313   5.146  14.012  0.00  0.00    +0.000 A 
ATOM     17 CL   UNL     1       8.408   5.606  12.789  0.00  0.00    +0.000 Cl
ATOM     18  N   UNL     1       6.257   4.414  13.627  0.00  0.00    +0.000 NA
ATOM     19  C   UNL     1       5.415   4.057  14.619  0.00  0.00    +0.000 A 
ENDBRANCH   4  13
TORSDOF 1
ENDMDL
MODEL 3
REMARK VINA RESULT:      -7.7      1.060      2.420
REMARK  Name = 
REMARK  1 active torsions:
REMARK  status: ('A' for Active; 'I' for Inactive)
REMARK    1  A    between atoms: C_4  and  C_5
REMARK                            x       y       z     vdW  Elec       q    Type
REMARK                         _______ _______ _______ _____ _____    ______ ____
ROOT
ATOM      1  O   UNL     1       2.511   7.228  19.286  0.00  0.00    +0.000 OA
ATOM      2  C   UNL     1       2.920   6.156  18.859  0.00  0.00    +0.000 C 
ATOM      3  C   UNL     1       3.889   6.122  17.744  0.00  0.00    +0.000 C 
ATOM      4  C   UNL     1       4.427   4.981  17.295  0.00  0.00    +0.000 C 
ATOM      5  C   UNL     1       4.070   3.680  17.928  0.00  0.00    +0.000 C 
ATOM      6  O   UNL     1       4.609   2.637  17.577  0.00  0.00    +0.000 OA
ATOM      7  C   UNL     1       3.028   3.676  18.973  0.00  0.00    +0.000 A 
ATOM      8  C   UNL     1       2.591   2.459  19.511  0.00  0.00    +0.000 A 
ATOM      9  C   UNL     1       1.571   2.442  20.465  0.00  0.00    +0.000 A 
ATOM     10  C   UNL     1       0.990   3.637  20.888  0.00  0.00    +0.000 A 
ATOM     11  C   UNL     1       1.439   4.854  20.370  0.00  0.00    +0.000 A 
ATOM     12  C   UNL     1       2.459   4.872  19.411  0.00  0.00    +0.000 A 
ENDROOT
BRANCH   4  13
ATOM     13  C   UNL     1       5.351   5.009  16.156  0.00  0.00    +0.000 A 
ATOM     14  C   UNL     1       5.033   4.496  14.911  0.00  0.00    +0.000 A 
ATOM     15  N   UNL     1       5.873   4.510  13.852  0.00  0.00    +0.000 NA
ATOM     16  C   UNL     1       7.065   5.082  14.073  0.00  0.00    +0.000 A 
ATOM     17 CL   UNL     1       8.147   5.131  12.757  0.00  0.00    +0.000 Cl
ATOM     18  N   UNL     1       7.497   5.614  15.225  0.00  0.00    +0.000 NA
ATOM     19  C   UNL     1       6.614   5.570  16.245  0.00  0.00    +0.000 A 
ENDBRANCH   4  13
TORSDOF 1
ENDMDL
MODEL 4
REMARK VINA RESULT:      -7.7      1.064      2.650
REMARK  Name = 
REMARK  1 active torsions:
REMARK  status: ('A' for Active; 'I' for Inactive)
REMARK    1  A    between atoms: C_4  and  C_5
REMARK                            x       y       z     vdW  Elec       q    Type
REMARK                         _______ _______ _______ _____ _____    ______ ____
ROOT
ATOM      1  O   UNL     1       2.568   7.232  19.342  0.00  0.00    +0.000 OA
ATOM      2  C   UNL     1       2.961   6.158  18.906  0.00  0.00    +0.000 C 
ATOM      3  C   UNL     1       3.922   6.119  17.784  0.00  0.00    +0.000 C 
ATOM      4  C   UNL     1       4.443   4.975  17.324  0.00  0.00    +0.000 C 
ATOM      5  C   UNL     1       4.075   3.674  17.951  0.00  0.00    +0.000 C 
ATOM      6  O   UNL     1       4.600   2.627  17.590  0.00  0.00    +0.000 OA
ATOM      7  C   UNL     1       3.041   3.676  19.004  0.00  0.00    +0.000 A 
ATOM      8  C   UNL     1       2.594   2.461  19.538  0.00  0.00    +0.000 A 
ATOM      9  C   UNL     1       1.580   2.449  20.499  0.00  0.00    +0.000 A 
ATOM     10  C   UNL     1       1.017   3.649  20.934  0.00  0.00    +0.000 A 
ATOM     11  C   UNL     1       1.476   4.863  20.420  0.00  0.00    +0.000 A 
ATOM     12  C   UNL     1       2.490   4.875  19.453  0.00  0.00    +0.000 A 
ENDROOT
BRANCH   4  13
ATOM     13  C   UNL     1       5.358   4.998  16.177  0.00  0.00    +0.000 A 
ATOM     14  C   UNL     1       6.606   5.594  16.216  0.00  0.00    +0.000 A 
ATOM     15  N   UNL     1       7.460   5.628  15.169  0.00  0.00    +0.000 NA
ATOM     16  C   UNL     1       7.027   5.016  14.057  0.00  0.00    +0.000 A 
ATOM     17 CL   UNL     1       8.082   5.025  12.718  0.00  0.00    +0.000 Cl
ATOM     18  N   UNL     1       5.847   4.403  13.887  0.00  0.00    +0.000 NA
ATOM     19  C   UNL     1       5.038   4.404  14.968  0.00  0.00    +0.000 A 
ENDBRANCH   4  13
TORSDOF 1
ENDMDL
MODEL 5
REMARK VINA RESULT:      -7.5      1.631      2.228
REMARK  Name = 
REMARK  1 active torsions:
REMARK  status: ('A' for Active; 'I' for Inactive)
REMARK    1  A    between atoms: C_4  and  C_5
REMARK                            x       y       z     vdW  Elec       q    Type
REMARK                         _______ _______ _______ _____ _____    ______ ____
ROOT
ATOM      1  O   UNL     1       0.665   4.122  17.339  0.00  0.00    +0.000 OA
ATOM      2  C   UNL     1       1.824   3.981  17.707  0.00  0.00    +0.000 C 
ATOM      3  C   UNL     1       2.938   4.302  16.790  0.00  0.00    +0.000 C 
ATOM      4  C   UNL     1       4.220   4.242  17.171  0.00  0.00    +0.000 C 
ATOM      5  C   UNL     1       4.575   3.855  18.566  0.00  0.00    +0.000 C 
ATOM      6  O   UNL     1       5.739   3.867  18.949  0.00  0.00    +0.000 OA
ATOM      7  C   UNL     1       3.488   3.431  19.469  0.00  0.00    +0.000 A 
ATOM      8  C   UNL     1       3.797   2.958  20.750  0.00  0.00    +0.000 A 
ATOM      9  C   UNL     1       2.779   2.508  21.594  0.00  0.00    +0.000 A 
ATOM     10  C   UNL     1       1.452   2.536  21.165  0.00  0.00    +0.000 A 
ATOM     11  C   UNL     1       1.139   3.027  19.896  0.00  0.00    +0.000 A 
ATOM     12  C   UNL     1       2.159   3.475  19.048  0.00  0.00    +0.000 A 
ENDROOT
BRANCH   4  13
ATOM     13  C   UNL     1       5.284   4.530  16.201  0.00  0.00    +0.000 A 
ATOM     14  C   UNL     1       6.197   5.556  16.361  0.00  0.00    +0.000 A 
ATOM     15  N   UNL     1       7.180   5.837  15.477  0.00  0.00    +0.000 NA
ATOM     16  C   UNL     1       7.237   5.030  14.409  0.00  0.00    +0.000 A 
ATOM     17 CL   UNL     1       8.473   5.344  13.277  0.00  0.00    +0.000 Cl
ATOM     18  N   UNL     1       6.418   4.005  14.134  0.00  0.00    +0.000 NA
ATOM     19  C   UNL     1       5.458   3.774  15.053  0.00  0.00    +0.000 A 
ENDBRANCH   4  13
TORSDOF 1
ENDMDL
MODEL 6
REMARK VINA RESULT:      -7.5      1.626      1.961
REMARK  Name = 
REMARK  1 active torsions:
REMARK  status: ('A' for Active; 'I' for Inactive)
REMARK    1  A    between atoms: C_4  and  C_5
REMARK                            x       y       z     vdW  Elec       q    Type
REMARK                         _______ _______ _______ _____ _____    ______ ____
ROOT
ATOM      1  O   UNL     1       0.636   4.107  17.319  0.00  0.00    +0.000 OA
ATOM      2  C   UNL     1       1.794   3.972  17.692  0.00  0.00    +0.000 C 
ATOM      3  C   UNL     1       2.910   4.282  16.773  0.00  0.00    +0.000 C 
ATOM      4  C   UNL     1       4.192   4.228  17.157  0.00  0.00    +0.000 C 
ATOM      5  C   UNL     1       4.544   3.860  18.558  0.00  0.00    +0.000 C 
ATOM      6  O   UNL     1       5.707   3.878  18.943  0.00  0.00    +0.000 OA
ATOM      7  C   UNL     1       3.455   3.447  19.464  0.00  0.00    +0.000 A 
ATOM      8  C   UNL     1       3.762   2.991  20.753  0.00  0.00    +0.000 A 
ATOM      9  C   UNL     1       2.742   2.551  21.600  0.00  0.00    +0.000 A 
ATOM     10  C   UNL     1       1.416   2.573  21.168  0.00  0.00    +0.000 A 
ATOM     11  C   UNL     1       1.105   3.047  19.892  0.00  0.00    +0.000 A 
ATOM     12  C   UNL     1       2.127   3.484  19.040  0.00  0.00    +0.000 A 
ENDROOT
BRANCH   4  13
ATOM     13  C   UNL     1       5.257   4.504  16.186  0.00  0.00    +0.000 A 
ATOM     14  C   UNL     1       5.442   3.762  15.034  0.00  0.00    +0.000 A 
ATOM     15  N   UNL     1       6.420   4.000  14.131  0.00  0.00    +0.000 NA
ATOM     16  C   UNL     1       7.217   5.040  14.412  0.00  0.00    +0.000 A 
ATOM     17 CL   UNL     1       8.455   5.382  13.290  0.00  0.00    +0.000 Cl
ATOM     18  N   UNL     1       7.147   5.837  15.488  0.00  0.00    +0.000 NA
ATOM     19  C   UNL     1       6.151   5.548  16.352  0.00  0.00    +0.000 A 
ENDBRANCH   4  13
TORSDOF 1
ENDMDL
MODEL 7
REMARK VINA RESULT:      -7.1      1.277      1.322
REMARK  Name = 
REMARK  1 active torsions:
REMARK  status: ('A' for Active; 'I' for Inactive)
REMARK    1  A    between atoms: C_4  and  C_5
REMARK                            x       y       z     vdW  Elec       q    Type
REMARK                         _______ _______ _______ _____ _____    ______ ____
ROOT
ATOM      1  O   UNL     1       5.153   1.754  20.698  0.00  0.00    +0.000 OA
ATOM      2  C   UNL     1       4.633   2.523  19.900  0.00  0.00    +0.000 C 
ATOM      3  C   UNL     1       5.379   2.966  18.704  0.00  0.00    +0.000 C 
ATOM      4  C   UNL     1       4.828   3.741  17.761  0.00  0.00    +0.000 C 
ATOM      5  C   UNL     1       3.409   4.180  17.881  0.00  0.00    +0.000 C 
ATOM      6  O   UNL     1       2.870   4.827  16.991  0.00  0.00    +0.000 OA
ATOM      7  C   UNL     1       2.676   3.836  19.114  0.00  0.00    +0.000 A 
ATOM      8  C   UNL     1       1.377   4.325  19.307  0.00  0.00    +0.000 A 
ATOM      9  C   UNL     1       0.693   4.047  20.493  0.00  0.00    +0.000 A 
ATOM     10  C   UNL     1       1.299   3.275  21.483  0.00  0.00    +0.000 A 
ATOM     11  C   UNL     1       2.585   2.768  21.286  0.00  0.00    +0.000 A 
ATOM     12  C   UNL     1       3.273   3.050  20.098  0.00  0.00    +0.000 A 
ENDROOT
BRANCH   4  13
ATOM     13  C   UNL     1       5.634   4.185  16.618  0.00  0.00    +0.000 A 
ATOM     14  C   UNL     1       5.574   3.590  15.371  0.00  0.00    +0.000 A 
ATOM     15  N   UNL     1       6.311   3.983  14.309  0.00  0.00    +0.000 NA
ATOM     16  C   UNL     1       7.120   5.029  14.530  0.00  0.00    +0.000 A 
ATOM     17 CL   UNL     1       8.057   5.565  13.210  0.00  0.00    +0.000 Cl
ATOM     18  N   UNL     1       7.274   5.694  15.684  0.00  0.00    +0.000 NA
ATOM     19  C   UNL     1       6.511   5.254  16.707  0.00  0.00    +0.000 A 
ENDBRANCH   4  13
TORSDOF 1
ENDMDL
MODEL 8
REMARK VINA RESULT:      -7.0      1.041      1.752
REMARK  Name = 
REMARK  1 active torsions:
REMARK  status: ('A' for Active; 'I' for Inactive)
REMARK    1  A    between atoms: C_4  and  C_5
REMARK                            x       y       z     vdW  Elec       q    Type
REMARK                         _______ _______ _______ _____ _____    ______ ____
ROOT
ATOM      1  O   UNL     1       3.003   2.715  19.569  0.00  0.00    +0.000 OA
ATOM      2  C   UNL     1       3.262   3.793  19.048  0.00  0.00    +0.000 C 
ATOM      3  C   UNL     1       4.196   3.858  17.905  0.00  0.00    +0.000 C 
ATOM      4  C   UNL     1       4.450   4.998  17.250  0.00  0.00    +0.000 C 
ATOM      5  C   UNL     1       3.773   6.264  17.650  0.00  0.00    +0.000 C 
ATOM      6  O   UNL     1       3.938   7.299  17.014  0.00  0.00    +0.000 OA
ATOM      7  C   UNL     1       2.915   6.245  18.851  0.00  0.00    +0.000 A 
ATOM      8  C   UNL     1       2.351   7.439  19.318  0.00  0.00    +0.000 A 
ATOM      9  C   UNL     1       1.579   7.440  20.482  0.00  0.00    +0.000 A 
ATOM     10  C   UNL     1       1.362   6.251  21.177  0.00  0.00    +0.000 A 
ATOM     11  C   UNL     1       1.905   5.055  20.702  0.00  0.00    +0.000 A 
ATOM     12  C   UNL     1       2.683   5.054  19.537  0.00  0.00    +0.000 A 
ENDROOT
BRANCH   4  13
ATOM     13  C   UNL     1       5.422   5.008  16.150  0.00  0.00    +0.000 A 
ATOM     14  C   UNL     1       6.647   5.645  16.227  0.00  0.00    +0.000 A 
ATOM     15  N   UNL     1       7.552   5.667  15.224  0.00  0.00    +0.000 NA
ATOM     16  C   UNL     1       7.195   5.000  14.117  0.00  0.00    +0.000 A 
ATOM     17 CL   UNL     1       8.316   4.993  12.832  0.00  0.00    +0.000 Cl
ATOM     18  N   UNL     1       6.044   4.344  13.912  0.00  0.00    +0.000 NA
ATOM     19  C   UNL     1       5.182   4.359  14.950  0.00  0.00    +0.000 A 
ENDBRANCH   4  13
TORSDOF 1
ENDMDL
MODEL 9
REMARK VINA RESULT:      -7.0      1.070      1.424
REMARK  Name = 
REMARK  1 active torsions:
REMARK  status: ('A' for Active; 'I' for Inactive)
REMARK    1  A    between atoms: C_4  and  C_5
REMARK                            x       y       z     vdW  Elec       q    Type
REMARK                         _______ _______ _______ _____ _____    ______ ____
ROOT
ATOM      1  O   UNL     1       3.185   2.793  19.693  0.00  0.00    +0.000 OA
ATOM      2  C   UNL     1       3.395   3.856  19.124  0.00  0.00    +0.000 C 
ATOM      3  C   UNL     1       4.308   3.909  17.963  0.00  0.00    +0.000 C 
ATOM      4  C   UNL     1       4.507   5.028  17.257  0.00  0.00    +0.000 C 
ATOM      5  C   UNL     1       3.788   6.284  17.616  0.00  0.00    +0.000 C 
ATOM      6  O   UNL     1       3.904   7.296  16.935  0.00  0.00    +0.000 OA
ATOM      7  C   UNL     1       2.951   6.283  18.831  0.00  0.00    +0.000 A 
ATOM      8  C   UNL     1       2.348   7.474  19.257  0.00  0.00    +0.000 A 
ATOM      9  C   UNL     1       1.594   7.495  20.433  0.00  0.00    +0.000 A 
ATOM     10  C   UNL     1       1.434   6.328  21.180  0.00  0.00    +0.000 A 
ATOM     11  C   UNL     1       2.015   5.135  20.747  0.00  0.00    +0.000 A 
ATOM     12  C   UNL     1       2.774   5.114  19.570  0.00  0.00    +0.000 A 
ENDROOT
BRANCH   4  13
ATOM     13  C   UNL     1       5.461   5.029  16.142  0.00  0.00    +0.000 A 
ATOM     14  C   UNL     1       5.198   4.438  14.919  0.00  0.00    +0.000 A 
ATOM     15  N   UNL     1       6.065   4.425  13.884  0.00  0.00    +0.000 NA
ATOM     16  C   UNL     1       7.229   5.054  14.104  0.00  0.00    +0.000 A 
ATOM     17 CL   UNL     1       8.346   5.072  12.815  0.00  0.00    +0.000 Cl
ATOM     18  N   UNL     1       7.609   5.663  15.236  0.00  0.00    +0.000 NA
ATOM     19  C   UNL     1       6.700   5.641  16.233  0.00  0.00    +0.000 A 
ENDBRANCH   4  13
TORSDOF 1
ENDMDL
