MODEL 1
REMARK VINA RESULT:      -7.3      0.000      0.000
REMARK  Name = 
REMARK  11 active torsions:
REMARK  status: ('A' for Active; 'I' for Inactive)
REMARK    1  A    between atoms: C_1  and  C_2
REMARK    2  A    between atoms: C_2  and  N_3
REMARK    3  A    between atoms: N_3  and  C_4
REMARK    4  A    between atoms: C_4  and  C_5
REMARK    5  A    between atoms: C_9  and  C_10
REMARK    6  A    between atoms: C_10  and  N_11
REMARK    7  A    between atoms: C_12  and  C_14
REMARK    8  A    between atoms: C_16  and  S_17
REMARK    9  A    between atoms: S_17  and  N_18
REMARK   10  A    between atoms: C_23  and  O_24
REMARK   11  A    between atoms: O_24  and  C_25
REMARK                            x       y       z     vdW  Elec       q    Type
REMARK                         _______ _______ _______ _____ _____    ______ ____
ROOT
ATOM      1  N   UNL     1       2.242   7.670  18.808  0.00  0.00    +0.000 N 
ATOM      2  C   UNL     1       2.512   6.383  19.179  0.00  0.00    +0.000 C 
ATOM      3  O   UNL     1       2.198   6.016  20.299  0.00  0.00    +0.000 OA
ATOM      4  H   UNL     1       2.476   8.007  17.865  0.00  0.00    +0.000 HD
ENDROOT
BRANCH   2   5
ATOM      5  C   UNL     1       3.213   5.431  18.261  0.00  0.00    +0.000 A 
ATOM      6  C   UNL     1       4.539   5.754  17.899  0.00  0.00    +0.000 A 
ATOM      7  C   UNL     1       5.293   4.925  17.070  0.00  0.00    +0.000 A 
ATOM      8  C   UNL     1       4.748   3.741  16.588  0.00  0.00    +0.000 A 
ATOM      9  C   UNL     1       3.445   3.395  16.921  0.00  0.00    +0.000 A 
ATOM     10  C   UNL     1       2.648   4.212  17.737  0.00  0.00    +0.000 A 
BRANCH   7  11
ATOM     11  S   UNL     1       6.941   5.424  16.594  0.00  0.00    +0.000 S 
ATOM     12  O   UNL     1       8.063   4.508  17.107  0.00  0.00    +0.000 OA
ATOM     13  O   UNL     1       7.175   5.433  15.076  0.00  0.00    +0.000 OA
BRANCH  11  14
ATOM     14  N   UNL     1       7.380   7.047  17.120  0.00  0.00    +0.000 NA
ATOM     15  H   UNL     1       8.174   6.948  17.794  0.00  0.00    +0.000 HD
ATOM     16  H   UNL     1       6.565   7.420  17.660  0.00  0.00    +0.000 HD
ENDBRANCH  11  14
ENDBRANCH   7  11
BRANCH  10  17
ATOM     17  O   UNL     1       1.368   3.761  17.884  0.00  0.00    +0.000 OA
ATOM     18  C   UNL     1       0.835   2.763  18.667  0.00  0.00    +0.000 C 
ENDBRANCH  10  17
ENDBRANCH   2   5
BRANCH   1  19
ATOM     19  C   UNL     1       1.559   8.560  19.725  0.00  0.00    +0.000 C 
BRANCH  19  24
ATOM     20  N   UNL     1       0.356  10.872  19.939  0.00  0.00    +0.000 N 
ATOM     21  C   UNL     1       1.345  11.982  19.868  0.00  0.00    +0.000 C 
ATOM     22  C   UNL     1       1.829  12.004  18.426  0.00  0.00    +0.000 C 
ATOM     23  C   UNL     1       2.084  10.529  18.213  0.00  0.00    +0.000 C 
ATOM     24  C   UNL     1       0.975   9.813  19.036  0.00  0.00    +0.000 C 
BRANCH  20  26
ATOM     25  C   UNL     1      -1.579  10.273  18.282  0.00  0.00    +0.000 C 
ATOM     26  C   UNL     1      -0.954  11.268  19.280  0.00  0.00    +0.000 C 
ENDBRANCH  20  26
BRANCH  20  27
ATOM     27  C   UNL     1       0.014  10.504  21.366  0.00  0.00    +0.000 C 
ATOM     28  C   UNL     1      -0.824  11.465  22.241  0.00  0.00    +0.000 C 
ENDBRANCH  20  27
ENDBRANCH  19  24
ENDBRANCH   1  19
TORSDOF 8
ENDMDL
MODEL 2
REMARK VINA RESULT:      -7.1      1.053      1.281
REMARK  Name = 
REMARK  11 active torsions:
REMARK  status: ('A' for Active; 'I' for Inactive)
REMARK    1  A    between atoms: C_1  and  C_2
REMARK    2  A    between atoms: C_2  and  N_3
REMARK    3  A    between atoms: N_3  and  C_4
REMARK    4  A    between atoms: C_4  and  C_5
REMARK    5  A    between atoms: C_9  and  C_10
REMARK    6  A    between atoms: C_10  and  N_11
REMARK    7  A    between atoms: C_12  and  C_14
REMARK    8  A    between atoms: C_16  and  S_17
REMARK    9  A    between atoms: S_17  and  N_18
REMARK   10  A    between atoms: C_23  and  O_24
REMARK   11  A    between atoms: O_24  and  C_25
REMARK                            x       y       z     vdW  Elec       q    Type
REMARK                         _______ _______ _______ _____ _____    ______ ____
ROOT
ATOM      1  N   UNL     1       2.256   7.495  19.371  0.00  0.00    +0.000 N 
ATOM      2  C   UNL     1       2.401   6.153  19.582  0.00  0.00    +0.000 C 
ATOM      3  O   UNL     1       1.950   5.667  20.606  0.00  0.00    +0.000 OA
ATOM      4  H   UNL     1       2.607   7.934  18.510  0.00  0.00    +0.000 HD
ENDROOT
BRANCH   2   5
ATOM      5  C   UNL     1       3.127   5.278  18.609  0.00  0.00    +0.000 A 
ATOM      6  C   UNL     1       4.477   5.601  18.345  0.00  0.00    +0.000 A 
ATOM      7  C   UNL     1       5.253   4.838  17.475  0.00  0.00    +0.000 A 
ATOM      8  C   UNL     1       4.710   3.722  16.853  0.00  0.00    +0.000 A 
ATOM      9  C   UNL     1       3.385   3.378  17.086  0.00  0.00    +0.000 A 
ATOM     10  C   UNL     1       2.564   4.131  17.940  0.00  0.00    +0.000 A 
BRANCH   7  11
ATOM     11  S   UNL     1       6.934   5.340  17.131  0.00  0.00    +0.000 S 
ATOM     12  O   UNL     1       7.235   5.596  15.646  0.00  0.00    +0.000 OA
ATOM     13  O   UNL     1       7.336   6.665  17.795  0.00  0.00    +0.000 OA
BRANCH  11  14
ATOM     14  N   UNL     1       8.152   4.186  17.666  0.00  0.00    +0.000 NA
ATOM     15  H   UNL     1       9.087   4.613  17.473  0.00  0.00    +0.000 HD
ATOM     16  H   UNL     1       8.065   3.347  17.048  0.00  0.00    +0.000 HD
ENDBRANCH  11  14
ENDBRANCH   7  11
BRANCH  10  17
ATOM     17  O   UNL     1       1.270   3.701  17.980  0.00  0.00    +0.000 OA
ATOM     18  C   UNL     1       0.667   2.678  18.676  0.00  0.00    +0.000 C 
ENDBRANCH  10  17
ENDBRANCH   2   5
BRANCH   1  19
ATOM     19  C   UNL     1       1.544   8.307  20.337  0.00  0.00    +0.000 C 
BRANCH  19  24
ATOM     20  N   UNL     1       0.400  10.645  20.587  0.00  0.00    +0.000 N 
ATOM     21  C   UNL     1       1.296  11.720  20.080  0.00  0.00    +0.000 C 
ATOM     22  C   UNL     1       1.332  11.540  18.570  0.00  0.00    +0.000 C 
ATOM     23  C   UNL     1       1.549  10.046  18.489  0.00  0.00    +0.000 C 
ATOM     24  C   UNL     1       0.750   9.464  19.691  0.00  0.00    +0.000 C 
BRANCH  20  26
ATOM     25  C   UNL     1      -1.505  12.436  20.463  0.00  0.00    +0.000 C 
ATOM     26  C   UNL     1      -1.055  10.970  20.298  0.00  0.00    +0.000 C 
ENDBRANCH  20  26
BRANCH  20  27
ATOM     27  C   UNL     1       0.503  10.478  22.088  0.00  0.00    +0.000 C 
ATOM     28  C   UNL     1      -0.665   9.854  22.886  0.00  0.00    +0.000 C 
ENDBRANCH  20  27
ENDBRANCH  19  24
ENDBRANCH   1  19
TORSDOF 8
ENDMDL
MODEL 3
REMARK VINA RESULT:      -7.1      1.672      2.741
REMARK  Name = 
REMARK  11 active torsions:
REMARK  status: ('A' for Active; 'I' for Inactive)
REMARK    1  A    between atoms: C_1  and  C_2
REMARK    2  A    between atoms: C_2  and  N_3
REMARK    3  A    between atoms: N_3  and  C_4
REMARK    4  A    between atoms: C_4  and  C_5
REMARK    5  A    between atoms: C_9  and  C_10
REMARK    6  A    between atoms: C_10  and  N_11
REMARK    7  A    between atoms: C_12  and  C_14
REMARK    8  A    between atoms: C_16  and  S_17
REMARK    9  A    between atoms: S_17  and  N_18
REMARK   10  A    between atoms: C_23  and  O_24
REMARK   11  A    between atoms: O_24  and  C_25
REMARK                            x       y       z     vdW  Elec       q    Type
REMARK                         _______ _______ _______ _____ _____    ______ ____
ROOT
ATOM      1  N   UNL     1       1.749   8.484  19.354  0.00  0.00    +0.000 N 
ATOM      2  C   UNL     1       2.485   8.018  18.301  0.00  0.00    +0.000 C 
ATOM      3  O   UNL     1       2.404   8.590  17.228  0.00  0.00    +0.000 OA
ATOM      4  H   UNL     1       1.808   8.038  20.277  0.00  0.00    +0.000 HD
ENDROOT
BRANCH   2   5
ATOM      5  C   UNL     1       3.354   6.805  18.427  0.00  0.00    +0.000 A 
ATOM      6  C   UNL     1       4.495   6.750  17.597  0.00  0.00    +0.000 A 
ATOM      7  C   UNL     1       5.385   5.680  17.650  0.00  0.00    +0.000 A 
ATOM      8  C   UNL     1       5.170   4.638  18.542  0.00  0.00    +0.000 A 
ATOM      9  C   UNL     1       4.054   4.657  19.370  0.00  0.00    +0.000 A 
ATOM     10  C   UNL     1       3.125   5.708  19.334  0.00  0.00    +0.000 A 
BRANCH   7  11
ATOM     11  S   UNL     1       6.774   5.637  16.525  0.00  0.00    +0.000 S 
ATOM     12  O   UNL     1       7.670   6.884  16.565  0.00  0.00    +0.000 OA
ATOM     13  O   UNL     1       7.763   4.495  16.801  0.00  0.00    +0.000 OA
BRANCH  11  14
ATOM     14  N   UNL     1       6.322   5.436  14.834  0.00  0.00    +0.000 NA
ATOM     15  H   UNL     1       5.309   5.680  14.756  0.00  0.00    +0.000 HD
ATOM     16  H   UNL     1       6.409   4.416  14.618  0.00  0.00    +0.000 HD
ENDBRANCH  11  14
ENDBRANCH   7  11
BRANCH  10  17
ATOM     17  O   UNL     1       2.047   5.517  20.149  0.00  0.00    +0.000 OA
ATOM     18  C   UNL     1       1.299   4.396  20.428  0.00  0.00    +0.000 C 
ENDBRANCH  10  17
ENDBRANCH   2   5
BRANCH   1  19
ATOM     19  C   UNL     1       0.921   9.663  19.192  0.00  0.00    +0.000 C 
BRANCH  19  24
ATOM     20  N   UNL     1      -0.073  11.743  20.426  0.00  0.00    +0.000 N 
ATOM     21  C   UNL     1      -1.149  11.326  21.366  0.00  0.00    +0.000 C 
ATOM     22  C   UNL     1      -0.441  10.591  22.494  0.00  0.00    +0.000 C 
ATOM     23  C   UNL     1       0.477   9.698  21.690  0.00  0.00    +0.000 C 
ATOM     24  C   UNL     1       0.878  10.553  20.454  0.00  0.00    +0.000 C 
BRANCH  20  26
ATOM     25  C   UNL     1       2.113  13.182  20.399  0.00  0.00    +0.000 C 
ATOM     26  C   UNL     1       0.712  12.917  20.986  0.00  0.00    +0.000 C 
ENDBRANCH  20  26
BRANCH  20  27
ATOM     27  C   UNL     1      -0.626  12.204  19.095  0.00  0.00    +0.000 C 
ATOM     28  C   UNL     1      -2.082  11.869  18.696  0.00  0.00    +0.000 C 
ENDBRANCH  20  27
ENDBRANCH  19  24
ENDBRANCH   1  19
TORSDOF 8
ENDMDL
MODEL 4
REMARK VINA RESULT:      -7.0      1.612      2.621
REMARK  Name = 
REMARK  11 active torsions:
REMARK  status: ('A' for Active; 'I' for Inactive)
REMARK    1  A    between atoms: C_1  and  C_2
REMARK    2  A    between atoms: C_2  and  N_3
REMARK    3  A    between atoms: N_3  and  C_4
REMARK    4  A    between atoms: C_4  and  C_5
REMARK    5  A    between atoms: C_9  and  C_10
REMARK    6  A    between atoms: C_10  and  N_11
REMARK    7  A    between atoms: C_12  and  C_14
REMARK    8  A    between atoms: C_16  and  S_17
REMARK    9  A    between atoms: S_17  and  N_18
REMARK   10  A    between atoms: C_23  and  O_24
REMARK   11  A    between atoms: O_24  and  C_25
REMARK                            x       y       z     vdW  Elec       q    Type
REMARK                         _______ _______ _______ _____ _____    ______ ____
ROOT
ATOM      1  N   UNL     1       1.830   8.147  19.405  0.00  0.00    +0.000 N 
ATOM      2  C   UNL     1       2.600   7.670  18.382  0.00  0.00    +0.000 C 
ATOM      3  O   UNL     1       2.648   8.299  17.338  0.00  0.00    +0.000 OA
ATOM      4  H   UNL     1       1.782   7.653  20.304  0.00  0.00    +0.000 HD
ENDROOT
BRANCH   2   5
ATOM      5  C   UNL     1       3.352   6.381  18.501  0.00  0.00    +0.000 A 
ATOM      6  C   UNL     1       4.567   6.283  17.787  0.00  0.00    +0.000 A 
ATOM      7  C   UNL     1       5.359   5.138  17.847  0.00  0.00    +0.000 A 
ATOM      8  C   UNL     1       4.968   4.061  18.632  0.00  0.00    +0.000 A 
ATOM      9  C   UNL     1       3.777   4.121  19.343  0.00  0.00    +0.000 A 
ATOM     10  C   UNL     1       2.942   5.248  19.295  0.00  0.00    +0.000 A 
BRANCH   7  11
ATOM     11  S   UNL     1       6.850   5.051  16.866  0.00  0.00    +0.000 S 
ATOM     12  O   UNL     1       6.662   4.452  15.464  0.00  0.00    +0.000 OA
ATOM     13  O   UNL     1       7.482   6.420  16.571  0.00  0.00    +0.000 OA
BRANCH  11  14
ATOM     14  N   UNL     1       8.145   4.114  17.608  0.00  0.00    +0.000 NA
ATOM     15  H   UNL     1       8.573   4.715  18.350  0.00  0.00    +0.000 HD
ATOM     16  H   UNL     1       8.873   3.970  16.872  0.00  0.00    +0.000 HD
ENDBRANCH  11  14
ENDBRANCH   7  11
BRANCH  10  17
ATOM     17  O   UNL     1       1.773   5.097  19.981  0.00  0.00    +0.000 OA
ATOM     18  C   UNL     1       1.051   3.976  20.321  0.00  0.00    +0.000 C 
ENDBRANCH  10  17
ENDBRANCH   2   5
BRANCH   1  19
ATOM     19  C   UNL     1       1.119   9.401  19.251  0.00  0.00    +0.000 C 
BRANCH  19  24
ATOM     20  N   UNL     1      -0.156  11.136  20.735  0.00  0.00    +0.000 N 
ATOM     21  C   UNL     1      -0.934  10.441  21.796  0.00  0.00    +0.000 C 
ATOM     22  C   UNL     1       0.101   9.889  22.765  0.00  0.00    +0.000 C 
ATOM     23  C   UNL     1       1.075   9.274  21.784  0.00  0.00    +0.000 C 
ATOM     24  C   UNL     1       1.053  10.226  20.555  0.00  0.00    +0.000 C 
BRANCH  20  26
ATOM     25  C   UNL     1      -0.512  13.294  22.172  0.00  0.00    +0.000 C 
ATOM     26  C   UNL     1       0.390  12.459  21.241  0.00  0.00    +0.000 C 
ENDBRANCH  20  26
BRANCH  20  27
ATOM     27  C   UNL     1      -1.007  11.466  19.528  0.00  0.00    +0.000 C 
ATOM     28  C   UNL     1      -0.630  12.648  18.606  0.00  0.00    +0.000 C 
ENDBRANCH  20  27
ENDBRANCH  19  24
ENDBRANCH   1  19
TORSDOF 8
ENDMDL
MODEL 5
REMARK VINA RESULT:      -7.0      1.302      1.509
REMARK  Name = 
REMARK  11 active torsions:
REMARK  status: ('A' for Active; 'I' for Inactive)
REMARK    1  A    between atoms: C_1  and  C_2
REMARK    2  A    between atoms: C_2  and  N_3
REMARK    3  A    between atoms: N_3  and  C_4
REMARK    4  A    between atoms: C_4  and  C_5
REMARK    5  A    between atoms: C_9  and  C_10
REMARK    6  A    between atoms: C_10  and  N_11
REMARK    7  A    between atoms: C_12  and  C_14
REMARK    8  A    between atoms: C_16  and  S_17
REMARK    9  A    between atoms: S_17  and  N_18
REMARK   10  A    between atoms: C_23  and  O_24
REMARK   11  A    between atoms: O_24  and  C_25
REMARK                            x       y       z     vdW  Elec       q    Type
REMARK                         _______ _______ _______ _____ _____    ______ ____
ROOT
ATOM      1  N   UNL     1       2.157   7.634  19.670  0.00  0.00    +0.000 N 
ATOM      2  C   UNL     1       2.134   6.288  19.906  0.00  0.00    +0.000 C 
ATOM      3  O   UNL     1       1.368   5.851  20.748  0.00  0.00    +0.000 OA
ATOM      4  H   UNL     1       2.776   8.033  18.954  0.00  0.00    +0.000 HD
ENDROOT
BRANCH   2   5
ATOM      5  C   UNL     1       3.049   5.348  19.184  0.00  0.00    +0.000 A 
ATOM      6  C   UNL     1       4.428   5.655  19.209  0.00  0.00    +0.000 A 
ATOM      7  C   UNL     1       5.369   4.835  18.591  0.00  0.00    +0.000 A 
ATOM      8  C   UNL     1       4.965   3.677  17.940  0.00  0.00    +0.000 A 
ATOM      9  C   UNL     1       3.616   3.347  17.891  0.00  0.00    +0.000 A 
ATOM     10  C   UNL     1       2.635   4.156  18.485  0.00  0.00    +0.000 A 
BRANCH   7  11
ATOM     11  S   UNL     1       7.091   5.315  18.600  0.00  0.00    +0.000 S 
ATOM     12  O   UNL     1       7.376   6.692  17.981  0.00  0.00    +0.000 OA
ATOM     13  O   UNL     1       7.695   5.440  20.006  0.00  0.00    +0.000 OA
BRANCH  11  14
ATOM     14  N   UNL     1       8.154   4.191  17.758  0.00  0.00    +0.000 NA
ATOM     15  H   UNL     1       8.586   4.714  16.962  0.00  0.00    +0.000 HD
ATOM     16  H   UNL     1       7.543   3.451  17.342  0.00  0.00    +0.000 HD
ENDBRANCH  11  14
ENDBRANCH   7  11
BRANCH  10  17
ATOM     17  O   UNL     1       1.359   3.727  18.262  0.00  0.00    +0.000 OA
ATOM     18  C   UNL     1       0.636   2.690  18.803  0.00  0.00    +0.000 C 
ENDBRANCH  10  17
ENDBRANCH   2   5
BRANCH   1  19
ATOM     19  C   UNL     1       1.253   8.509  20.389  0.00  0.00    +0.000 C 
BRANCH  19  24
ATOM     20  N   UNL     1       0.200  10.899  20.259  0.00  0.00    +0.000 N 
ATOM     21  C   UNL     1       1.249  11.915  19.969  0.00  0.00    +0.000 C 
ATOM     22  C   UNL     1       1.665  11.668  18.526  0.00  0.00    +0.000 C 
ATOM     23  C   UNL     1       1.821  10.164  18.552  0.00  0.00    +0.000 C 
ATOM     24  C   UNL     1       0.712   9.668  19.523  0.00  0.00    +0.000 C 
BRANCH  20  26
ATOM     25  C   UNL     1      -1.679  10.291  18.542  0.00  0.00    +0.000 C 
ATOM     26  C   UNL     1      -1.113  11.268  19.592  0.00  0.00    +0.000 C 
ENDBRANCH  20  26
BRANCH  20  27
ATOM     27  C   UNL     1      -0.095  10.793  21.740  0.00  0.00    +0.000 C 
ATOM     28  C   UNL     1      -0.844  11.932  22.470  0.00  0.00    +0.000 C 
ENDBRANCH  20  27
ENDBRANCH  19  24
ENDBRANCH   1  19
TORSDOF 8
ENDMDL
MODEL 6
REMARK VINA RESULT:      -6.9      1.159      1.875
REMARK  Name = 
REMARK  11 active torsions:
REMARK  status: ('A' for Active; 'I' for Inactive)
REMARK    1  A    between atoms: C_1  and  C_2
REMARK    2  A    between atoms: C_2  and  N_3
REMARK    3  A    between atoms: N_3  and  C_4
REMARK    4  A    between atoms: C_4  and  C_5
REMARK    5  A    between atoms: C_9  and  C_10
REMARK    6  A    between atoms: C_10  and  N_11
REMARK    7  A    between atoms: C_12  and  C_14
REMARK    8  A    between atoms: C_16  and  S_17
REMARK    9  A    between atoms: S_17  and  N_18
REMARK   10  A    between atoms: C_23  and  O_24
REMARK   11  A    between atoms: O_24  and  C_25
REMARK                            x       y       z     vdW  Elec       q    Type
REMARK                         _______ _______ _______ _____ _____    ______ ____
ROOT
ATOM      1  N   UNL     1       2.397   8.606  17.633  0.00  0.00    +0.000 N 
ATOM      2  C   UNL     1       2.598   7.576  18.508  0.00  0.00    +0.000 C 
ATOM      3  O   UNL     1       2.263   7.719  19.672  0.00  0.00    +0.000 OA
ATOM      4  H   UNL     1       2.650   8.512  16.641  0.00  0.00    +0.000 HD
ENDROOT
BRANCH   2   5
ATOM      5  C   UNL     1       3.252   6.299  18.081  0.00  0.00    +0.000 A 
ATOM      6  C   UNL     1       4.530   6.403  17.490  0.00  0.00    +0.000 A 
ATOM      7  C   UNL     1       5.239   5.276  17.080  0.00  0.00    +0.000 A 
ATOM      8  C   UNL     1       4.698   4.009  17.259  0.00  0.00    +0.000 A 
ATOM      9  C   UNL     1       3.441   3.870  17.833  0.00  0.00    +0.000 A 
ATOM     10  C   UNL     1       2.688   4.981  18.243  0.00  0.00    +0.000 A 
BRANCH   7  11
ATOM     11  S   UNL     1       6.822   5.480  16.276  0.00  0.00    +0.000 S 
ATOM     12  O   UNL     1       7.850   4.384  16.596  0.00  0.00    +0.000 OA
ATOM     13  O   UNL     1       6.750   5.443  14.742  0.00  0.00    +0.000 OA
BRANCH  11  14
ATOM     14  N   UNL     1       7.626   7.003  16.647  0.00  0.00    +0.000 NA
ATOM     15  H   UNL     1       7.641   7.096  17.689  0.00  0.00    +0.000 HD
ATOM     16  H   UNL     1       7.012   7.765  16.280  0.00  0.00    +0.000 HD
ENDBRANCH  11  14
ENDBRANCH   7  11
BRANCH  10  17
ATOM     17  O   UNL     1       1.443   4.663  18.700  0.00  0.00    +0.000 OA
ATOM     18  C   UNL     1       1.022   3.779  19.667  0.00  0.00    +0.000 C 
ENDBRANCH  10  17
ENDBRANCH   2   5
BRANCH   1  19
ATOM     19  C   UNL     1       1.758   9.826  18.085  0.00  0.00    +0.000 C 
BRANCH  19  24
ATOM     20  N   UNL     1       0.014  10.453  19.930  0.00  0.00    +0.000 N 
ATOM     21  C   UNL     1      -1.027  11.361  19.376  0.00  0.00    +0.000 C 
ATOM     22  C   UNL     1      -1.854  10.503  18.430  0.00  0.00    +0.000 C 
ATOM     23  C   UNL     1      -0.746   9.802  17.676  0.00  0.00    +0.000 C 
ATOM     24  C   UNL     1       0.376   9.584  18.731  0.00  0.00    +0.000 C 
BRANCH  20  26
ATOM     25  C   UNL     1       0.281   9.165  22.193  0.00  0.00    +0.000 C 
ATOM     26  C   UNL     1      -0.581   9.511  20.962  0.00  0.00    +0.000 C 
ENDBRANCH  20  26
BRANCH  20  27
ATOM     27  C   UNL     1       1.114  11.212  20.639  0.00  0.00    +0.000 C 
ATOM     28  C   UNL     1       1.081  12.757  20.703  0.00  0.00    +0.000 C 
ENDBRANCH  20  27
ENDBRANCH  19  24
ENDBRANCH   1  19
TORSDOF 8
ENDMDL
MODEL 7
REMARK VINA RESULT:      -6.9      1.636      2.604
REMARK  Name = 
REMARK  11 active torsions:
REMARK  status: ('A' for Active; 'I' for Inactive)
REMARK    1  A    between atoms: C_1  and  C_2
REMARK    2  A    between atoms: C_2  and  N_3
REMARK    3  A    between atoms: N_3  and  C_4
REMARK    4  A    between atoms: C_4  and  C_5
REMARK    5  A    between atoms: C_9  and  C_10
REMARK    6  A    between atoms: C_10  and  N_11
REMARK    7  A    between atoms: C_12  and  C_14
REMARK    8  A    between atoms: C_16  and  S_17
REMARK    9  A    between atoms: S_17  and  N_18
REMARK   10  A    between atoms: C_23  and  O_24
REMARK   11  A    between atoms: O_24  and  C_25
REMARK                            x       y       z     vdW  Elec       q    Type
REMARK                         _______ _______ _______ _____ _____    ______ ____
ROOT
ATOM      1  N   UNL     1       2.017   8.629  18.869  0.00  0.00    +0.000 N 
ATOM      2  C   UNL     1       2.781   8.003  17.925  0.00  0.00    +0.000 C 
ATOM      3  O   UNL     1       2.824   8.470  16.799  0.00  0.00    +0.000 OA
ATOM      4  H   UNL     1       1.973   8.274  19.832  0.00  0.00    +0.000 HD
ENDROOT
BRANCH   2   5
ATOM      5  C   UNL     1       3.530   6.743  18.230  0.00  0.00    +0.000 A 
ATOM      6  C   UNL     1       4.672   6.474  17.444  0.00  0.00    +0.000 A 
ATOM      7  C   UNL     1       5.457   5.344  17.659  0.00  0.00    +0.000 A 
ATOM      8  C   UNL     1       5.132   4.453  18.675  0.00  0.00    +0.000 A 
ATOM      9  C   UNL     1       4.013   4.684  19.464  0.00  0.00    +0.000 A 
ATOM     10  C   UNL     1       3.187   5.801  19.267  0.00  0.00    +0.000 A 
BRANCH   7  11
ATOM     11  S   UNL     1       6.850   5.025  16.585  0.00  0.00    +0.000 S 
ATOM     12  O   UNL     1       7.558   6.284  16.062  0.00  0.00    +0.000 OA
ATOM     13  O   UNL     1       7.989   4.246  17.258  0.00  0.00    +0.000 OA
BRANCH  11  14
ATOM     14  N   UNL     1       6.450   4.080  15.153  0.00  0.00    +0.000 NA
ATOM     15  H   UNL     1       6.020   3.186  15.484  0.00  0.00    +0.000 HD
ATOM     16  H   UNL     1       7.356   3.832  14.693  0.00  0.00    +0.000 HD
ENDBRANCH  11  14
ENDBRANCH   7  11
BRANCH  10  17
ATOM     17  O   UNL     1       2.085   5.820  20.072  0.00  0.00    +0.000 OA
ATOM     18  C   UNL     1       1.377   4.806  20.675  0.00  0.00    +0.000 C 
ENDBRANCH  10  17
ENDBRANCH   2   5
BRANCH   1  19
ATOM     19  C   UNL     1       1.308   9.849  18.534  0.00  0.00    +0.000 C 
BRANCH  19  24
ATOM     20  N   UNL     1      -0.026  11.233  20.306  0.00  0.00    +0.000 N 
ATOM     21  C   UNL     1      -0.976  12.160  19.634  0.00  0.00    +0.000 C 
ATOM     22  C   UNL     1      -2.059  11.273  19.038  0.00  0.00    +0.000 C 
ATOM     23  C   UNL     1      -1.199  10.209  18.394  0.00  0.00    +0.000 C 
ATOM     24  C   UNL     1       0.014  10.044  19.354  0.00  0.00    +0.000 C 
BRANCH  20  26
ATOM     25  C   UNL     1      -1.052  11.740  22.660  0.00  0.00    +0.000 C 
ATOM     26  C   UNL     1      -0.609  10.705  21.606  0.00  0.00    +0.000 C 
ENDBRANCH  20  26
BRANCH  20  27
ATOM     27  C   UNL     1       1.273  11.916  20.675  0.00  0.00    +0.000 C 
ATOM     28  C   UNL     1       1.453  13.433  20.435  0.00  0.00    +0.000 C 
ENDBRANCH  20  27
ENDBRANCH  19  24
ENDBRANCH   1  19
TORSDOF 8
ENDMDL
MODEL 8
REMARK VINA RESULT:      -6.8      1.485      2.491
REMARK  Name = 
REMARK  11 active torsions:
REMARK  status: ('A' for Active; 'I' for Inactive)
REMARK    1  A    between atoms: C_1  and  C_2
REMARK    2  A    between atoms: C_2  and  N_3
REMARK    3  A    between atoms: N_3  and  C_4
REMARK    4  A    between atoms: C_4  and  C_5
REMARK    5  A    between atoms: C_9  and  C_10
REMARK    6  A    between atoms: C_10  and  N_11
REMARK    7  A    between atoms: C_12  and  C_14
REMARK    8  A    between atoms: C_16  and  S_17
REMARK    9  A    between atoms: S_17  and  N_18
REMARK   10  A    between atoms: C_23  and  O_24
REMARK   11  A    between atoms: O_24  and  C_25
REMARK                            x       y       z     vdW  Elec       q    Type
REMARK                         _______ _______ _______ _____ _____    ______ ____
ROOT
ATOM      1  N   UNL     1       1.613   8.200  19.154  0.00  0.00    +0.000 N 
ATOM      2  C   UNL     1       2.468   7.900  18.131  0.00  0.00    +0.000 C 
ATOM      3  O   UNL     1       2.556   8.674  17.193  0.00  0.00    +0.000 OA
ATOM      4  H   UNL     1       1.528   7.580  19.969  0.00  0.00    +0.000 HD
ENDROOT
BRANCH   2   5
ATOM      5  C   UNL     1       3.265   6.633  18.120  0.00  0.00    +0.000 A 
ATOM      6  C   UNL     1       4.508   6.667  17.451  0.00  0.00    +0.000 A 
ATOM      7  C   UNL     1       5.342   5.552  17.401  0.00  0.00    +0.000 A 
ATOM      8  C   UNL     1       4.965   4.372  18.028  0.00  0.00    +0.000 A 
ATOM      9  C   UNL     1       3.746   4.301  18.690  0.00  0.00    +0.000 A 
ATOM     10  C   UNL     1       2.871   5.396  18.748  0.00  0.00    +0.000 A 
BRANCH   7  11
ATOM     11  S   UNL     1       6.871   5.641  16.480  0.00  0.00    +0.000 S 
ATOM     12  O   UNL     1       7.882   4.531  16.808  0.00  0.00    +0.000 OA
ATOM     13  O   UNL     1       6.692   5.502  14.961  0.00  0.00    +0.000 OA
BRANCH  11  14
ATOM     14  N   UNL     1       7.748   7.154  16.688  0.00  0.00    +0.000 NA
ATOM     15  H   UNL     1       7.425   7.803  15.935  0.00  0.00    +0.000 HD
ATOM     16  H   UNL     1       8.756   6.947  16.503  0.00  0.00    +0.000 HD
ENDBRANCH  11  14
ENDBRANCH   7  11
BRANCH  10  17
ATOM     17  O   UNL     1       1.683   5.120  19.361  0.00  0.00    +0.000 OA
ATOM     18  C   UNL     1       1.375   4.834  20.672  0.00  0.00    +0.000 C 
ENDBRANCH  10  17
ENDBRANCH   2   5
BRANCH   1  19
ATOM     19  C   UNL     1       0.861   9.439  19.129  0.00  0.00    +0.000 C 
BRANCH  19  24
ATOM     20  N   UNL     1       0.120  11.500  20.557  0.00  0.00    +0.000 N 
ATOM     21  C   UNL     1      -0.900  11.097  21.563  0.00  0.00    +0.000 C 
ATOM     22  C   UNL     1      -0.153  10.252  22.583  0.00  0.00    +0.000 C 
ATOM     23  C   UNL     1       0.631   9.352  21.654  0.00  0.00    +0.000 C 
ATOM     24  C   UNL     1       0.985  10.252  20.436  0.00  0.00    +0.000 C 
BRANCH  20  26
ATOM     25  C   UNL     1       0.362  13.866  21.651  0.00  0.00    +0.000 C 
ATOM     26  C   UNL     1       1.028  12.585  21.109  0.00  0.00    +0.000 C 
ENDBRANCH  20  26
BRANCH  20  27
ATOM     27  C   UNL     1      -0.510  12.075  19.306  0.00  0.00    +0.000 C 
ATOM     28  C   UNL     1      -2.045  12.048  19.122  0.00  0.00    +0.000 C 
ENDBRANCH  20  27
ENDBRANCH  19  24
ENDBRANCH   1  19
TORSDOF 8
ENDMDL
MODEL 9
REMARK VINA RESULT:      -6.7      3.599      8.038
REMARK  Name = 
REMARK  11 active torsions:
REMARK  status: ('A' for Active; 'I' for Inactive)
REMARK    1  A    between atoms: C_1  and  C_2
REMARK    2  A    between atoms: C_2  and  N_3
REMARK    3  A    between atoms: N_3  and  C_4
REMARK    4  A    between atoms: C_4  and  C_5
REMARK    5  A    between atoms: C_9  and  C_10
REMARK    6  A    between atoms: C_10  and  N_11
REMARK    7  A    between atoms: C_12  and  C_14
REMARK    8  A    between atoms: C_16  and  S_17
REMARK    9  A    between atoms: S_17  and  N_18
REMARK   10  A    between atoms: C_23  and  O_24
REMARK   11  A    between atoms: O_24  and  C_25
REMARK                            x       y       z     vdW  Elec       q    Type
REMARK                         _______ _______ _______ _____ _____    ______ ____
ROOT
ATOM      1  N   UNL     1       3.244   7.480  18.271  0.00  0.00    +0.000 N 
ATOM      2  C   UNL     1       2.380   8.520  18.080  0.00  0.00    +0.000 C 
ATOM      3  O   UNL     1       2.414   9.126  17.022  0.00  0.00    +0.000 OA
ATOM      4  H   UNL     1       3.229   6.935  19.142  0.00  0.00    +0.000 HD
ENDROOT
BRANCH   2   5
ATOM      5  C   UNL     1       1.423   8.953  19.147  0.00  0.00    +0.000 A 
ATOM      6  C   UNL     1       0.686  10.133  18.902  0.00  0.00    +0.000 A 
ATOM      7  C   UNL     1      -0.249  10.612  19.816  0.00  0.00    +0.000 A 
ATOM      8  C   UNL     1      -0.487   9.921  20.997  0.00  0.00    +0.000 A 
ATOM      9  C   UNL     1       0.224   8.760  21.273  0.00  0.00    +0.000 A 
ATOM     10  C   UNL     1       1.187   8.254  20.386  0.00  0.00    +0.000 A 
BRANCH   7  11
ATOM     11  S   UNL     1      -1.099  12.148  19.479  0.00  0.00    +0.000 S 
ATOM     12  O   UNL     1      -2.511  12.245  20.076  0.00  0.00    +0.000 OA
ATOM     13  O   UNL     1      -0.398  13.387  20.055  0.00  0.00    +0.000 OA
BRANCH  11  14
ATOM     14  N   UNL     1      -1.288  12.502  17.763  0.00  0.00    +0.000 NA
ATOM     15  H   UNL     1      -2.055  13.207  17.678  0.00  0.00    +0.000 HD
ATOM     16  H   UNL     1      -1.628  11.623  17.310  0.00  0.00    +0.000 HD
ENDBRANCH  11  14
ENDBRANCH   7  11
BRANCH  10  17
ATOM     17  O   UNL     1       1.849   7.159  20.859  0.00  0.00    +0.000 OA
ATOM     18  C   UNL     1       1.513   5.824  20.873  0.00  0.00    +0.000 C 
ENDBRANCH  10  17
ENDBRANCH   2   5
BRANCH   1  19
ATOM     19  C   UNL     1       4.153   7.090  17.211  0.00  0.00    +0.000 C 
BRANCH  19  24
ATOM     20  N   UNL     1       5.671   4.962  17.294  0.00  0.00    +0.000 N 
ATOM     21  C   UNL     1       5.509   4.257  18.594  0.00  0.00    +0.000 C 
ATOM     22  C   UNL     1       4.113   3.654  18.558  0.00  0.00    +0.000 C 
ATOM     23  C   UNL     1       3.327   4.842  18.050  0.00  0.00    +0.000 C 
ATOM     24  C   UNL     1       4.289   5.559  17.060  0.00  0.00    +0.000 C 
BRANCH  20  26
ATOM     25  C   UNL     1       5.604   4.453  14.727  0.00  0.00    +0.000 C 
ATOM     26  C   UNL     1       5.895   3.973  16.164  0.00  0.00    +0.000 C 
ENDBRANCH  20  26
BRANCH  20  27
ATOM     27  C   UNL     1       6.873   5.882  17.291  0.00  0.00    +0.000 C 
ATOM     28  C   UNL     1       7.654   6.151  18.598  0.00  0.00    +0.000 C 
ENDBRANCH  20  27
ENDBRANCH  19  24
ENDBRANCH   1  19
TORSDOF 8
ENDMDL
