MODEL 1
REMARK VINA RESULT:      -7.5      0.000      0.000
REMARK  Name = 
REMARK  8 active torsions:
REMARK  status: ('A' for Active; 'I' for Inactive)
REMARK    1  A    between atoms: C_1  and  C_2
REMARK    2  A    between atoms: C_2  and  O_3
REMARK    3  A    between atoms: O_3  and  C_4
REMARK    4  A    between atoms: C_7  and  N_8
REMARK    5  A    between atoms: C_14  and  S_15
REMARK    6  A    between atoms: S_15  and  N_18
REMARK    7  A    between atoms: N_18  and  C_19
REMARK    8  A    between atoms: C_19  and  C_20
REMARK                            x       y       z     vdW  Elec       q    Type
REMARK                         _______ _______ _______ _____ _____    ______ ____
ROOT
ATOM      1  C   UNL     1       4.220   4.456  19.420  0.00  0.00    +0.000 A 
ATOM      2  C   UNL     1       3.046   4.644  20.168  0.00  0.00    +0.000 A 
ATOM      3  C   UNL     1       2.303   5.819  20.072  0.00  0.00    +0.000 A 
ATOM      4  C   UNL     1       2.748   6.850  19.246  0.00  0.00    +0.000 A 
ATOM      5  C   UNL     1       3.970   6.714  18.565  0.00  0.00    +0.000 A 
ATOM      6  C   UNL     1       4.708   5.517  18.647  0.00  0.00    +0.000 A 
ENDROOT
BRANCH   4   7
ATOM      7  N   UNL     1       1.977   8.028  19.093  0.00  0.00    +0.000 N 
ATOM      8  C   UNL     1       1.313   8.764  20.042  0.00  0.00    +0.000 A 
ATOM      9  N   UNL     1       0.674   9.750  19.456  0.00  0.00    +0.000 NA
ATOM     10  N   UNL     1       0.950   9.629  18.120  0.00  0.00    +0.000 NA
ATOM     11  N   UNL     1       1.741   8.591  17.887  0.00  0.00    +0.000 NA
ENDBRANCH   4   7
BRANCH   6  12
ATOM     12  S   UNL     1       6.325   5.482  17.871  0.00  0.00    +0.000 S 
ATOM     13  O   UNL     1       6.407   6.662  17.036  0.00  0.00    +0.000 OA
ATOM     14  O   UNL     1       7.338   5.195  18.861  0.00  0.00    +0.000 OA
BRANCH  12  15
ATOM     15  N   UNL     1       6.290   4.129  16.865  0.00  0.00    +0.000 NA
ATOM     16  H   UNL     1       6.430   3.243  17.344  0.00  0.00    +0.000 HD
BRANCH  15  17
ATOM     17  C   UNL     1       5.352   4.125  15.740  0.00  0.00    +0.000 C 
BRANCH  17  18
ATOM     18  C   UNL     1       6.055   4.243  14.406  0.00  0.00    +0.000 A 
ATOM     19  C   UNL     1       7.244   4.972  14.288  0.00  0.00    +0.000 A 
ATOM     20  C   UNL     1       7.916   5.052  13.069  0.00  0.00    +0.000 A 
ATOM     21  C   UNL     1       7.406   4.399  11.950  0.00  0.00    +0.000 A 
ATOM     22  C   UNL     1       6.223   3.667  12.048  0.00  0.00    +0.000 A 
ATOM     23  C   UNL     1       5.550   3.588  13.269  0.00  0.00    +0.000 A 
ENDBRANCH  17  18
ENDBRANCH  15  17
ENDBRANCH  12  15
ENDBRANCH   6  12
BRANCH   1  24
ATOM     24  O   UNL     1       4.895   3.270  19.450  0.00  0.00    +0.000 OA
BRANCH  24  26
ATOM     25  C   UNL     1       3.569   1.838  18.061  0.00  0.00    +0.000 C 
ATOM     26  C   UNL     1       4.096   2.084  19.460  0.00  0.00    +0.000 C 
ENDBRANCH  24  26
ENDBRANCH   1  24
TORSDOF 7
ENDMDL
MODEL 2
REMARK VINA RESULT:      -7.5      2.731      4.223
REMARK  Name = 
REMARK  8 active torsions:
REMARK  status: ('A' for Active; 'I' for Inactive)
REMARK    1  A    between atoms: C_1  and  C_2
REMARK    2  A    between atoms: C_2  and  O_3
REMARK    3  A    between atoms: O_3  and  C_4
REMARK    4  A    between atoms: C_7  and  N_8
REMARK    5  A    between atoms: C_14  and  S_15
REMARK    6  A    between atoms: S_15  and  N_18
REMARK    7  A    between atoms: N_18  and  C_19
REMARK    8  A    between atoms: C_19  and  C_20
REMARK                            x       y       z     vdW  Elec       q    Type
REMARK                         _______ _______ _______ _____ _____    ______ ____
ROOT
ATOM      1  C   UNL     1       5.402   6.545  17.147  0.00  0.00    +0.000 A 
ATOM      2  C   UNL     1       4.307   7.128  17.804  0.00  0.00    +0.000 A 
ATOM      3  C   UNL     1       3.263   6.352  18.305  0.00  0.00    +0.000 A 
ATOM      4  C   UNL     1       3.282   4.970  18.122  0.00  0.00    +0.000 A 
ATOM      5  C   UNL     1       4.324   4.383  17.383  0.00  0.00    +0.000 A 
ATOM      6  C   UNL     1       5.389   5.166  16.896  0.00  0.00    +0.000 A 
ENDROOT
BRANCH   4   7
ATOM      7  N   UNL     1       2.259   4.160  18.673  0.00  0.00    +0.000 N 
ATOM      8  C   UNL     1       1.722   2.990  18.196  0.00  0.00    +0.000 A 
ATOM      9  N   UNL     1       0.752   2.603  18.992  0.00  0.00    +0.000 NA
ATOM     10  N   UNL     1       0.689   3.545  19.985  0.00  0.00    +0.000 NA
ATOM     11  N   UNL     1       1.598   4.492  19.804  0.00  0.00    +0.000 NA
ENDBRANCH   4   7
BRANCH   6  12
ATOM     12  S   UNL     1       6.596   4.365  15.839  0.00  0.00    +0.000 S 
ATOM     13  O   UNL     1       7.871   4.474  16.515  0.00  0.00    +0.000 OA
ATOM     14  O   UNL     1       6.090   3.085  15.399  0.00  0.00    +0.000 OA
BRANCH  12  15
ATOM     15  N   UNL     1       6.655   5.321  14.452  0.00  0.00    +0.000 NA
ATOM     16  H   UNL     1       6.724   6.320  14.630  0.00  0.00    +0.000 HD
BRANCH  15  17
ATOM     17  C   UNL     1       7.383   4.811  13.288  0.00  0.00    +0.000 C 
BRANCH  17  18
ATOM     18  C   UNL     1       6.555   3.845  12.470  0.00  0.00    +0.000 A 
ATOM     19  C   UNL     1       7.145   2.722  11.878  0.00  0.00    +0.000 A 
ATOM     20  C   UNL     1       6.378   1.809  11.156  0.00  0.00    +0.000 A 
ATOM     21  C   UNL     1       5.006   2.006  11.020  0.00  0.00    +0.000 A 
ATOM     22  C   UNL     1       4.401   3.118  11.603  0.00  0.00    +0.000 A 
ATOM     23  C   UNL     1       5.169   4.034  12.326  0.00  0.00    +0.000 A 
ENDBRANCH  17  18
ENDBRANCH  15  17
ENDBRANCH  12  15
ENDBRANCH   6  12
BRANCH   1  24
ATOM     24  O   UNL     1       6.464   7.299  16.737  0.00  0.00    +0.000 OA
BRANCH  24  26
ATOM     25  C   UNL     1       7.937   8.923  17.700  0.00  0.00    +0.000 C 
ATOM     26  C   UNL     1       7.528   7.464  17.678  0.00  0.00    +0.000 C 
ENDBRANCH  24  26
ENDBRANCH   1  24
TORSDOF 7
ENDMDL
MODEL 3
REMARK VINA RESULT:      -7.3      1.432      1.990
REMARK  Name = 
REMARK  8 active torsions:
REMARK  status: ('A' for Active; 'I' for Inactive)
REMARK    1  A    between atoms: C_1  and  C_2
REMARK    2  A    between atoms: C_2  and  O_3
REMARK    3  A    between atoms: O_3  and  C_4
REMARK    4  A    between atoms: C_7  and  N_8
REMARK    5  A    between atoms: C_14  and  S_15
REMARK    6  A    between atoms: S_15  and  N_18
REMARK    7  A    between atoms: N_18  and  C_19
REMARK    8  A    between atoms: C_19  and  C_20
REMARK                            x       y       z     vdW  Elec       q    Type
REMARK                         _______ _______ _______ _____ _____    ______ ____
ROOT
ATOM      1  C   UNL     1       2.834   4.391  19.932  0.00  0.00    +0.000 A 
ATOM      2  C   UNL     1       1.999   5.156  20.763  0.00  0.00    +0.000 A 
ATOM      3  C   UNL     1       1.699   6.484  20.467  0.00  0.00    +0.000 A 
ATOM      4  C   UNL     1       2.264   7.085  19.344  0.00  0.00    +0.000 A 
ATOM      5  C   UNL     1       3.176   6.361  18.556  0.00  0.00    +0.000 A 
ATOM      6  C   UNL     1       3.461   5.012  18.844  0.00  0.00    +0.000 A 
ENDROOT
BRANCH   4   7
ATOM      7  N   UNL     1       1.926   8.415  18.996  0.00  0.00    +0.000 N 
ATOM      8  C   UNL     1       2.277   9.141  17.885  0.00  0.00    +0.000 A 
ATOM      9  N   UNL     1       1.794  10.358  17.993  0.00  0.00    +0.000 NA
ATOM     10  N   UNL     1       1.127  10.387  19.189  0.00  0.00    +0.000 NA
ATOM     11  N   UNL     1       1.198   9.216  19.805  0.00  0.00    +0.000 NA
ENDBRANCH   4   7
BRANCH   6  12
ATOM     12  S   UNL     1       4.745   4.209  17.883  0.00  0.00    +0.000 S 
ATOM     13  O   UNL     1       5.924   4.170  18.722  0.00  0.00    +0.000 OA
ATOM     14  O   UNL     1       4.222   3.008  17.271  0.00  0.00    +0.000 OA
BRANCH  12  15
ATOM     15  N   UNL     1       5.047   5.264  16.603  0.00  0.00    +0.000 NA
ATOM     16  H   UNL     1       4.496   6.118  16.621  0.00  0.00    +0.000 HD
BRANCH  15  17
ATOM     17  C   UNL     1       6.421   5.381  16.110  0.00  0.00    +0.000 C 
BRANCH  17  18
ATOM     18  C   UNL     1       6.569   4.867  14.695  0.00  0.00    +0.000 A 
ATOM     19  C   UNL     1       5.663   3.936  14.175  0.00  0.00    +0.000 A 
ATOM     20  C   UNL     1       5.773   3.489  12.859  0.00  0.00    +0.000 A 
ATOM     21  C   UNL     1       6.792   3.973  12.043  0.00  0.00    +0.000 A 
ATOM     22  C   UNL     1       7.703   4.902  12.542  0.00  0.00    +0.000 A 
ATOM     23  C   UNL     1       7.594   5.349  13.861  0.00  0.00    +0.000 A 
ENDBRANCH  17  18
ENDBRANCH  15  17
ENDBRANCH  12  15
ENDBRANCH   6  12
BRANCH   1  24
ATOM     24  O   UNL     1       3.053   3.066  20.177  0.00  0.00    +0.000 OA
BRANCH  24  26
ATOM     25  C   UNL     1       1.239   2.174  18.893  0.00  0.00    +0.000 C 
ATOM     26  C   UNL     1       1.893   2.234  20.259  0.00  0.00    +0.000 C 
ENDBRANCH  24  26
ENDBRANCH   1  24
TORSDOF 7
ENDMDL
MODEL 4
REMARK VINA RESULT:      -7.3      2.669      4.168
REMARK  Name = 
REMARK  8 active torsions:
REMARK  status: ('A' for Active; 'I' for Inactive)
REMARK    1  A    between atoms: C_1  and  C_2
REMARK    2  A    between atoms: C_2  and  O_3
REMARK    3  A    between atoms: O_3  and  C_4
REMARK    4  A    between atoms: C_7  and  N_8
REMARK    5  A    between atoms: C_14  and  S_15
REMARK    6  A    between atoms: S_15  and  N_18
REMARK    7  A    between atoms: N_18  and  C_19
REMARK    8  A    between atoms: C_19  and  C_20
REMARK                            x       y       z     vdW  Elec       q    Type
REMARK                         _______ _______ _______ _____ _____    ______ ____
ROOT
ATOM      1  C   UNL     1       5.431   6.594  17.015  0.00  0.00    +0.000 A 
ATOM      2  C   UNL     1       4.381   7.212  17.714  0.00  0.00    +0.000 A 
ATOM      3  C   UNL     1       3.350   6.467  18.283  0.00  0.00    +0.000 A 
ATOM      4  C   UNL     1       3.333   5.081  18.129  0.00  0.00    +0.000 A 
ATOM      5  C   UNL     1       4.326   4.459  17.351  0.00  0.00    +0.000 A 
ATOM      6  C   UNL     1       5.379   5.211  16.795  0.00  0.00    +0.000 A 
ENDROOT
BRANCH   4   7
ATOM      7  N   UNL     1       2.326   4.303  18.748  0.00  0.00    +0.000 N 
ATOM      8  C   UNL     1       1.799   3.095  18.364  0.00  0.00    +0.000 A 
ATOM      9  N   UNL     1       0.840   2.757  19.195  0.00  0.00    +0.000 NA
ATOM     10  N   UNL     1       0.774   3.769  20.116  0.00  0.00    +0.000 NA
ATOM     11  N   UNL     1       1.670   4.711  19.857  0.00  0.00    +0.000 NA
ENDBRANCH   4   7
BRANCH   6  12
ATOM     12  S   UNL     1       6.515   4.365  15.695  0.00  0.00    +0.000 S 
ATOM     13  O   UNL     1       7.832   4.502  16.280  0.00  0.00    +0.000 OA
ATOM     14  O   UNL     1       5.984   3.068  15.344  0.00  0.00    +0.000 OA
BRANCH  12  15
ATOM     15  N   UNL     1       6.480   5.261  14.267  0.00  0.00    +0.000 NA
ATOM     16  H   UNL     1       6.425   6.268  14.401  0.00  0.00    +0.000 HD
BRANCH  15  17
ATOM     17  C   UNL     1       7.282   4.794  13.135  0.00  0.00    +0.000 C 
BRANCH  17  18
ATOM     18  C   UNL     1       6.604   3.678  12.372  0.00  0.00    +0.000 A 
ATOM     19  C   UNL     1       5.217   3.684  12.181  0.00  0.00    +0.000 A 
ATOM     20  C   UNL     1       4.592   2.679  11.445  0.00  0.00    +0.000 A 
ATOM     21  C   UNL     1       5.349   1.653  10.886  0.00  0.00    +0.000 A 
ATOM     22  C   UNL     1       6.731   1.630  11.064  0.00  0.00    +0.000 A 
ATOM     23  C   UNL     1       7.358   2.637  11.802  0.00  0.00    +0.000 A 
ENDBRANCH  17  18
ENDBRANCH  15  17
ENDBRANCH  12  15
ENDBRANCH   6  12
BRANCH   1  24
ATOM     24  O   UNL     1       6.484   7.319  16.536  0.00  0.00    +0.000 OA
BRANCH  24  26
ATOM     25  C   UNL     1       7.946   7.011  18.409  0.00  0.00    +0.000 C 
ATOM     26  C   UNL     1       7.266   8.021  17.506  0.00  0.00    +0.000 C 
ENDBRANCH  24  26
ENDBRANCH   1  24
TORSDOF 7
ENDMDL
MODEL 5
REMARK VINA RESULT:      -7.2      0.622      1.255
REMARK  Name = 
REMARK  8 active torsions:
REMARK  status: ('A' for Active; 'I' for Inactive)
REMARK    1  A    between atoms: C_1  and  C_2
REMARK    2  A    between atoms: C_2  and  O_3
REMARK    3  A    between atoms: O_3  and  C_4
REMARK    4  A    between atoms: C_7  and  N_8
REMARK    5  A    between atoms: C_14  and  S_15
REMARK    6  A    between atoms: S_15  and  N_18
REMARK    7  A    between atoms: N_18  and  C_19
REMARK    8  A    between atoms: C_19  and  C_20
REMARK                            x       y       z     vdW  Elec       q    Type
REMARK                         _______ _______ _______ _____ _____    ______ ____
ROOT
ATOM      1  C   UNL     1       3.963   4.477  19.028  0.00  0.00    +0.000 A 
ATOM      2  C   UNL     1       2.707   4.630  19.637  0.00  0.00    +0.000 A 
ATOM      3  C   UNL     1       2.039   5.854  19.628  0.00  0.00    +0.000 A 
ATOM      4  C   UNL     1       2.640   6.963  19.034  0.00  0.00    +0.000 A 
ATOM      5  C   UNL     1       3.937   6.847  18.505  0.00  0.00    +0.000 A 
ATOM      6  C   UNL     1       4.601   5.605  18.496  0.00  0.00    +0.000 A 
ENDROOT
BRANCH   4   7
ATOM      7  N   UNL     1       1.952   8.199  18.965  0.00  0.00    +0.000 N 
ATOM      8  C   UNL     1       1.811   9.058  17.904  0.00  0.00    +0.000 A 
ATOM      9  N   UNL     1       1.143  10.120  18.293  0.00  0.00    +0.000 NA
ATOM     10  N   UNL     1       0.859   9.914  19.617  0.00  0.00    +0.000 NA
ATOM     11  N   UNL     1       1.342   8.753  20.036  0.00  0.00    +0.000 NA
ENDBRANCH   4   7
BRANCH   6  12
ATOM     12  S   UNL     1       6.306   5.577  17.940  0.00  0.00    +0.000 S 
ATOM     13  O   UNL     1       6.509   6.789  17.175  0.00  0.00    +0.000 OA
ATOM     14  O   UNL     1       7.176   5.233  19.042  0.00  0.00    +0.000 OA
BRANCH  12  15
ATOM     15  N   UNL     1       6.392   4.268  16.881  0.00  0.00    +0.000 NA
ATOM     16  H   UNL     1       6.632   3.384  17.321  0.00  0.00    +0.000 HD
BRANCH  15  17
ATOM     17  C   UNL     1       5.437   4.210  15.771  0.00  0.00    +0.000 C 
BRANCH  17  18
ATOM     18  C   UNL     1       6.121   4.243  14.423  0.00  0.00    +0.000 A 
ATOM     19  C   UNL     1       5.653   3.454  13.365  0.00  0.00    +0.000 A 
ATOM     20  C   UNL     1       6.256   3.511  12.110  0.00  0.00    +0.000 A 
ATOM     21  C   UNL     1       7.337   4.362  11.895  0.00  0.00    +0.000 A 
ATOM     22  C   UNL     1       7.816   5.156  12.935  0.00  0.00    +0.000 A 
ATOM     23  C   UNL     1       7.212   5.099  14.194  0.00  0.00    +0.000 A 
ENDBRANCH  17  18
ENDBRANCH  15  17
ENDBRANCH  12  15
ENDBRANCH   6  12
BRANCH   1  24
ATOM     24  O   UNL     1       4.573   3.258  18.962  0.00  0.00    +0.000 OA
BRANCH  24  26
ATOM     25  C   UNL     1       3.308   1.244  18.675  0.00  0.00    +0.000 C 
ATOM     26  C   UNL     1       3.939   2.191  19.675  0.00  0.00    +0.000 C 
ENDBRANCH  24  26
ENDBRANCH   1  24
TORSDOF 7
ENDMDL
MODEL 6
REMARK VINA RESULT:      -7.1      1.161      1.514
REMARK  Name = 
REMARK  8 active torsions:
REMARK  status: ('A' for Active; 'I' for Inactive)
REMARK    1  A    between atoms: C_1  and  C_2
REMARK    2  A    between atoms: C_2  and  O_3
REMARK    3  A    between atoms: O_3  and  C_4
REMARK    4  A    between atoms: C_7  and  N_8
REMARK    5  A    between atoms: C_14  and  S_15
REMARK    6  A    between atoms: S_15  and  N_18
REMARK    7  A    between atoms: N_18  and  C_19
REMARK    8  A    between atoms: C_19  and  C_20
REMARK                            x       y       z     vdW  Elec       q    Type
REMARK                         _______ _______ _______ _____ _____    ______ ____
ROOT
ATOM      1  C   UNL     1       3.614   4.421  17.740  0.00  0.00    +0.000 A 
ATOM      2  C   UNL     1       2.227   4.598  17.872  0.00  0.00    +0.000 A 
ATOM      3  C   UNL     1       1.678   5.847  18.155  0.00  0.00    +0.000 A 
ATOM      4  C   UNL     1       2.519   6.943  18.349  0.00  0.00    +0.000 A 
ATOM      5  C   UNL     1       3.912   6.760  18.314  0.00  0.00    +0.000 A 
ATOM      6  C   UNL     1       4.465   5.502  18.006  0.00  0.00    +0.000 A 
ENDROOT
BRANCH   4   7
ATOM      7  N   UNL     1       1.977   8.230  18.580  0.00  0.00    +0.000 N 
ATOM      8  C   UNL     1       1.951   9.326  17.754  0.00  0.00    +0.000 A 
ATOM      9  N   UNL     1       1.401  10.334  18.391  0.00  0.00    +0.000 NA
ATOM     10  N   UNL     1       1.073   9.856  19.631  0.00  0.00    +0.000 NA
ATOM     11  N   UNL     1       1.415   8.582  19.758  0.00  0.00    +0.000 NA
ENDBRANCH   4   7
BRANCH   6  12
ATOM     12  S   UNL     1       6.245   5.322  18.130  0.00  0.00    +0.000 S 
ATOM     13  O   UNL     1       6.806   6.643  17.950  0.00  0.00    +0.000 OA
ATOM     14  O   UNL     1       6.578   4.519  19.285  0.00  0.00    +0.000 OA
BRANCH  12  15
ATOM     15  N   UNL     1       6.676   4.382  16.798  0.00  0.00    +0.000 NA
ATOM     16  H   UNL     1       6.028   3.628  16.586  0.00  0.00    +0.000 HD
BRANCH  15  17
ATOM     17  C   UNL     1       7.304   5.048  15.654  0.00  0.00    +0.000 C 
BRANCH  17  18
ATOM     18  C   UNL     1       6.764   4.548  14.332  0.00  0.00    +0.000 A 
ATOM     19  C   UNL     1       7.549   4.605  13.174  0.00  0.00    +0.000 A 
ATOM     20  C   UNL     1       7.070   4.111  11.962  0.00  0.00    +0.000 A 
ATOM     21  C   UNL     1       5.798   3.548  11.893  0.00  0.00    +0.000 A 
ATOM     22  C   UNL     1       5.003   3.481  13.036  0.00  0.00    +0.000 A 
ATOM     23  C   UNL     1       5.482   3.978  14.251  0.00  0.00    +0.000 A 
ENDBRANCH  17  18
ENDBRANCH  15  17
ENDBRANCH  12  15
ENDBRANCH   6  12
BRANCH   1  24
ATOM     24  O   UNL     1       4.141   3.216  17.376  0.00  0.00    +0.000 OA
BRANCH  24  26
ATOM     25  C   UNL     1       4.137   2.031  19.457  0.00  0.00    +0.000 C 
ATOM     26  C   UNL     1       3.610   2.064  18.037  0.00  0.00    +0.000 C 
ENDBRANCH  24  26
ENDBRANCH   1  24
TORSDOF 7
ENDMDL
MODEL 7
REMARK VINA RESULT:      -7.1      1.148      1.376
REMARK  Name = 
REMARK  8 active torsions:
REMARK  status: ('A' for Active; 'I' for Inactive)
REMARK    1  A    between atoms: C_1  and  C_2
REMARK    2  A    between atoms: C_2  and  O_3
REMARK    3  A    between atoms: O_3  and  C_4
REMARK    4  A    between atoms: C_7  and  N_8
REMARK    5  A    between atoms: C_14  and  S_15
REMARK    6  A    between atoms: S_15  and  N_18
REMARK    7  A    between atoms: N_18  and  C_19
REMARK    8  A    between atoms: C_19  and  C_20
REMARK                            x       y       z     vdW  Elec       q    Type
REMARK                         _______ _______ _______ _____ _____    ______ ____
ROOT
ATOM      1  C   UNL     1       3.494   5.290  18.942  0.00  0.00    +0.000 A 
ATOM      2  C   UNL     1       2.616   5.609  19.991  0.00  0.00    +0.000 A 
ATOM      3  C   UNL     1       1.968   6.842  20.048  0.00  0.00    +0.000 A 
ATOM      4  C   UNL     1       2.220   7.799  19.065  0.00  0.00    +0.000 A 
ATOM      5  C   UNL     1       3.167   7.529  18.063  0.00  0.00    +0.000 A 
ATOM      6  C   UNL     1       3.805   6.275  17.995  0.00  0.00    +0.000 A 
ENDROOT
BRANCH   4   7
ATOM      7  N   UNL     1       1.529   9.034  19.075  0.00  0.00    +0.000 N 
ATOM      8  C   UNL     1       1.604  10.081  18.191  0.00  0.00    +0.000 A 
ATOM      9  N   UNL     1       0.834  11.059  18.611  0.00  0.00    +0.000 NA
ATOM     10  N   UNL     1       0.265  10.609  19.773  0.00  0.00    +0.000 NA
ATOM     11  N   UNL     1       0.676   9.383  20.064  0.00  0.00    +0.000 NA
ENDBRANCH   4   7
BRANCH   6  12
ATOM     12  S   UNL     1       5.106   6.068  16.779  0.00  0.00    +0.000 S 
ATOM     13  O   UNL     1       4.883   7.072  15.761  0.00  0.00    +0.000 OA
ATOM     14  O   UNL     1       6.385   5.947  17.443  0.00  0.00    +0.000 OA
BRANCH  12  15
ATOM     15  N   UNL     1       4.818   4.554  16.094  0.00  0.00    +0.000 NA
ATOM     16  H   UNL     1       4.002   4.513  15.488  0.00  0.00    +0.000 HD
BRANCH  15  17
ATOM     17  C   UNL     1       5.970   3.741  15.696  0.00  0.00    +0.000 C 
BRANCH  17  18
ATOM     18  C   UNL     1       6.421   4.036  14.283  0.00  0.00    +0.000 A 
ATOM     19  C   UNL     1       7.395   5.011  14.034  0.00  0.00    +0.000 A 
ATOM     20  C   UNL     1       7.842   5.259  12.737  0.00  0.00    +0.000 A 
ATOM     21  C   UNL     1       7.321   4.531  11.670  0.00  0.00    +0.000 A 
ATOM     22  C   UNL     1       6.351   3.557  11.899  0.00  0.00    +0.000 A 
ATOM     23  C   UNL     1       5.903   3.308  13.198  0.00  0.00    +0.000 A 
ENDBRANCH  17  18
ENDBRANCH  15  17
ENDBRANCH  12  15
ENDBRANCH   6  12
BRANCH   1  24
ATOM     24  O   UNL     1       4.056   4.051  18.843  0.00  0.00    +0.000 OA
BRANCH  24  26
ATOM     25  C   UNL     1       2.603   2.391  17.910  0.00  0.00    +0.000 C 
ATOM     26  C   UNL     1       3.217   2.943  19.180  0.00  0.00    +0.000 C 
ENDBRANCH  24  26
ENDBRANCH   1  24
TORSDOF 7
ENDMDL
MODEL 8
REMARK VINA RESULT:      -7.1      3.834      5.630
REMARK  Name = 
REMARK  8 active torsions:
REMARK  status: ('A' for Active; 'I' for Inactive)
REMARK    1  A    between atoms: C_1  and  C_2
REMARK    2  A    between atoms: C_2  and  O_3
REMARK    3  A    between atoms: O_3  and  C_4
REMARK    4  A    between atoms: C_7  and  N_8
REMARK    5  A    between atoms: C_14  and  S_15
REMARK    6  A    between atoms: S_15  and  N_18
REMARK    7  A    between atoms: N_18  and  C_19
REMARK    8  A    between atoms: C_19  and  C_20
REMARK                            x       y       z     vdW  Elec       q    Type
REMARK                         _______ _______ _______ _____ _____    ______ ____
ROOT
ATOM      1  C   UNL     1       5.062   4.736  16.622  0.00  0.00    +0.000 A 
ATOM      2  C   UNL     1       3.766   4.196  16.610  0.00  0.00    +0.000 A 
ATOM      3  C   UNL     1       3.142   3.777  17.784  0.00  0.00    +0.000 A 
ATOM      4  C   UNL     1       3.828   3.857  18.996  0.00  0.00    +0.000 A 
ATOM      5  C   UNL     1       5.159   4.306  19.009  0.00  0.00    +0.000 A 
ATOM      6  C   UNL     1       5.780   4.749  17.825  0.00  0.00    +0.000 A 
ENDROOT
BRANCH   4   7
ATOM      7  N   UNL     1       3.190   3.490  20.205  0.00  0.00    +0.000 N 
ATOM      8  C   UNL     1       2.259   4.177  20.943  0.00  0.00    +0.000 A 
ATOM      9  N   UNL     1       1.978   3.495  22.029  0.00  0.00    +0.000 NA
ATOM     10  N   UNL     1       2.743   2.361  21.963  0.00  0.00    +0.000 NA
ATOM     11  N   UNL     1       3.480   2.345  20.862  0.00  0.00    +0.000 NA
ENDBRANCH   4   7
BRANCH   6  12
ATOM     12  S   UNL     1       7.524   5.162  17.903  0.00  0.00    +0.000 S 
ATOM     13  O   UNL     1       7.819   5.439  19.293  0.00  0.00    +0.000 OA
ATOM     14  O   UNL     1       8.292   4.194  17.154  0.00  0.00    +0.000 OA
BRANCH  12  15
ATOM     15  N   UNL     1       7.664   6.604  17.040  0.00  0.00    +0.000 NA
ATOM     16  H   UNL     1       7.773   6.486  16.036  0.00  0.00    +0.000 HD
BRANCH  15  17
ATOM     17  C   UNL     1       6.876   7.757  17.483  0.00  0.00    +0.000 C 
BRANCH  17  18
ATOM     18  C   UNL     1       7.747   8.915  17.917  0.00  0.00    +0.000 A 
ATOM     19  C   UNL     1       8.723   8.742  18.906  0.00  0.00    +0.000 A 
ATOM     20  C   UNL     1       9.554   9.796  19.282  0.00  0.00    +0.000 A 
ATOM     21  C   UNL     1       9.421  11.040  18.670  0.00  0.00    +0.000 A 
ATOM     22  C   UNL     1       8.456  11.230  17.682  0.00  0.00    +0.000 A 
ATOM     23  C   UNL     1       7.623  10.174  17.306  0.00  0.00    +0.000 A 
ENDBRANCH  17  18
ENDBRANCH  15  17
ENDBRANCH  12  15
ENDBRANCH   6  12
BRANCH   1  24
ATOM     24  O   UNL     1       5.634   5.226  15.484  0.00  0.00    +0.000 OA
BRANCH  24  26
ATOM     25  C   UNL     1       7.160   4.755  13.699  0.00  0.00    +0.000 C 
ATOM     26  C   UNL     1       5.946   4.271  14.466  0.00  0.00    +0.000 C 
ENDBRANCH  24  26
ENDBRANCH   1  24
TORSDOF 7
ENDMDL
MODEL 9
REMARK VINA RESULT:      -7.1      1.033      1.523
REMARK  Name = 
REMARK  8 active torsions:
REMARK  status: ('A' for Active; 'I' for Inactive)
REMARK    1  A    between atoms: C_1  and  C_2
REMARK    2  A    between atoms: C_2  and  O_3
REMARK    3  A    between atoms: O_3  and  C_4
REMARK    4  A    between atoms: C_7  and  N_8
REMARK    5  A    between atoms: C_14  and  S_15
REMARK    6  A    between atoms: S_15  and  N_18
REMARK    7  A    between atoms: N_18  and  C_19
REMARK    8  A    between atoms: C_19  and  C_20
REMARK                            x       y       z     vdW  Elec       q    Type
REMARK                         _______ _______ _______ _____ _____    ______ ____
ROOT
ATOM      1  C   UNL     1       3.484   4.722  19.180  0.00  0.00    +0.000 A 
ATOM      2  C   UNL     1       2.654   4.780  20.311  0.00  0.00    +0.000 A 
ATOM      3  C   UNL     1       1.974   5.947  20.656  0.00  0.00    +0.000 A 
ATOM      4  C   UNL     1       2.145   7.097  19.887  0.00  0.00    +0.000 A 
ATOM      5  C   UNL     1       3.046   7.081  18.808  0.00  0.00    +0.000 A 
ATOM      6  C   UNL     1       3.715   5.895  18.448  0.00  0.00    +0.000 A 
ENDROOT
BRANCH   4   7
ATOM      7  N   UNL     1       1.420   8.274  20.188  0.00  0.00    +0.000 N 
ATOM      8  C   UNL     1       0.750   8.615  21.337  0.00  0.00    +0.000 A 
ATOM      9  N   UNL     1       0.163   9.777  21.168  0.00  0.00    +0.000 NA
ATOM     10  N   UNL     1       0.479  10.170  19.894  0.00  0.00    +0.000 NA
ATOM     11  N   UNL     1       1.241   9.269  19.291  0.00  0.00    +0.000 NA
ENDBRANCH   4   7
BRANCH   6  12
ATOM     12  S   UNL     1       4.956   5.998  17.157  0.00  0.00    +0.000 S 
ATOM     13  O   UNL     1       4.608   7.142  16.342  0.00  0.00    +0.000 OA
ATOM     14  O   UNL     1       6.275   5.862  17.732  0.00  0.00    +0.000 OA
BRANCH  12  15
ATOM     15  N   UNL     1       4.730   4.607  16.231  0.00  0.00    +0.000 NA
ATOM     16  H   UNL     1       4.017   4.690  15.511  0.00  0.00    +0.000 HD
BRANCH  15  17
ATOM     17  C   UNL     1       5.903   3.795  15.901  0.00  0.00    +0.000 C 
BRANCH  17  18
ATOM     18  C   UNL     1       6.404   4.054  14.497  0.00  0.00    +0.000 A 
ATOM     19  C   UNL     1       5.846   3.380  13.404  0.00  0.00    +0.000 A 
ATOM     20  C   UNL     1       6.277   3.645  12.105  0.00  0.00    +0.000 A 
ATOM     21  C   UNL     1       7.273   4.592  11.882  0.00  0.00    +0.000 A 
ATOM     22  C   UNL     1       7.840   5.274  12.957  0.00  0.00    +0.000 A 
ATOM     23  C   UNL     1       7.408   5.009  14.259  0.00  0.00    +0.000 A 
ENDBRANCH  17  18
ENDBRANCH  15  17
ENDBRANCH  12  15
ENDBRANCH   6  12
BRANCH   1  24
ATOM     24  O   UNL     1       4.076   3.554  18.796  0.00  0.00    +0.000 OA
BRANCH  24  26
ATOM     25  C   UNL     1       2.400   2.274  17.661  0.00  0.00    +0.000 C 
ATOM     26  C   UNL     1       3.276   2.373  18.893  0.00  0.00    +0.000 C 
ENDBRANCH  24  26
ENDBRANCH   1  24
TORSDOF 7
ENDMDL
