MODEL 1
REMARK VINA RESULT:      -8.3      0.000      0.000
REMARK  Name = 
REMARK  6 active torsions:
REMARK  status: ('A' for Active; 'I' for Inactive)
REMARK    1  A    between atoms: C_1  and  C_2
REMARK    2  A    between atoms: C_4  and  N_5
REMARK    3  A    between atoms: N_6  and  C_7
REMARK    4  A    between atoms: C_10  and  N_11
REMARK    5  A    between atoms: C_21  and  N_22
REMARK    6  A    between atoms: C_24  and  O_25
REMARK                            x       y       z     vdW  Elec       q    Type
REMARK                         _______ _______ _______ _____ _____    ______ ____
ROOT
ATOM      1  N   UNL     1       8.843   9.562  19.026  0.00  0.00    +0.000 NA
ATOM      2  N   UNL     1       8.530   9.207  17.871  0.00  0.00    +0.000 NA
ENDROOT
BRANCH   1   6
ATOM      3  C   UNL     1      11.470  13.140  16.732  0.00  0.00    +0.000 C 
ATOM      4  C   UNL     1      10.927  12.508  17.979  0.00  0.00    +0.000 A 
ATOM      5  C   UNL     1      10.172  11.329  17.907  0.00  0.00    +0.000 A 
ATOM      6  C   UNL     1       9.640  10.729  19.062  0.00  0.00    +0.000 A 
ATOM      7  C   UNL     1       9.828  11.364  20.313  0.00  0.00    +0.000 A 
ATOM      8  C   UNL     1      10.632  12.506  20.392  0.00  0.00    +0.000 A 
ATOM      9  C   UNL     1      11.153  13.079  19.233  0.00  0.00    +0.000 A 
BRANCH   7  10
ATOM     10  N   UNL     1       9.391  10.751  21.509  0.00  0.00    +0.000 N 
ATOM     11  H   UNL     1      10.062  10.060  21.841  0.00  0.00    +0.000 HD
ATOM     12  H   UNL     1       8.443  10.394  21.469  0.00  0.00    +0.000 HD
ENDBRANCH   7  10
BRANCH   9  13
ATOM     13  O   UNL     1      11.899  14.222  19.306  0.00  0.00    +0.000 OA
ATOM     14  H   UNL     1      12.265  14.302  20.201  0.00  0.00    +0.000 HD
ENDBRANCH   9  13
ENDBRANCH   1   6
BRANCH   2  15
ATOM     15  C   UNL     1       7.712   8.058  17.884  0.00  0.00    +0.000 A 
ATOM     16  C   UNL     1       6.548   7.928  17.127  0.00  0.00    +0.000 A 
ATOM     17  C   UNL     1       5.766   6.767  17.195  0.00  0.00    +0.000 A 
ATOM     18  C   UNL     1       6.125   5.662  17.985  0.00  0.00    +0.000 A 
ATOM     19  C   UNL     1       7.320   5.801  18.710  0.00  0.00    +0.000 A 
ATOM     20  C   UNL     1       8.094   6.972  18.667  0.00  0.00    +0.000 A 
BRANCH  18  21
ATOM     21  N   UNL     1       5.317   4.535  18.064  0.00  0.00    +0.000 N 
ATOM     22  C   UNL     1       4.862   3.848  16.841  0.00  0.00    +0.000 C 
ATOM     23  C   UNL     1       3.356   3.713  16.879  0.00  0.00    +0.000 C 
ATOM     24  S   UNL     1       2.906   2.711  18.271  0.00  0.00    +0.000 S 
ATOM     25  O   UNL     1       1.475   2.857  18.479  0.00  0.00    +0.000 OA
ATOM     26  O   UNL     1       3.483   1.393  18.093  0.00  0.00    +0.000 OA
ATOM     27  C   UNL     1       3.730   3.503  19.622  0.00  0.00    +0.000 C 
ATOM     28  C   UNL     1       5.192   3.730  19.293  0.00  0.00    +0.000 C 
ENDBRANCH  18  21
ENDBRANCH   2  15
TORSDOF 5
ENDMDL
MODEL 2
REMARK VINA RESULT:      -7.7      7.140      8.553
REMARK  Name = 
REMARK  6 active torsions:
REMARK  status: ('A' for Active; 'I' for Inactive)
REMARK    1  A    between atoms: C_1  and  C_2
REMARK    2  A    between atoms: C_4  and  N_5
REMARK    3  A    between atoms: N_6  and  C_7
REMARK    4  A    between atoms: C_10  and  N_11
REMARK    5  A    between atoms: C_21  and  N_22
REMARK    6  A    between atoms: C_24  and  O_25
REMARK                            x       y       z     vdW  Elec       q    Type
REMARK                         _______ _______ _______ _____ _____    ______ ____
ROOT
ATOM      1  N   UNL     1       0.890  10.401  21.095  0.00  0.00    +0.000 NA
ATOM      2  N   UNL     1       0.332   9.645  20.272  0.00  0.00    +0.000 NA
ENDROOT
BRANCH   1   6
ATOM      3  C   UNL     1      -1.126  14.936  21.682  0.00  0.00    +0.000 C 
ATOM      4  C   UNL     1      -1.025  13.488  22.059  0.00  0.00    +0.000 A 
ATOM      5  C   UNL     1      -0.102  12.650  21.418  0.00  0.00    +0.000 A 
ATOM      6  C   UNL     1      -0.002  11.285  21.744  0.00  0.00    +0.000 A 
ATOM      7  C   UNL     1      -0.894  10.742  22.700  0.00  0.00    +0.000 A 
ATOM      8  C   UNL     1      -1.773  11.590  23.382  0.00  0.00    +0.000 A 
ATOM      9  C   UNL     1      -1.849  12.941  23.045  0.00  0.00    +0.000 A 
BRANCH   7  10
ATOM     10  N   UNL     1      -0.770   9.400  23.125  0.00  0.00    +0.000 N 
ATOM     11  H   UNL     1       0.191   9.072  23.050  0.00  0.00    +0.000 HD
ATOM     12  H   UNL     1      -1.438   8.767  22.699  0.00  0.00    +0.000 HD
ENDBRANCH   7  10
BRANCH   9  13
ATOM     13  O   UNL     1      -2.741  13.759  23.678  0.00  0.00    +0.000 OA
ATOM     14  H   UNL     1      -3.285  14.208  23.010  0.00  0.00    +0.000 HD
ENDBRANCH   9  13
ENDBRANCH   1   6
BRANCH   2  15
ATOM     15  C   UNL     1       1.254   8.762  19.671  0.00  0.00    +0.000 A 
ATOM     16  C   UNL     1       1.691   7.579  20.265  0.00  0.00    +0.000 A 
ATOM     17  C   UNL     1       2.622   6.749  19.626  0.00  0.00    +0.000 A 
ATOM     18  C   UNL     1       3.132   7.033  18.348  0.00  0.00    +0.000 A 
ATOM     19  C   UNL     1       2.651   8.211  17.754  0.00  0.00    +0.000 A 
ATOM     20  C   UNL     1       1.737   9.061  18.401  0.00  0.00    +0.000 A 
BRANCH  18  21
ATOM     21  N   UNL     1       4.081   6.216  17.748  0.00  0.00    +0.000 N 
ATOM     22  C   UNL     1       3.995   4.748  17.871  0.00  0.00    +0.000 C 
ATOM     23  C   UNL     1       5.311   4.215  18.392  0.00  0.00    +0.000 C 
ATOM     24  S   UNL     1       6.587   4.595  17.220  0.00  0.00    +0.000 S 
ATOM     25  O   UNL     1       7.867   4.371  17.869  0.00  0.00    +0.000 OA
ATOM     26  O   UNL     1       6.278   3.922  15.973  0.00  0.00    +0.000 OA
ATOM     27  C   UNL     1       6.404   6.337  16.973  0.00  0.00    +0.000 C 
ATOM     28  C   UNL     1       4.962   6.682  16.662  0.00  0.00    +0.000 C 
ENDBRANCH  18  21
ENDBRANCH   2  15
TORSDOF 5
ENDMDL
MODEL 3
REMARK VINA RESULT:      -7.6      7.299      9.942
REMARK  Name = 
REMARK  6 active torsions:
REMARK  status: ('A' for Active; 'I' for Inactive)
REMARK    1  A    between atoms: C_1  and  C_2
REMARK    2  A    between atoms: C_4  and  N_5
REMARK    3  A    between atoms: N_6  and  C_7
REMARK    4  A    between atoms: C_10  and  N_11
REMARK    5  A    between atoms: C_21  and  N_22
REMARK    6  A    between atoms: C_24  and  O_25
REMARK                            x       y       z     vdW  Elec       q    Type
REMARK                         _______ _______ _______ _____ _____    ______ ____
ROOT
ATOM      1  N   UNL     1       2.623   7.315  18.311  0.00  0.00    +0.000 NA
ATOM      2  N   UNL     1       2.467   7.246  19.548  0.00  0.00    +0.000 NA
ENDROOT
BRANCH   1   6
ATOM      3  C   UNL     1       6.992   5.704  16.497  0.00  0.00    +0.000 C 
ATOM      4  C   UNL     1       5.569   5.455  16.904  0.00  0.00    +0.000 A 
ATOM      5  C   UNL     1       4.774   6.505  17.384  0.00  0.00    +0.000 A 
ATOM      6  C   UNL     1       3.443   6.290  17.787  0.00  0.00    +0.000 A 
ATOM      7  C   UNL     1       2.922   4.975  17.757  0.00  0.00    +0.000 A 
ATOM      8  C   UNL     1       3.695   3.939  17.221  0.00  0.00    +0.000 A 
ATOM      9  C   UNL     1       5.010   4.178  16.823  0.00  0.00    +0.000 A 
BRANCH   7  10
ATOM     10  N   UNL     1       1.566   4.727  18.064  0.00  0.00    +0.000 N 
ATOM     11  H   UNL     1       1.128   5.534  18.505  0.00  0.00    +0.000 HD
ATOM     12  H   UNL     1       1.407   3.865  18.575  0.00  0.00    +0.000 HD
ENDBRANCH   7  10
BRANCH   9  13
ATOM     13  O   UNL     1       5.781   3.156  16.344  0.00  0.00    +0.000 OA
ATOM     14  H   UNL     1       5.199   2.442  16.037  0.00  0.00    +0.000 HD
ENDBRANCH   9  13
ENDBRANCH   1   6
BRANCH   2  15
ATOM     15  C   UNL     1       1.619   8.269  20.022  0.00  0.00    +0.000 A 
ATOM     16  C   UNL     1       1.103   8.308  21.317  0.00  0.00    +0.000 A 
ATOM     17  C   UNL     1       0.251   9.343  21.727  0.00  0.00    +0.000 A 
ATOM     18  C   UNL     1      -0.095  10.411  20.883  0.00  0.00    +0.000 A 
ATOM     19  C   UNL     1       0.464  10.370  19.595  0.00  0.00    +0.000 A 
ATOM     20  C   UNL     1       1.298   9.322  19.170  0.00  0.00    +0.000 A 
BRANCH  18  21
ATOM     21  N   UNL     1      -0.970  11.407  21.297  0.00  0.00    +0.000 N 
ATOM     22  C   UNL     1      -0.997  11.846  22.705  0.00  0.00    +0.000 C 
ATOM     23  C   UNL     1      -2.415  11.763  23.225  0.00  0.00    +0.000 C 
ATOM     24  S   UNL     1      -3.434  12.869  22.284  0.00  0.00    +0.000 S 
ATOM     25  O   UNL     1      -4.821  12.544  22.570  0.00  0.00    +0.000 OA
ATOM     26  O   UNL     1      -2.949  14.220  22.484  0.00  0.00    +0.000 OA
ATOM     27  C   UNL     1      -3.104  12.399  20.611  0.00  0.00    +0.000 C 
ATOM     28  C   UNL     1      -1.611  12.346  20.358  0.00  0.00    +0.000 C 
ENDBRANCH  18  21
ENDBRANCH   2  15
TORSDOF 5
ENDMDL
MODEL 4
REMARK VINA RESULT:      -7.5      7.271      9.868
REMARK  Name = 
REMARK  6 active torsions:
REMARK  status: ('A' for Active; 'I' for Inactive)
REMARK    1  A    between atoms: C_1  and  C_2
REMARK    2  A    between atoms: C_4  and  N_5
REMARK    3  A    between atoms: N_6  and  C_7
REMARK    4  A    between atoms: C_10  and  N_11
REMARK    5  A    between atoms: C_21  and  N_22
REMARK    6  A    between atoms: C_24  and  O_25
REMARK                            x       y       z     vdW  Elec       q    Type
REMARK                         _______ _______ _______ _____ _____    ______ ____
ROOT
ATOM      1  N   UNL     1       2.633   7.003  18.644  0.00  0.00    +0.000 NA
ATOM      2  N   UNL     1       2.276   7.963  17.930  0.00  0.00    +0.000 NA
ENDROOT
BRANCH   1   6
ATOM      3  C   UNL     1       7.083   5.750  16.746  0.00  0.00    +0.000 C 
ATOM      4  C   UNL     1       5.649   5.429  17.046  0.00  0.00    +0.000 A 
ATOM      5  C   UNL     1       4.826   6.375  17.673  0.00  0.00    +0.000 A 
ATOM      6  C   UNL     1       3.483   6.089  17.979  0.00  0.00    +0.000 A 
ATOM      7  C   UNL     1       2.975   4.800  17.694  0.00  0.00    +0.000 A 
ATOM      8  C   UNL     1       3.777   3.878  17.013  0.00  0.00    +0.000 A 
ATOM      9  C   UNL     1       5.104   4.187  16.716  0.00  0.00    +0.000 A 
BRANCH   7  10
ATOM     10  N   UNL     1       1.610   4.498  17.899  0.00  0.00    +0.000 N 
ATOM     11  H   UNL     1       1.087   4.523  17.025  0.00  0.00    +0.000 HD
ATOM     12  H   UNL     1       1.172   5.037  18.638  0.00  0.00    +0.000 HD
ENDBRANCH   7  10
BRANCH   9  13
ATOM     13  O   UNL     1       5.902   3.268  16.094  0.00  0.00    +0.000 OA
ATOM     14  H   UNL     1       6.824   3.570  16.141  0.00  0.00    +0.000 HD
ENDBRANCH   9  13
ENDBRANCH   1   6
BRANCH   2  15
ATOM     15  C   UNL     1       1.455   8.862  18.643  0.00  0.00    +0.000 A 
ATOM     16  C   UNL     1       0.648   9.822  18.032  0.00  0.00    +0.000 A 
ATOM     17  C   UNL     1      -0.135  10.700  18.794  0.00  0.00    +0.000 A 
ATOM     18  C   UNL     1      -0.186  10.640  20.197  0.00  0.00    +0.000 A 
ATOM     19  C   UNL     1       0.606   9.642  20.788  0.00  0.00    +0.000 A 
ATOM     20  C   UNL     1       1.413   8.776  20.031  0.00  0.00    +0.000 A 
BRANCH  18  21
ATOM     21  N   UNL     1      -0.941  11.543  20.934  0.00  0.00    +0.000 N 
ATOM     22  C   UNL     1      -0.693  11.729  22.376  0.00  0.00    +0.000 C 
ATOM     23  C   UNL     1      -1.991  11.546  23.131  0.00  0.00    +0.000 C 
ATOM     24  S   UNL     1      -3.139  12.792  22.605  0.00  0.00    +0.000 S 
ATOM     25  O   UNL     1      -4.456  12.413  23.087  0.00  0.00    +0.000 OA
ATOM     26  O   UNL     1      -2.590  14.091  22.940  0.00  0.00    +0.000 OA
ATOM     27  C   UNL     1      -3.140  12.623  20.844  0.00  0.00    +0.000 C 
ATOM     28  C   UNL     1      -1.722  12.626  20.309  0.00  0.00    +0.000 C 
ENDBRANCH  18  21
ENDBRANCH   2  15
TORSDOF 5
ENDMDL
MODEL 5
REMARK VINA RESULT:      -7.5      7.854     10.121
REMARK  Name = 
REMARK  6 active torsions:
REMARK  status: ('A' for Active; 'I' for Inactive)
REMARK    1  A    between atoms: C_1  and  C_2
REMARK    2  A    between atoms: C_4  and  N_5
REMARK    3  A    between atoms: N_6  and  C_7
REMARK    4  A    between atoms: C_10  and  N_11
REMARK    5  A    between atoms: C_21  and  N_22
REMARK    6  A    between atoms: C_24  and  O_25
REMARK                            x       y       z     vdW  Elec       q    Type
REMARK                         _______ _______ _______ _____ _____    ______ ____
ROOT
ATOM      1  N   UNL     1       2.216   7.402  19.411  0.00  0.00    +0.000 NA
ATOM      2  N   UNL     1       2.014   8.407  18.698  0.00  0.00    +0.000 NA
ENDROOT
BRANCH   1   6
ATOM      3  C   UNL     1       5.449   6.090  15.833  0.00  0.00    +0.000 C 
ATOM      4  C   UNL     1       4.754   5.820  17.135  0.00  0.00    +0.000 A 
ATOM      5  C   UNL     1       3.803   6.722  17.632  0.00  0.00    +0.000 A 
ATOM      6  C   UNL     1       3.152   6.497  18.859  0.00  0.00    +0.000 A 
ATOM      7  C   UNL     1       3.509   5.364  19.627  0.00  0.00    +0.000 A 
ATOM      8  C   UNL     1       4.412   4.433  19.102  0.00  0.00    +0.000 A 
ATOM      9  C   UNL     1       5.041   4.675  17.881  0.00  0.00    +0.000 A 
BRANCH   7  10
ATOM     10  N   UNL     1       2.818   5.049  20.818  0.00  0.00    +0.000 N 
ATOM     11  H   UNL     1       3.427   4.593  21.494  0.00  0.00    +0.000 HD
ATOM     12  H   UNL     1       1.947   4.550  20.672  0.00  0.00    +0.000 HD
ENDBRANCH   7  10
BRANCH   9  13
ATOM     13  O   UNL     1       5.959   3.789  17.391  0.00  0.00    +0.000 OA
ATOM     14  H   UNL     1       6.718   4.284  17.045  0.00  0.00    +0.000 HD
ENDBRANCH   9  13
ENDBRANCH   1   6
BRANCH   2  15
ATOM     15  C   UNL     1       1.097   9.294  19.301  0.00  0.00    +0.000 A 
ATOM     16  C   UNL     1       0.487  10.352  18.626  0.00  0.00    +0.000 A 
ATOM     17  C   UNL     1      -0.404  11.212  19.283  0.00  0.00    +0.000 A 
ATOM     18  C   UNL     1      -0.765  11.037  20.629  0.00  0.00    +0.000 A 
ATOM     19  C   UNL     1      -0.166   9.945  21.279  0.00  0.00    +0.000 A 
ATOM     20  C   UNL     1       0.748   9.095  20.633  0.00  0.00    +0.000 A 
BRANCH  18  21
ATOM     21  N   UNL     1      -1.622  11.922  21.270  0.00  0.00    +0.000 N 
ATOM     22  C   UNL     1      -1.453  12.228  22.703  0.00  0.00    +0.000 C 
ATOM     23  C   UNL     1      -2.762  11.988  23.421  0.00  0.00    +0.000 C 
ATOM     24  S   UNL     1      -3.985  13.093  22.764  0.00  0.00    +0.000 S 
ATOM     25  O   UNL     1      -5.286  12.638  23.223  0.00  0.00    +0.000 OA
ATOM     26  O   UNL     1      -3.559  14.454  23.023  0.00  0.00    +0.000 OA
ATOM     27  C   UNL     1      -3.896  12.803  21.021  0.00  0.00    +0.000 C 
ATOM     28  C   UNL     1      -2.462  12.888  20.540  0.00  0.00    +0.000 C 
ENDBRANCH  18  21
ENDBRANCH   2  15
TORSDOF 5
ENDMDL
MODEL 6
REMARK VINA RESULT:      -7.5      6.815      7.836
REMARK  Name = 
REMARK  6 active torsions:
REMARK  status: ('A' for Active; 'I' for Inactive)
REMARK    1  A    between atoms: C_1  and  C_2
REMARK    2  A    between atoms: C_4  and  N_5
REMARK    3  A    between atoms: N_6  and  C_7
REMARK    4  A    between atoms: C_10  and  N_11
REMARK    5  A    between atoms: C_21  and  N_22
REMARK    6  A    between atoms: C_24  and  O_25
REMARK                            x       y       z     vdW  Elec       q    Type
REMARK                         _______ _______ _______ _____ _____    ______ ____
ROOT
ATOM      1  N   UNL     1       0.982  11.151  19.823  0.00  0.00    +0.000 NA
ATOM      2  N   UNL     1       0.778  10.407  18.841  0.00  0.00    +0.000 NA
ENDROOT
BRANCH   1   6
ATOM      3  C   UNL     1      -2.415  14.507  21.296  0.00  0.00    +0.000 C 
ATOM      4  C   UNL     1      -1.279  14.096  20.407  0.00  0.00    +0.000 A 
ATOM      5  C   UNL     1      -0.715  12.817  20.522  0.00  0.00    +0.000 A 
ATOM      6  C   UNL     1       0.362  12.417  19.710  0.00  0.00    +0.000 A 
ATOM      7  C   UNL     1       0.918  13.347  18.800  0.00  0.00    +0.000 A 
ATOM      8  C   UNL     1       0.316  14.601  18.643  0.00  0.00    +0.000 A 
ATOM      9  C   UNL     1      -0.754  14.972  19.455  0.00  0.00    +0.000 A 
BRANCH   7  10
ATOM     10  N   UNL     1       1.938  12.961  17.902  0.00  0.00    +0.000 N 
ATOM     11  H   UNL     1       2.856  13.001  18.340  0.00  0.00    +0.000 HD
ATOM     12  H   UNL     1       1.906  13.439  17.008  0.00  0.00    +0.000 HD
ENDBRANCH   7  10
BRANCH   9  13
ATOM     13  O   UNL     1      -1.311  16.215  19.334  0.00  0.00    +0.000 OA
ATOM     14  H   UNL     1      -0.962  16.638  18.534  0.00  0.00    +0.000 HD
ENDBRANCH   9  13
ENDBRANCH   1   6
BRANCH   2  15
ATOM     15  C   UNL     1       1.389   9.146  19.009  0.00  0.00    +0.000 A 
ATOM     16  C   UNL     1       2.101   8.492  18.004  0.00  0.00    +0.000 A 
ATOM     17  C   UNL     1       2.673   7.232  18.225  0.00  0.00    +0.000 A 
ATOM     18  C   UNL     1       2.602   6.580  19.467  0.00  0.00    +0.000 A 
ATOM     19  C   UNL     1       1.911   7.273  20.475  0.00  0.00    +0.000 A 
ATOM     20  C   UNL     1       1.313   8.525  20.252  0.00  0.00    +0.000 A 
BRANCH  18  21
ATOM     21  N   UNL     1       3.145   5.316  19.655  0.00  0.00    +0.000 N 
ATOM     22  C   UNL     1       4.522   5.017  19.218  0.00  0.00    +0.000 C 
ATOM     23  C   UNL     1       4.507   3.794  18.329  0.00  0.00    +0.000 C 
ATOM     24  S   UNL     1       3.916   2.410  19.268  0.00  0.00    +0.000 S 
ATOM     25  O   UNL     1       3.604   1.341  18.336  0.00  0.00    +0.000 OA
ATOM     26  O   UNL     1       4.837   2.173  20.363  0.00  0.00    +0.000 OA
ATOM     27  C   UNL     1       2.390   3.001  19.941  0.00  0.00    +0.000 C 
ATOM     28  C   UNL     1       2.590   4.344  20.614  0.00  0.00    +0.000 C 
ENDBRANCH  18  21
ENDBRANCH   2  15
TORSDOF 5
ENDMDL
MODEL 7
REMARK VINA RESULT:      -7.4      7.846     10.732
REMARK  Name = 
REMARK  6 active torsions:
REMARK  status: ('A' for Active; 'I' for Inactive)
REMARK    1  A    between atoms: C_1  and  C_2
REMARK    2  A    between atoms: C_4  and  N_5
REMARK    3  A    between atoms: N_6  and  C_7
REMARK    4  A    between atoms: C_10  and  N_11
REMARK    5  A    between atoms: C_21  and  N_22
REMARK    6  A    between atoms: C_24  and  O_25
REMARK                            x       y       z     vdW  Elec       q    Type
REMARK                         _______ _______ _______ _____ _____    ______ ____
ROOT
ATOM      1  N   UNL     1       1.612   6.484  20.449  0.00  0.00    +0.000 NA
ATOM      2  N   UNL     1       2.062   7.620  20.194  0.00  0.00    +0.000 NA
ENDROOT
BRANCH   1   6
ATOM      3  C   UNL     1       6.037   4.858  18.789  0.00  0.00    +0.000 C 
ATOM      4  C   UNL     1       4.650   4.595  19.296  0.00  0.00    +0.000 A 
ATOM      5  C   UNL     1       3.792   5.660  19.602  0.00  0.00    +0.000 A 
ATOM      6  C   UNL     1       2.493   5.436  20.094  0.00  0.00    +0.000 A 
ATOM      7  C   UNL     1       2.072   4.107  20.336  0.00  0.00    +0.000 A 
ATOM      8  C   UNL     1       2.906   3.043  19.974  0.00  0.00    +0.000 A 
ATOM      9  C   UNL     1       4.186   3.291  19.483  0.00  0.00    +0.000 A 
BRANCH   7  10
ATOM     10  N   UNL     1       0.748   3.830  20.743  0.00  0.00    +0.000 N 
ATOM     11  H   UNL     1       0.491   2.864  20.546  0.00  0.00    +0.000 HD
ATOM     12  H   UNL     1       0.062   4.497  20.406  0.00  0.00    +0.000 HD
ENDBRANCH   7  10
BRANCH   9  13
ATOM     13  O   UNL     1       5.019   2.252  19.174  0.00  0.00    +0.000 OA
ATOM     14  H   UNL     1       5.771   2.593  18.664  0.00  0.00    +0.000 HD
ENDBRANCH   9  13
ENDBRANCH   1   6
BRANCH   2  15
ATOM     15  C   UNL     1       1.164   8.634  20.590  0.00  0.00    +0.000 A 
ATOM     16  C   UNL     1       0.624   8.730  21.873  0.00  0.00    +0.000 A 
ATOM     17  C   UNL     1      -0.278   9.751  22.204  0.00  0.00    +0.000 A 
ATOM     18  C   UNL     1      -0.653  10.750  21.291  0.00  0.00    +0.000 A 
ATOM     19  C   UNL     1      -0.069  10.654  20.017  0.00  0.00    +0.000 A 
ATOM     20  C   UNL     1       0.815   9.618  19.670  0.00  0.00    +0.000 A 
BRANCH  18  21
ATOM     21  N   UNL     1      -1.575  11.732  21.629  0.00  0.00    +0.000 N 
ATOM     22  C   UNL     1      -1.638  12.263  23.004  0.00  0.00    +0.000 C 
ATOM     23  C   UNL     1      -3.057  12.151  23.515  0.00  0.00    +0.000 C 
ATOM     24  S   UNL     1      -4.113  13.144  22.493  0.00  0.00    +0.000 S 
ATOM     25  O   UNL     1      -5.488  12.778  22.788  0.00  0.00    +0.000 OA
ATOM     26  O   UNL     1      -3.691  14.526  22.605  0.00  0.00    +0.000 OA
ATOM     27  C   UNL     1      -3.743  12.578  20.858  0.00  0.00    +0.000 C 
ATOM     28  C   UNL     1      -2.246  12.575  20.623  0.00  0.00    +0.000 C 
ENDBRANCH  18  21
ENDBRANCH   2  15
TORSDOF 5
ENDMDL
MODEL 8
REMARK VINA RESULT:      -7.4      8.081      9.332
REMARK  Name = 
REMARK  6 active torsions:
REMARK  status: ('A' for Active; 'I' for Inactive)
REMARK    1  A    between atoms: C_1  and  C_2
REMARK    2  A    between atoms: C_4  and  N_5
REMARK    3  A    between atoms: N_6  and  C_7
REMARK    4  A    between atoms: C_10  and  N_11
REMARK    5  A    between atoms: C_21  and  N_22
REMARK    6  A    between atoms: C_24  and  O_25
REMARK                            x       y       z     vdW  Elec       q    Type
REMARK                         _______ _______ _______ _____ _____    ______ ____
ROOT
ATOM      1  N   UNL     1      -0.199  11.031  21.862  0.00  0.00    +0.000 NA
ATOM      2  N   UNL     1      -0.277  10.980  20.616  0.00  0.00    +0.000 NA
ENDROOT
BRANCH   1   6
ATOM      3  C   UNL     1      -4.220  12.438  24.473  0.00  0.00    +0.000 C 
ATOM      4  C   UNL     1      -2.964  12.767  23.723  0.00  0.00    +0.000 A 
ATOM      5  C   UNL     1      -2.203  11.749  23.132  0.00  0.00    +0.000 A 
ATOM      6  C   UNL     1      -1.012  12.033  22.438  0.00  0.00    +0.000 A 
ATOM      7  C   UNL     1      -0.552  13.370  22.387  0.00  0.00    +0.000 A 
ATOM      8  C   UNL     1      -1.342  14.393  22.923  0.00  0.00    +0.000 A 
ATOM      9  C   UNL     1      -2.521  14.086  23.601  0.00  0.00    +0.000 A 
BRANCH   7  10
ATOM     10  N   UNL     1       0.587  13.715  21.625  0.00  0.00    +0.000 N 
ATOM     11  H   UNL     1       0.822  14.700  21.729  0.00  0.00    +0.000 HD
ATOM     12  H   UNL     1       0.542  13.420  20.655  0.00  0.00    +0.000 HD
ENDBRANCH   7  10
BRANCH   9  13
ATOM     13  O   UNL     1      -3.269  15.080  24.167  0.00  0.00    +0.000 OA
ATOM     14  H   UNL     1      -2.696  15.618  24.737  0.00  0.00    +0.000 HD
ENDBRANCH   9  13
ENDBRANCH   1   6
BRANCH   2  15
ATOM     15  C   UNL     1       0.527   9.948  20.088  0.00  0.00    +0.000 A 
ATOM     16  C   UNL     1       1.005   9.934  18.778  0.00  0.00    +0.000 A 
ATOM     17  C   UNL     1       1.788   8.873  18.304  0.00  0.00    +0.000 A 
ATOM     18  C   UNL     1       2.168   7.794  19.120  0.00  0.00    +0.000 A 
ATOM     19  C   UNL     1       1.706   7.847  20.445  0.00  0.00    +0.000 A 
ATOM     20  C   UNL     1       0.899   8.896  20.919  0.00  0.00    +0.000 A 
BRANCH  18  21
ATOM     21  N   UNL     1       2.914   6.735  18.620  0.00  0.00    +0.000 N 
ATOM     22  C   UNL     1       2.544   5.341  18.931  0.00  0.00    +0.000 C 
ATOM     23  C   UNL     1       3.745   4.623  19.503  0.00  0.00    +0.000 C 
ATOM     24  S   UNL     1       5.028   4.590  18.279  0.00  0.00    +0.000 S 
ATOM     25  O   UNL     1       6.261   4.196  18.939  0.00  0.00    +0.000 OA
ATOM     26  O   UNL     1       4.549   3.844  17.133  0.00  0.00    +0.000 OA
ATOM     27  C   UNL     1       5.186   6.290  17.813  0.00  0.00    +0.000 C 
ATOM     28  C   UNL     1       3.830   6.876  17.474  0.00  0.00    +0.000 C 
ENDBRANCH  18  21
ENDBRANCH   2  15
TORSDOF 5
ENDMDL
MODEL 9
REMARK VINA RESULT:      -7.4      7.685      8.955
REMARK  Name = 
REMARK  6 active torsions:
REMARK  status: ('A' for Active; 'I' for Inactive)
REMARK    1  A    between atoms: C_1  and  C_2
REMARK    2  A    between atoms: C_4  and  N_5
REMARK    3  A    between atoms: N_6  and  C_7
REMARK    4  A    between atoms: C_10  and  N_11
REMARK    5  A    between atoms: C_21  and  N_22
REMARK    6  A    between atoms: C_24  and  O_25
REMARK                            x       y       z     vdW  Elec       q    Type
REMARK                         _______ _______ _______ _____ _____    ______ ____
ROOT
ATOM      1  N   UNL     1       0.314  10.895  21.499  0.00  0.00    +0.000 NA
ATOM      2  N   UNL     1       0.070  10.650  20.299  0.00  0.00    +0.000 NA
ENDROOT
BRANCH   1   6
ATOM      3  C   UNL     1      -3.691  12.360  24.104  0.00  0.00    +0.000 C 
ATOM      4  C   UNL     1      -2.447  12.673  23.325  0.00  0.00    +0.000 A 
ATOM      5  C   UNL     1      -1.682  11.640  22.765  0.00  0.00    +0.000 A 
ATOM      6  C   UNL     1      -0.503  11.910  22.046  0.00  0.00    +0.000 A 
ATOM      7  C   UNL     1      -0.058  13.249  21.937  0.00  0.00    +0.000 A 
ATOM      8  C   UNL     1      -0.853  14.283  22.444  0.00  0.00    +0.000 A 
ATOM      9  C   UNL     1      -2.020  13.990  23.148  0.00  0.00    +0.000 A 
BRANCH   7  10
ATOM     10  N   UNL     1       1.067  13.576  21.149  0.00  0.00    +0.000 N 
ATOM     11  H   UNL     1       1.908  13.110  21.486  0.00  0.00    +0.000 HD
ATOM     12  H   UNL     1       1.198  14.571  21.005  0.00  0.00    +0.000 HD
ENDBRANCH   7  10
BRANCH   9  13
ATOM     13  O   UNL     1      -2.772  14.998  23.684  0.00  0.00    +0.000 OA
ATOM     14  H   UNL     1      -2.748  15.761  23.083  0.00  0.00    +0.000 HD
ENDBRANCH   9  13
ENDBRANCH   1   6
BRANCH   2  15
ATOM     15  C   UNL     1       0.888   9.612  19.804  0.00  0.00    +0.000 A 
ATOM     16  C   UNL     1       1.273   8.505  20.559  0.00  0.00    +0.000 A 
ATOM     17  C   UNL     1       2.101   7.512  20.018  0.00  0.00    +0.000 A 
ATOM     18  C   UNL     1       2.553   7.550  18.688  0.00  0.00    +0.000 A 
ATOM     19  C   UNL     1       2.123   8.656  17.936  0.00  0.00    +0.000 A 
ATOM     20  C   UNL     1       1.314   9.668  18.480  0.00  0.00    +0.000 A 
BRANCH  18  21
ATOM     21  N   UNL     1       3.402   6.575  18.183  0.00  0.00    +0.000 N 
ATOM     22  C   UNL     1       3.152   5.147  18.452  0.00  0.00    +0.000 C 
ATOM     23  C   UNL     1       4.400   4.525  19.037  0.00  0.00    +0.000 C 
ATOM     24  S   UNL     1       5.708   4.637  17.844  0.00  0.00    +0.000 S 
ATOM     25  O   UNL     1       6.956   4.339  18.525  0.00  0.00    +0.000 OA
ATOM     26  O   UNL     1       5.323   3.881  16.669  0.00  0.00    +0.000 OA
ATOM     27  C   UNL     1       5.722   6.356  17.421  0.00  0.00    +0.000 C 
ATOM     28  C   UNL     1       4.327   6.826  17.063  0.00  0.00    +0.000 C 
ENDBRANCH  18  21
ENDBRANCH   2  15
TORSDOF 5
ENDMDL
