MODEL 1
REMARK VINA RESULT:      -7.6      0.000      0.000
REMARK  Name = 
REMARK  8 active torsions:
REMARK  status: ('A' for Active; 'I' for Inactive)
REMARK    1  A    between atoms: C_1  and  C_2
REMARK    2  A    between atoms: C_2  and  N_3
REMARK    3  A    between atoms: C_7  and  C_9
REMARK    4  A    between atoms: C_9  and  C_10
REMARK    5  A    between atoms: C_10  and  C_11
REMARK    6  A    between atoms: N_21  and  C_22
REMARK    7  A    between atoms: C_26  and  O_27
REMARK    8  A    between atoms: O_27  and  C_28
REMARK                            x       y       z     vdW  Elec       q    Type
REMARK                         _______ _______ _______ _____ _____    ______ ____
ROOT
ATOM      1  C   UNL     1      -0.447  13.872  21.536  0.00  0.00    +0.000 A 
ATOM      2  N   UNL     1      -0.328  15.157  21.248  0.00  0.00    +0.000 NA
ATOM      3  N   UNL     1       0.403  15.275  20.094  0.00  0.00    +0.000 NA
ATOM      4  C   UNL     1       0.714  14.062  19.701  0.00  0.00    +0.000 A 
ATOM      5  C   UNL     1       1.453  13.589  18.608  0.00  0.00    +0.000 A 
ATOM      6  C   UNL     1       1.616  12.271  18.465  0.00  0.00    +0.000 A 
ATOM      7  C   UNL     1       1.000  11.321  19.464  0.00  0.00    +0.000 A 
ATOM      8  N   UNL     1       1.175   9.947  19.319  0.00  0.00    +0.000 N 
ATOM      9  C   UNL     1       1.493   9.257  18.053  0.00  0.00    +0.000 C 
ATOM     10  C   UNL     1       2.606   8.212  18.269  0.00  0.00    +0.000 C 
ATOM     11  N   UNL     1       2.265   7.285  19.359  0.00  0.00    +0.000 N 
ATOM     12  C   UNL     1       1.861   7.934  20.623  0.00  0.00    +0.000 C 
ATOM     13  C   UNL     1       0.757   8.995  20.375  0.00  0.00    +0.000 C 
ATOM     14  N   UNL     1       0.323  11.767  20.499  0.00  0.00    +0.000 NA
ATOM     15  N   UNL     1       0.202  13.128  20.574  0.00  0.00    +0.000 N 
ENDROOT
BRANCH  11  16
ATOM     16  C   UNL     1       2.041   5.935  19.150  0.00  0.00    +0.000 A 
ATOM     17  C   UNL     1       2.161   5.379  17.868  0.00  0.00    +0.000 A 
ATOM     18  C   UNL     1       1.895   4.028  17.626  0.00  0.00    +0.000 A 
ATOM     19  C   UNL     1       1.505   3.200  18.674  0.00  0.00    +0.000 A 
ATOM     20  C   UNL     1       1.385   3.716  19.962  0.00  0.00    +0.000 A 
ATOM     21  C   UNL     1       1.655   5.071  20.189  0.00  0.00    +0.000 A 
BRANCH  20  22
ATOM     22  O   UNL     1       0.996   2.808  20.908  0.00  0.00    +0.000 OA
ATOM     23  C   UNL     1       2.009   2.306  21.771  0.00  0.00    +0.000 C 
ENDBRANCH  20  22
ENDBRANCH  11  16
BRANCH   1  24
ATOM     24  C   UNL     1      -1.161  13.297  22.712  0.00  0.00    +0.000 C 
BRANCH  24  25
ATOM     25  C   UNL     1      -2.339  12.442  22.241  0.00  0.00    +0.000 C 
BRANCH  25  30
ATOM     26  N   UNL     1      -5.911  16.157  22.386  0.00  0.00    +0.000 NA
ATOM     27  C   UNL     1      -5.976  15.308  23.600  0.00  0.00    +0.000 C 
ATOM     28  C   UNL     1      -5.740  13.807  23.344  0.00  0.00    +0.000 C 
ATOM     29  N   UNL     1      -4.486  13.589  22.619  0.00  0.00    +0.000 N 
ATOM     30  C   UNL     1      -3.591  12.627  23.069  0.00  0.00    +0.000 C 
ATOM     31  O   UNL     1      -3.791  11.957  24.082  0.00  0.00    +0.000 OA
ATOM     32  C   UNL     1      -4.318  14.420  21.417  0.00  0.00    +0.000 C 
ATOM     33  C   UNL     1      -4.606  15.908  21.722  0.00  0.00    +0.000 C 
BRANCH  26  35
ATOM     34  C   UNL     1      -6.982  16.824  20.207  0.00  0.00    +0.000 C 
ATOM     35  C   UNL     1      -7.015  15.928  21.440  0.00  0.00    +0.000 C 
ENDBRANCH  26  35
ENDBRANCH  25  30
ENDBRANCH  24  25
ENDBRANCH   1  24
TORSDOF 6
ENDMDL
MODEL 2
REMARK VINA RESULT:      -7.5      1.603      2.177
REMARK  Name = 
REMARK  8 active torsions:
REMARK  status: ('A' for Active; 'I' for Inactive)
REMARK    1  A    between atoms: C_1  and  C_2
REMARK    2  A    between atoms: C_2  and  N_3
REMARK    3  A    between atoms: C_7  and  C_9
REMARK    4  A    between atoms: C_9  and  C_10
REMARK    5  A    between atoms: C_10  and  C_11
REMARK    6  A    between atoms: N_21  and  C_22
REMARK    7  A    between atoms: C_26  and  O_27
REMARK    8  A    between atoms: O_27  and  C_28
REMARK                            x       y       z     vdW  Elec       q    Type
REMARK                         _______ _______ _______ _____ _____    ______ ____
ROOT
ATOM      1  C   UNL     1       0.304  14.128  20.707  0.00  0.00    +0.000 A 
ATOM      2  N   UNL     1       0.593  15.343  20.272  0.00  0.00    +0.000 NA
ATOM      3  N   UNL     1       1.388  15.227  19.162  0.00  0.00    +0.000 NA
ATOM      4  C   UNL     1       1.567  13.946  18.940  0.00  0.00    +0.000 A 
ATOM      5  C   UNL     1       2.296  13.254  17.963  0.00  0.00    +0.000 A 
ATOM      6  C   UNL     1       2.304  11.919  17.993  0.00  0.00    +0.000 A 
ATOM      7  C   UNL     1       1.528  11.182  19.059  0.00  0.00    +0.000 A 
ATOM      8  N   UNL     1       1.542   9.790  19.094  0.00  0.00    +0.000 N 
ATOM      9  C   UNL     1       1.835   8.911  17.945  0.00  0.00    +0.000 C 
ATOM     10  C   UNL     1       2.800   7.782  18.359  0.00  0.00    +0.000 C 
ATOM     11  N   UNL     1       2.296   7.048  19.529  0.00  0.00    +0.000 N 
ATOM     12  C   UNL     1       1.912   7.897  20.675  0.00  0.00    +0.000 C 
ATOM     13  C   UNL     1       0.959   9.036  20.230  0.00  0.00    +0.000 C 
ATOM     14  N   UNL     1       0.861  11.833  19.987  0.00  0.00    +0.000 NA
ATOM     15  N   UNL     1       0.904  13.197  19.887  0.00  0.00    +0.000 N 
ENDROOT
BRANCH  11  16
ATOM     16  C   UNL     1       1.919   5.717  19.473  0.00  0.00    +0.000 A 
ATOM     17  C   UNL     1       1.230   5.122  20.540  0.00  0.00    +0.000 A 
ATOM     18  C   UNL     1       0.879   3.769  20.525  0.00  0.00    +0.000 A 
ATOM     19  C   UNL     1       1.211   2.980  19.429  0.00  0.00    +0.000 A 
ATOM     20  C   UNL     1       1.887   3.540  18.346  0.00  0.00    +0.000 A 
ATOM     21  C   UNL     1       2.231   4.896  18.376  0.00  0.00    +0.000 A 
BRANCH  20  22
ATOM     22  O   UNL     1       2.158   2.667  17.328  0.00  0.00    +0.000 OA
ATOM     23  C   UNL     1       3.415   2.003  17.368  0.00  0.00    +0.000 C 
ENDBRANCH  20  22
ENDBRANCH  11  16
BRANCH   1  24
ATOM     24  C   UNL     1      -0.531  13.795  21.896  0.00  0.00    +0.000 C 
BRANCH  24  25
ATOM     25  C   UNL     1      -1.980  13.559  21.467  0.00  0.00    +0.000 C 
BRANCH  25  30
ATOM     26  N   UNL     1      -7.113  13.112  21.671  0.00  0.00    +0.000 NA
ATOM     27  C   UNL     1      -6.582  13.729  22.911  0.00  0.00    +0.000 C 
ATOM     28  C   UNL     1      -5.252  13.128  23.406  0.00  0.00    +0.000 C 
ATOM     29  N   UNL     1      -4.244  13.138  22.343  0.00  0.00    +0.000 N 
ATOM     30  C   UNL     1      -2.968  13.618  22.611  0.00  0.00    +0.000 C 
ATOM     31  O   UNL     1      -2.648  14.070  23.709  0.00  0.00    +0.000 OA
ATOM     32  C   UNL     1      -4.697  12.578  21.060  0.00  0.00    +0.000 C 
ATOM     33  C   UNL     1      -6.053  13.185  20.633  0.00  0.00    +0.000 C 
BRANCH  26  35
ATOM     34  C   UNL     1      -7.778  10.965  20.538  0.00  0.00    +0.000 C 
ATOM     35  C   UNL     1      -7.561  11.721  21.843  0.00  0.00    +0.000 C 
ENDBRANCH  26  35
ENDBRANCH  25  30
ENDBRANCH  24  25
ENDBRANCH   1  24
TORSDOF 6
ENDMDL
MODEL 3
REMARK VINA RESULT:      -7.4      1.184      1.321
REMARK  Name = 
REMARK  8 active torsions:
REMARK  status: ('A' for Active; 'I' for Inactive)
REMARK    1  A    between atoms: C_1  and  C_2
REMARK    2  A    between atoms: C_2  and  N_3
REMARK    3  A    between atoms: C_7  and  C_9
REMARK    4  A    between atoms: C_9  and  C_10
REMARK    5  A    between atoms: C_10  and  C_11
REMARK    6  A    between atoms: N_21  and  C_22
REMARK    7  A    between atoms: C_26  and  O_27
REMARK    8  A    between atoms: O_27  and  C_28
REMARK                            x       y       z     vdW  Elec       q    Type
REMARK                         _______ _______ _______ _____ _____    ______ ____
ROOT
ATOM      1  C   UNL     1      -1.445  14.055  22.051  0.00  0.00    +0.000 A 
ATOM      2  N   UNL     1      -1.645  15.316  21.708  0.00  0.00    +0.000 NA
ATOM      3  N   UNL     1      -1.206  15.490  20.422  0.00  0.00    +0.000 NA
ATOM      4  C   UNL     1      -0.748  14.333  20.004  0.00  0.00    +0.000 A 
ATOM      5  C   UNL     1      -0.171  13.934  18.792  0.00  0.00    +0.000 A 
ATOM      6  C   UNL     1       0.218  12.663  18.653  0.00  0.00    +0.000 A 
ATOM      7  C   UNL     1       0.023  11.685  19.786  0.00  0.00    +0.000 A 
ATOM      8  N   UNL     1       0.434  10.363  19.644  0.00  0.00    +0.000 N 
ATOM      9  C   UNL     1       0.615   9.659  18.359  0.00  0.00    +0.000 C 
ATOM     10  C   UNL     1       1.934   8.860  18.359  0.00  0.00    +0.000 C 
ATOM     11  N   UNL     1       2.016   7.963  19.521  0.00  0.00    +0.000 N 
ATOM     12  C   UNL     1       1.759   8.610  20.824  0.00  0.00    +0.000 C 
ATOM     13  C   UNL     1       0.440   9.423  20.791  0.00  0.00    +0.000 C 
ATOM     14  N   UNL     1      -0.502  12.066  20.931  0.00  0.00    +0.000 NA
ATOM     15  N   UNL     1      -0.872  13.382  20.992  0.00  0.00    +0.000 N 
ENDROOT
BRANCH  11  16
ATOM     16  C   UNL     1       2.027   6.584  19.403  0.00  0.00    +0.000 A 
ATOM     17  C   UNL     1       2.330   5.972  18.177  0.00  0.00    +0.000 A 
ATOM     18  C   UNL     1       2.302   4.583  18.023  0.00  0.00    +0.000 A 
ATOM     19  C   UNL     1       1.972   3.773  19.104  0.00  0.00    +0.000 A 
ATOM     20  C   UNL     1       1.674   4.345  20.339  0.00  0.00    +0.000 A 
ATOM     21  C   UNL     1       1.706   5.738  20.478  0.00  0.00    +0.000 A 
BRANCH  20  22
ATOM     22  O   UNL     1       1.366   3.448  21.325  0.00  0.00    +0.000 OA
ATOM     23  C   UNL     1       2.005   2.180  21.263  0.00  0.00    +0.000 C 
ENDBRANCH  20  22
ENDBRANCH  11  16
BRANCH   1  24
ATOM     24  C   UNL     1      -1.772  13.438  23.368  0.00  0.00    +0.000 C 
BRANCH  24  25
ATOM     25  C   UNL     1      -3.078  14.022  23.908  0.00  0.00    +0.000 C 
BRANCH  25  30
ATOM     26  N   UNL     1      -7.802  14.758  21.978  0.00  0.00    +0.000 NA
ATOM     27  C   UNL     1      -7.747  13.520  22.792  0.00  0.00    +0.000 C 
ATOM     28  C   UNL     1      -6.443  12.712  22.639  0.00  0.00    +0.000 C 
ATOM     29  N   UNL     1      -5.271  13.555  22.887  0.00  0.00    +0.000 N 
ATOM     30  C   UNL     1      -4.269  13.105  23.737  0.00  0.00    +0.000 C 
ATOM     31  O   UNL     1      -4.333  12.025  24.324  0.00  0.00    +0.000 OA
ATOM     32  C   UNL     1      -5.261  14.826  22.148  0.00  0.00    +0.000 C 
ATOM     33  C   UNL     1      -6.604  15.574  22.303  0.00  0.00    +0.000 C 
BRANCH  26  35
ATOM     34  C   UNL     1      -7.916  15.780  19.680  0.00  0.00    +0.000 C 
ATOM     35  C   UNL     1      -7.874  14.514  20.528  0.00  0.00    +0.000 C 
ENDBRANCH  26  35
ENDBRANCH  25  30
ENDBRANCH  24  25
ENDBRANCH   1  24
TORSDOF 6
ENDMDL
MODEL 4
REMARK VINA RESULT:      -7.4      1.552      1.937
REMARK  Name = 
REMARK  8 active torsions:
REMARK  status: ('A' for Active; 'I' for Inactive)
REMARK    1  A    between atoms: C_1  and  C_2
REMARK    2  A    between atoms: C_2  and  N_3
REMARK    3  A    between atoms: C_7  and  C_9
REMARK    4  A    between atoms: C_9  and  C_10
REMARK    5  A    between atoms: C_10  and  C_11
REMARK    6  A    between atoms: N_21  and  C_22
REMARK    7  A    between atoms: C_26  and  O_27
REMARK    8  A    between atoms: O_27  and  C_28
REMARK                            x       y       z     vdW  Elec       q    Type
REMARK                         _______ _______ _______ _____ _____    ______ ____
ROOT
ATOM      1  C   UNL     1      -0.047  13.883  21.389  0.00  0.00    +0.000 A 
ATOM      2  N   UNL     1       0.141  15.135  21.009  0.00  0.00    +0.000 NA
ATOM      3  N   UNL     1       0.849  15.130  19.835  0.00  0.00    +0.000 NA
ATOM      4  C   UNL     1       1.077  13.876  19.521  0.00  0.00    +0.000 A 
ATOM      5  C   UNL     1       1.759  13.285  18.449  0.00  0.00    +0.000 A 
ATOM      6  C   UNL     1       1.840  11.953  18.395  0.00  0.00    +0.000 A 
ATOM      7  C   UNL     1       1.194  11.112  19.470  0.00  0.00    +0.000 A 
ATOM      8  N   UNL     1       1.283   9.724  19.417  0.00  0.00    +0.000 N 
ATOM      9  C   UNL     1       1.528   8.931  18.196  0.00  0.00    +0.000 C 
ATOM     10  C   UNL     1       2.582   7.837  18.462  0.00  0.00    +0.000 C 
ATOM     11  N   UNL     1       2.215   7.009  19.620  0.00  0.00    +0.000 N 
ATOM     12  C   UNL     1       1.881   7.767  20.844  0.00  0.00    +0.000 C 
ATOM     13  C   UNL     1       0.836   8.873  20.546  0.00  0.00    +0.000 C 
ATOM     14  N   UNL     1       0.571  11.669  20.486  0.00  0.00    +0.000 NA
ATOM     15  N   UNL     1       0.533  13.036  20.468  0.00  0.00    +0.000 N 
ENDROOT
BRANCH  11  16
ATOM     16  C   UNL     1       1.905   5.664  19.511  0.00  0.00    +0.000 A 
ATOM     17  C   UNL     1       1.241   4.995  20.550  0.00  0.00    +0.000 A 
ATOM     18  C   UNL     1       0.960   3.628  20.481  0.00  0.00    +0.000 A 
ATOM     19  C   UNL     1       1.337   2.899  19.358  0.00  0.00    +0.000 A 
ATOM     20  C   UNL     1       1.989   3.533  18.302  0.00  0.00    +0.000 A 
ATOM     21  C   UNL     1       2.265   4.902  18.386  0.00  0.00    +0.000 A 
BRANCH  20  22
ATOM     22  O   UNL     1       2.309   2.714  17.254  0.00  0.00    +0.000 OA
ATOM     23  C   UNL     1       3.512   1.965  17.368  0.00  0.00    +0.000 C 
ENDBRANCH  20  22
ENDBRANCH  11  16
BRANCH   1  24
ATOM     24  C   UNL     1      -0.763  13.434  22.617  0.00  0.00    +0.000 C 
BRANCH  24  25
ATOM     25  C   UNL     1      -2.192  13.981  22.618  0.00  0.00    +0.000 C 
BRANCH  25  30
ATOM     26  N   UNL     1      -6.794  14.223  20.308  0.00  0.00    +0.000 NA
ATOM     27  C   UNL     1      -6.655  12.968  21.087  0.00  0.00    +0.000 C 
ATOM     28  C   UNL     1      -5.254  12.329  21.024  0.00  0.00    +0.000 C 
ATOM     29  N   UNL     1      -4.218  13.296  21.398  0.00  0.00    +0.000 N 
ATOM     30  C   UNL     1      -3.242  12.936  22.317  0.00  0.00    +0.000 C 
ATOM     31  O   UNL     1      -3.222  11.834  22.865  0.00  0.00    +0.000 OA
ATOM     32  C   UNL     1      -4.303  14.588  20.699  0.00  0.00    +0.000 C 
ATOM     33  C   UNL     1      -5.737  15.162  20.759  0.00  0.00    +0.000 C 
BRANCH  26  35
ATOM     34  C   UNL     1      -7.847  13.192  18.266  0.00  0.00    +0.000 C 
ATOM     35  C   UNL     1      -6.716  14.030  18.851  0.00  0.00    +0.000 C 
ENDBRANCH  26  35
ENDBRANCH  25  30
ENDBRANCH  24  25
ENDBRANCH   1  24
TORSDOF 6
ENDMDL
MODEL 5
REMARK VINA RESULT:      -7.2      3.901      6.780
REMARK  Name = 
REMARK  8 active torsions:
REMARK  status: ('A' for Active; 'I' for Inactive)
REMARK    1  A    between atoms: C_1  and  C_2
REMARK    2  A    between atoms: C_2  and  N_3
REMARK    3  A    between atoms: C_7  and  C_9
REMARK    4  A    between atoms: C_9  and  C_10
REMARK    5  A    between atoms: C_10  and  C_11
REMARK    6  A    between atoms: N_21  and  C_22
REMARK    7  A    between atoms: C_26  and  O_27
REMARK    8  A    between atoms: O_27  and  C_28
REMARK                            x       y       z     vdW  Elec       q    Type
REMARK                         _______ _______ _______ _____ _____    ______ ____
ROOT
ATOM      1  C   UNL     1      -0.338  12.548  21.427  0.00  0.00    +0.000 A 
ATOM      2  N   UNL     1      -1.187  12.866  22.388  0.00  0.00    +0.000 NA
ATOM      3  N   UNL     1      -1.490  11.730  23.091  0.00  0.00    +0.000 NA
ATOM      4  C   UNL     1      -0.820  10.741  22.547  0.00  0.00    +0.000 A 
ATOM      5  C   UNL     1      -0.759   9.373  22.841  0.00  0.00    +0.000 A 
ATOM      6  C   UNL     1       0.021   8.588  22.092  0.00  0.00    +0.000 A 
ATOM      7  C   UNL     1       0.825   9.182  20.960  0.00  0.00    +0.000 A 
ATOM      8  N   UNL     1       1.633   8.364  20.175  0.00  0.00    +0.000 N 
ATOM      9  C   UNL     1       2.180   7.057  20.588  0.00  0.00    +0.000 C 
ATOM     10  C   UNL     1       2.012   6.018  19.461  0.00  0.00    +0.000 C 
ATOM     11  N   UNL     1       2.581   6.504  18.196  0.00  0.00    +0.000 N 
ATOM     12  C   UNL     1       2.123   7.847  17.784  0.00  0.00    +0.000 C 
ATOM     13  C   UNL     1       2.282   8.867  18.941  0.00  0.00    +0.000 C 
ATOM     14  N   UNL     1       0.752  10.464  20.673  0.00  0.00    +0.000 NA
ATOM     15  N   UNL     1      -0.069  11.197  21.485  0.00  0.00    +0.000 N 
ENDROOT
BRANCH  11  16
ATOM     16  C   UNL     1       3.676   5.910  17.589  0.00  0.00    +0.000 A 
ATOM     17  C   UNL     1       3.639   4.560  17.210  0.00  0.00    +0.000 A 
ATOM     18  C   UNL     1       4.747   3.929  16.638  0.00  0.00    +0.000 A 
ATOM     19  C   UNL     1       5.922   4.644  16.430  0.00  0.00    +0.000 A 
ATOM     20  C   UNL     1       5.990   5.990  16.786  0.00  0.00    +0.000 A 
ATOM     21  C   UNL     1       4.873   6.609  17.357  0.00  0.00    +0.000 A 
BRANCH  20  22
ATOM     22  O   UNL     1       7.195   6.587  16.532  0.00  0.00    +0.000 OA
ATOM     23  C   UNL     1       7.632   7.571  17.461  0.00  0.00    +0.000 C 
ENDBRANCH  20  22
ENDBRANCH  11  16
BRANCH   1  24
ATOM     24  C   UNL     1       0.246  13.483  20.422  0.00  0.00    +0.000 C 
BRANCH  24  25
ATOM     25  C   UNL     1       1.334  14.338  21.075  0.00  0.00    +0.000 C 
BRANCH  25  30
ATOM     26  N   UNL     1       5.946  16.160  19.666  0.00  0.00    +0.000 NA
ATOM     27  C   UNL     1       4.889  17.183  19.478  0.00  0.00    +0.000 C 
ATOM     28  C   UNL     1       3.549  16.630  18.957  0.00  0.00    +0.000 C 
ATOM     29  N   UNL     1       3.071  15.531  19.801  0.00  0.00    +0.000 N 
ATOM     30  C   UNL     1       1.753  15.526  20.239  0.00  0.00    +0.000 C 
ATOM     31  O   UNL     1       0.962  16.430  19.973  0.00  0.00    +0.000 OA
ATOM     32  C   UNL     1       4.069  14.486  20.072  0.00  0.00    +0.000 C 
ATOM     33  C   UNL     1       5.404  15.099  20.553  0.00  0.00    +0.000 C 
BRANCH  26  35
ATOM     34  C   UNL     1       7.534  14.530  18.589  0.00  0.00    +0.000 C 
ATOM     35  C   UNL     1       6.436  15.572  18.409  0.00  0.00    +0.000 C 
ENDBRANCH  26  35
ENDBRANCH  25  30
ENDBRANCH  24  25
ENDBRANCH   1  24
TORSDOF 6
ENDMDL
MODEL 6
REMARK VINA RESULT:      -7.2      1.005      1.396
REMARK  Name = 
REMARK  8 active torsions:
REMARK  status: ('A' for Active; 'I' for Inactive)
REMARK    1  A    between atoms: C_1  and  C_2
REMARK    2  A    between atoms: C_2  and  N_3
REMARK    3  A    between atoms: C_7  and  C_9
REMARK    4  A    between atoms: C_9  and  C_10
REMARK    5  A    between atoms: C_10  and  C_11
REMARK    6  A    between atoms: N_21  and  C_22
REMARK    7  A    between atoms: C_26  and  O_27
REMARK    8  A    between atoms: O_27  and  C_28
REMARK                            x       y       z     vdW  Elec       q    Type
REMARK                         _______ _______ _______ _____ _____    ______ ____
ROOT
ATOM      1  C   UNL     1      -0.432  13.690  21.711  0.00  0.00    +0.000 A 
ATOM      2  N   UNL     1      -0.351  14.982  21.439  0.00  0.00    +0.000 NA
ATOM      3  N   UNL     1       0.324  15.132  20.256  0.00  0.00    +0.000 NA
ATOM      4  C   UNL     1       0.641  13.932  19.830  0.00  0.00    +0.000 A 
ATOM      5  C   UNL     1       1.340  13.491  18.698  0.00  0.00    +0.000 A 
ATOM      6  C   UNL     1       1.523  12.179  18.526  0.00  0.00    +0.000 A 
ATOM      7  C   UNL     1       0.971  11.201  19.537  0.00  0.00    +0.000 A 
ATOM      8  N   UNL     1       1.167   9.834  19.361  0.00  0.00    +0.000 N 
ATOM      9  C   UNL     1       1.442   9.170  18.072  0.00  0.00    +0.000 C 
ATOM     10  C   UNL     1       2.584   8.145  18.222  0.00  0.00    +0.000 C 
ATOM     11  N   UNL     1       2.311   7.195  19.310  0.00  0.00    +0.000 N 
ATOM     12  C   UNL     1       1.950   7.816  20.601  0.00  0.00    +0.000 C 
ATOM     13  C   UNL     1       0.816   8.857  20.419  0.00  0.00    +0.000 C 
ATOM     14  N   UNL     1       0.332  11.618  20.608  0.00  0.00    +0.000 NA
ATOM     15  N   UNL     1       0.188  12.974  20.710  0.00  0.00    +0.000 N 
ENDROOT
BRANCH  11  16
ATOM     16  C   UNL     1       2.104   5.843  19.090  0.00  0.00    +0.000 A 
ATOM     17  C   UNL     1       2.279   5.291  17.812  0.00  0.00    +0.000 A 
ATOM     18  C   UNL     1       2.032   3.939  17.557  0.00  0.00    +0.000 A 
ATOM     19  C   UNL     1       1.606   3.106  18.587  0.00  0.00    +0.000 A 
ATOM     20  C   UNL     1       1.431   3.619  19.871  0.00  0.00    +0.000 A 
ATOM     21  C   UNL     1       1.682   4.974  20.111  0.00  0.00    +0.000 A 
BRANCH  20  22
ATOM     22  O   UNL     1       1.011   2.705  20.799  0.00  0.00    +0.000 OA
ATOM     23  C   UNL     1       1.864   2.485  21.915  0.00  0.00    +0.000 C 
ENDBRANCH  20  22
ENDBRANCH  11  16
BRANCH   1  24
ATOM     24  C   UNL     1      -1.081  13.083  22.908  0.00  0.00    +0.000 C 
BRANCH  24  25
ATOM     25  C   UNL     1      -2.335  12.314  22.490  0.00  0.00    +0.000 C 
BRANCH  25  30
ATOM     26  N   UNL     1      -6.236  15.656  22.938  0.00  0.00    +0.000 NA
ATOM     27  C   UNL     1      -6.177  15.086  21.570  0.00  0.00    +0.000 C 
ATOM     28  C   UNL     1      -4.752  14.893  21.019  0.00  0.00    +0.000 C 
ATOM     29  N   UNL     1      -3.931  14.111  21.948  0.00  0.00    +0.000 N 
ATOM     30  C   UNL     1      -3.181  13.044  21.470  0.00  0.00    +0.000 C 
ATOM     31  O   UNL     1      -3.195  12.700  20.289  0.00  0.00    +0.000 OA
ATOM     32  C   UNL     1      -3.960  14.583  23.340  0.00  0.00    +0.000 C 
ATOM     33  C   UNL     1      -5.411  14.799  23.827  0.00  0.00    +0.000 C 
BRANCH  26  35
ATOM     34  C   UNL     1      -5.655  17.591  24.441  0.00  0.00    +0.000 C 
ATOM     35  C   UNL     1      -5.786  17.055  23.020  0.00  0.00    +0.000 C 
ENDBRANCH  26  35
ENDBRANCH  25  30
ENDBRANCH  24  25
ENDBRANCH   1  24
TORSDOF 6
ENDMDL
MODEL 7
REMARK VINA RESULT:      -7.2      2.730      3.932
REMARK  Name = 
REMARK  8 active torsions:
REMARK  status: ('A' for Active; 'I' for Inactive)
REMARK    1  A    between atoms: C_1  and  C_2
REMARK    2  A    between atoms: C_2  and  N_3
REMARK    3  A    between atoms: C_7  and  C_9
REMARK    4  A    between atoms: C_9  and  C_10
REMARK    5  A    between atoms: C_10  and  C_11
REMARK    6  A    between atoms: N_21  and  C_22
REMARK    7  A    between atoms: C_26  and  O_27
REMARK    8  A    between atoms: O_27  and  C_28
REMARK                            x       y       z     vdW  Elec       q    Type
REMARK                         _______ _______ _______ _____ _____    ______ ____
ROOT
ATOM      1  C   UNL     1      -0.200  12.443  21.645  0.00  0.00    +0.000 A 
ATOM      2  N   UNL     1      -0.997  12.772  22.648  0.00  0.00    +0.000 NA
ATOM      3  N   UNL     1      -1.273  11.640  23.370  0.00  0.00    +0.000 NA
ATOM      4  C   UNL     1      -0.639  10.645  22.796  0.00  0.00    +0.000 A 
ATOM      5  C   UNL     1      -0.574   9.277  23.092  0.00  0.00    +0.000 A 
ATOM      6  C   UNL     1       0.160   8.483  22.307  0.00  0.00    +0.000 A 
ATOM      7  C   UNL     1       0.909   9.067  21.133  0.00  0.00    +0.000 A 
ATOM      8  N   UNL     1       1.670   8.239  20.311  0.00  0.00    +0.000 N 
ATOM      9  C   UNL     1       2.227   6.929  20.700  0.00  0.00    +0.000 C 
ATOM     10  C   UNL     1       1.993   5.887  19.587  0.00  0.00    +0.000 C 
ATOM     11  N   UNL     1       2.500   6.365  18.293  0.00  0.00    +0.000 N 
ATOM     12  C   UNL     1       2.033   7.710  17.900  0.00  0.00    +0.000 C 
ATOM     13  C   UNL     1       2.259   8.732  19.043  0.00  0.00    +0.000 C 
ATOM     14  N   UNL     1       0.832  10.347  20.845  0.00  0.00    +0.000 NA
ATOM     15  N   UNL     1       0.060  11.090  21.695  0.00  0.00    +0.000 N 
ENDROOT
BRANCH  11  16
ATOM     16  C   UNL     1       3.558   5.760  17.634  0.00  0.00    +0.000 A 
ATOM     17  C   UNL     1       3.460   4.432  17.191  0.00  0.00    +0.000 A 
ATOM     18  C   UNL     1       4.530   3.787  16.564  0.00  0.00    +0.000 A 
ATOM     19  C   UNL     1       5.727   4.467  16.363  0.00  0.00    +0.000 A 
ATOM     20  C   UNL     1       5.856   5.790  16.781  0.00  0.00    +0.000 A 
ATOM     21  C   UNL     1       4.776   6.423  17.407  0.00  0.00    +0.000 A 
BRANCH  20  22
ATOM     22  O   UNL     1       7.077   6.353  16.528  0.00  0.00    +0.000 OA
ATOM     23  C   UNL     1       7.471   7.434  17.364  0.00  0.00    +0.000 C 
ENDBRANCH  20  22
ENDBRANCH  11  16
BRANCH   1  24
ATOM     24  C   UNL     1       0.338  13.370  20.609  0.00  0.00    +0.000 C 
BRANCH  24  25
ATOM     25  C   UNL     1      -0.813  14.044  19.861  0.00  0.00    +0.000 C 
BRANCH  25  30
ATOM     26  N   UNL     1      -5.414  13.846  22.180  0.00  0.00    +0.000 NA
ATOM     27  C   UNL     1      -5.139  12.593  21.435  0.00  0.00    +0.000 C 
ATOM     28  C   UNL     1      -4.425  12.797  20.085  0.00  0.00    +0.000 C 
ATOM     29  N   UNL     1      -3.202  13.587  20.251  0.00  0.00    +0.000 N 
ATOM     30  C   UNL     1      -2.018  13.150  19.671  0.00  0.00    +0.000 C 
ATOM     31  O   UNL     1      -1.939  12.099  19.037  0.00  0.00    +0.000 OA
ATOM     32  C   UNL     1      -3.374  14.832  21.014  0.00  0.00    +0.000 C 
ATOM     33  C   UNL     1      -4.130  14.576  22.338  0.00  0.00    +0.000 C 
BRANCH  26  35
ATOM     34  C   UNL     1      -7.819  14.115  21.487  0.00  0.00    +0.000 C 
ATOM     35  C   UNL     1      -6.417  14.712  21.540  0.00  0.00    +0.000 C 
ENDBRANCH  26  35
ENDBRANCH  25  30
ENDBRANCH  24  25
ENDBRANCH   1  24
TORSDOF 6
ENDMDL
MODEL 8
REMARK VINA RESULT:      -7.2      1.543      2.167
REMARK  Name = 
REMARK  8 active torsions:
REMARK  status: ('A' for Active; 'I' for Inactive)
REMARK    1  A    between atoms: C_1  and  C_2
REMARK    2  A    between atoms: C_2  and  N_3
REMARK    3  A    between atoms: C_7  and  C_9
REMARK    4  A    between atoms: C_9  and  C_10
REMARK    5  A    between atoms: C_10  and  C_11
REMARK    6  A    between atoms: N_21  and  C_22
REMARK    7  A    between atoms: C_26  and  O_27
REMARK    8  A    between atoms: O_27  and  C_28
REMARK                            x       y       z     vdW  Elec       q    Type
REMARK                         _______ _______ _______ _____ _____    ______ ____
ROOT
ATOM      1  C   UNL     1      -0.382  14.232  20.360  0.00  0.00    +0.000 A 
ATOM      2  N   UNL     1      -0.094  15.459  19.958  0.00  0.00    +0.000 NA
ATOM      3  N   UNL     1       0.882  15.383  19.000  0.00  0.00    +0.000 NA
ATOM      4  C   UNL     1       1.169  14.113  18.833  0.00  0.00    +0.000 A 
ATOM      5  C   UNL     1       2.091  13.459  18.004  0.00  0.00    +0.000 A 
ATOM      6  C   UNL     1       2.171  12.126  18.058  0.00  0.00    +0.000 A 
ATOM      7  C   UNL     1       1.271  11.353  18.992  0.00  0.00    +0.000 A 
ATOM      8  N   UNL     1       1.358   9.965  19.053  0.00  0.00    +0.000 N 
ATOM      9  C   UNL     1       1.891   9.096  17.985  0.00  0.00    +0.000 C 
ATOM     10  C   UNL     1       2.837   8.029  18.574  0.00  0.00    +0.000 C 
ATOM     11  N   UNL     1       2.186   7.276  19.655  0.00  0.00    +0.000 N 
ATOM     12  C   UNL     1       1.566   8.108  20.706  0.00  0.00    +0.000 C 
ATOM     13  C   UNL     1       0.638   9.185  20.088  0.00  0.00    +0.000 C 
ATOM     14  N   UNL     1       0.420  11.969  19.783  0.00  0.00    +0.000 NA
ATOM     15  N   UNL     1       0.400  13.332  19.668  0.00  0.00    +0.000 N 
ENDROOT
BRANCH  11  16
ATOM     16  C   UNL     1       1.901   5.924  19.560  0.00  0.00    +0.000 A 
ATOM     17  C   UNL     1       1.308   5.240  20.631  0.00  0.00    +0.000 A 
ATOM     18  C   UNL     1       1.053   3.866  20.574  0.00  0.00    +0.000 A 
ATOM     19  C   UNL     1       1.387   3.147  19.432  0.00  0.00    +0.000 A 
ATOM     20  C   UNL     1       1.969   3.796  18.345  0.00  0.00    +0.000 A 
ATOM     21  C   UNL     1       2.218   5.171  18.416  0.00  0.00    +0.000 A 
BRANCH  20  22
ATOM     22  O   UNL     1       2.251   2.985  17.279  0.00  0.00    +0.000 OA
ATOM     23  C   UNL     1       3.083   1.860  17.531  0.00  0.00    +0.000 C 
ENDBRANCH  20  22
ENDBRANCH  11  16
BRANCH   1  24
ATOM     24  C   UNL     1      -1.385  13.859  21.398  0.00  0.00    +0.000 C 
BRANCH  24  25
ATOM     25  C   UNL     1      -2.689  14.624  21.164  0.00  0.00    +0.000 C 
BRANCH  25  30
ATOM     26  N   UNL     1      -7.556  14.397  22.849  0.00  0.00    +0.000 NA
ATOM     27  C   UNL     1      -6.769  15.386  23.625  0.00  0.00    +0.000 C 
ATOM     28  C   UNL     1      -5.320  14.956  23.924  0.00  0.00    +0.000 C 
ATOM     29  N   UNL     1      -4.620  14.580  22.693  0.00  0.00    +0.000 N 
ATOM     30  C   UNL     1      -3.353  15.092  22.439  0.00  0.00    +0.000 C 
ATOM     31  O   UNL     1      -2.794  15.882  23.198  0.00  0.00    +0.000 OA
ATOM     32  C   UNL     1      -5.347  13.629  21.838  0.00  0.00    +0.000 C 
ATOM     33  C   UNL     1      -6.804  14.088  21.606  0.00  0.00    +0.000 C 
BRANCH  26  35
ATOM     34  C   UNL     1      -7.914  11.909  22.716  0.00  0.00    +0.000 C 
ATOM     35  C   UNL     1      -7.851  13.158  23.587  0.00  0.00    +0.000 C 
ENDBRANCH  26  35
ENDBRANCH  25  30
ENDBRANCH  24  25
ENDBRANCH   1  24
TORSDOF 6
ENDMDL
MODEL 9
REMARK VINA RESULT:      -7.0      1.235      1.631
REMARK  Name = 
REMARK  8 active torsions:
REMARK  status: ('A' for Active; 'I' for Inactive)
REMARK    1  A    between atoms: C_1  and  C_2
REMARK    2  A    between atoms: C_2  and  N_3
REMARK    3  A    between atoms: C_7  and  C_9
REMARK    4  A    between atoms: C_9  and  C_10
REMARK    5  A    between atoms: C_10  and  C_11
REMARK    6  A    between atoms: N_21  and  C_22
REMARK    7  A    between atoms: C_26  and  O_27
REMARK    8  A    between atoms: O_27  and  C_28
REMARK                            x       y       z     vdW  Elec       q    Type
REMARK                         _______ _______ _______ _____ _____    ______ ____
ROOT
ATOM      1  C   UNL     1      -0.291  14.250  20.712  0.00  0.00    +0.000 A 
ATOM      2  N   UNL     1      -0.089  15.499  20.326  0.00  0.00    +0.000 NA
ATOM      3  N   UNL     1       0.749  15.486  19.242  0.00  0.00    +0.000 NA
ATOM      4  C   UNL     1       1.042  14.232  18.987  0.00  0.00    +0.000 A 
ATOM      5  C   UNL     1       1.857  13.636  18.016  0.00  0.00    +0.000 A 
ATOM      6  C   UNL     1       1.975  12.305  18.004  0.00  0.00    +0.000 A 
ATOM      7  C   UNL     1       1.229  11.472  19.019  0.00  0.00    +0.000 A 
ATOM      8  N   UNL     1       1.357  10.086  19.011  0.00  0.00    +0.000 N 
ATOM      9  C   UNL     1       1.760   9.273  17.846  0.00  0.00    +0.000 C 
ATOM     10  C   UNL     1       2.802   8.213  18.259  0.00  0.00    +0.000 C 
ATOM     11  N   UNL     1       2.321   7.401  19.387  0.00  0.00    +0.000 N 
ATOM     12  C   UNL     1       1.830   8.176  20.545  0.00  0.00    +0.000 C 
ATOM     13  C   UNL     1       0.802   9.248  20.101  0.00  0.00    +0.000 C 
ATOM     14  N   UNL     1       0.479  12.034  19.942  0.00  0.00    +0.000 NA
ATOM     15  N   UNL     1       0.412  13.399  19.886  0.00  0.00    +0.000 N 
ENDROOT
BRANCH  11  16
ATOM     16  C   UNL     1       2.058   6.046  19.276  0.00  0.00    +0.000 A 
ATOM     17  C   UNL     1       2.115   5.406  18.029  0.00  0.00    +0.000 A 
ATOM     18  C   UNL     1       1.809   4.049  17.887  0.00  0.00    +0.000 A 
ATOM     19  C   UNL     1       1.442   3.301  19.001  0.00  0.00    +0.000 A 
ATOM     20  C   UNL     1       1.385   3.902  20.256  0.00  0.00    +0.000 A 
ATOM     21  C   UNL     1       1.694   5.262  20.383  0.00  0.00    +0.000 A 
BRANCH  20  22
ATOM     22  O   UNL     1       1.014   3.067  21.274  0.00  0.00    +0.000 OA
ATOM     23  C   UNL     1       1.936   2.047  21.636  0.00  0.00    +0.000 C 
ENDBRANCH  20  22
ENDBRANCH  11  16
BRANCH   1  24
ATOM     24  C   UNL     1      -1.134  13.809  21.860  0.00  0.00    +0.000 C 
BRANCH  24  25
ATOM     25  C   UNL     1      -1.957  14.986  22.386  0.00  0.00    +0.000 C 
BRANCH  25  30
ATOM     26  N   UNL     1      -6.911  13.655  21.868  0.00  0.00    +0.000 NA
ATOM     27  C   UNL     1      -6.600  14.012  23.274  0.00  0.00    +0.000 C 
ATOM     28  C   UNL     1      -5.219  13.534  23.764  0.00  0.00    +0.000 C 
ATOM     29  N   UNL     1      -4.156  13.985  22.861  0.00  0.00    +0.000 N 
ATOM     30  C   UNL     1      -3.019  14.585  23.385  0.00  0.00    +0.000 C 
ATOM     31  O   UNL     1      -2.871  14.787  24.589  0.00  0.00    +0.000 OA
ATOM     32  C   UNL     1      -4.400  13.705  21.438  0.00  0.00    +0.000 C 
ATOM     33  C   UNL     1      -5.812  14.167  21.011  0.00  0.00    +0.000 C 
BRANCH  26  35
ATOM     34  C   UNL     1      -7.916  11.512  22.728  0.00  0.00    +0.000 C 
ATOM     35  C   UNL     1      -7.097  12.211  21.648  0.00  0.00    +0.000 C 
ENDBRANCH  26  35
ENDBRANCH  25  30
ENDBRANCH  24  25
ENDBRANCH   1  24
TORSDOF 6
ENDMDL
