MODEL 1
REMARK VINA RESULT:      -5.6      0.000      0.000
REMARK  Name = 
REMARK  6 active torsions:
REMARK  status: ('A' for Active; 'I' for Inactive)
REMARK    1  A    between atoms: C_1  and  C_2
REMARK    2  A    between atoms: C_2  and  C_3
REMARK    3  A    between atoms: C_3  and  C_4
REMARK    4  A    between atoms: C_4  and  N_5
REMARK    5  A    between atoms: C_7  and  N_8
REMARK    6  A    between atoms: C_12  and  C_13
REMARK                            x       y       z     vdW  Elec       q    Type
REMARK                         _______ _______ _______ _____ _____    ______ ____
ROOT
ATOM      1  N   UNL     1       3.915   5.126  18.692  0.00  0.00    +0.000 N 
ATOM      2  C   UNL     1       5.216   5.468  18.946  0.00  0.00    +0.000 A 
ATOM      3  C   UNL     1       5.960   4.686  18.088  0.00  0.00    +0.000 A 
ATOM      4  N   UNL     1       5.141   3.873  17.332  0.00  0.00    +0.000 NA
ATOM      5  C   UNL     1       3.910   4.156  17.713  0.00  0.00    +0.000 A 
ATOM      6  C   UNL     1       2.677   3.528  17.171  0.00  0.00    +0.000 C 
ENDROOT
BRANCH   3   7
ATOM      7  N   UNL     1       7.398   4.666  17.937  0.00  0.00    +0.000 N 
ATOM      8  O   UNL     1       7.833   4.402  16.805  0.00  0.00    +0.000 OA
ATOM      9  O   UNL     1       8.089   4.907  18.935  0.00  0.00    +0.000 OA
ENDBRANCH   3   7
BRANCH   1  10
ATOM     10  C   UNL     1       2.759   5.716  19.346  0.00  0.00    +0.000 C 
BRANCH  10  11
ATOM     11  C   UNL     1       2.402   4.992  20.641  0.00  0.00    +0.000 C 
BRANCH  11  13
ATOM     12  C   UNL     1       1.273   2.745  20.561  0.00  0.00    +0.000 C 
ATOM     13  C   UNL     1       1.072   4.251  20.513  0.00  0.00    +0.000 C 
ENDBRANCH  11  13
ENDBRANCH  10  11
ENDBRANCH   1  10
TORSDOF 4
ENDMDL
MODEL 2
REMARK VINA RESULT:      -5.6      1.354      2.160
REMARK  Name = 
REMARK  6 active torsions:
REMARK  status: ('A' for Active; 'I' for Inactive)
REMARK    1  A    between atoms: C_1  and  C_2
REMARK    2  A    between atoms: C_2  and  C_3
REMARK    3  A    between atoms: C_3  and  C_4
REMARK    4  A    between atoms: C_4  and  N_5
REMARK    5  A    between atoms: C_7  and  N_8
REMARK    6  A    between atoms: C_12  and  C_13
REMARK                            x       y       z     vdW  Elec       q    Type
REMARK                         _______ _______ _______ _____ _____    ______ ____
ROOT
ATOM      1  N   UNL     1       3.696   4.214  17.227  0.00  0.00    +0.000 N 
ATOM      2  C   UNL     1       4.953   3.878  16.799  0.00  0.00    +0.000 A 
ATOM      3  C   UNL     1       5.719   4.998  17.044  0.00  0.00    +0.000 A 
ATOM      4  N   UNL     1       4.954   6.004  17.597  0.00  0.00    +0.000 NA
ATOM      5  C   UNL     1       3.736   5.508  17.700  0.00  0.00    +0.000 A 
ATOM      6  C   UNL     1       2.558   6.229  18.248  0.00  0.00    +0.000 C 
ENDROOT
BRANCH   3   7
ATOM      7  N   UNL     1       7.132   5.171  16.790  0.00  0.00    +0.000 N 
ATOM      8  O   UNL     1       7.448   6.088  16.016  0.00  0.00    +0.000 OA
ATOM      9  O   UNL     1       7.921   4.400  17.352  0.00  0.00    +0.000 OA
ENDBRANCH   3   7
BRANCH   1  10
ATOM     10  C   UNL     1       2.545   3.328  17.195  0.00  0.00    +0.000 C 
BRANCH  10  11
ATOM     11  C   UNL     1       2.398   2.532  18.489  0.00  0.00    +0.000 C 
BRANCH  11  13
ATOM     12  C   UNL     1       1.041   3.483  20.381  0.00  0.00    +0.000 C 
ATOM     13  C   UNL     1       1.001   2.693  19.083  0.00  0.00    +0.000 C 
ENDBRANCH  11  13
ENDBRANCH  10  11
ENDBRANCH   1  10
TORSDOF 4
ENDMDL
MODEL 3
REMARK VINA RESULT:      -5.5      1.501      2.228
REMARK  Name = 
REMARK  6 active torsions:
REMARK  status: ('A' for Active; 'I' for Inactive)
REMARK    1  A    between atoms: C_1  and  C_2
REMARK    2  A    between atoms: C_2  and  C_3
REMARK    3  A    between atoms: C_3  and  C_4
REMARK    4  A    between atoms: C_4  and  N_5
REMARK    5  A    between atoms: C_7  and  N_8
REMARK    6  A    between atoms: C_12  and  C_13
REMARK                            x       y       z     vdW  Elec       q    Type
REMARK                         _______ _______ _______ _____ _____    ______ ____
ROOT
ATOM      1  N   UNL     1       3.886   3.463  17.761  0.00  0.00    +0.000 N 
ATOM      2  C   UNL     1       4.547   4.192  16.808  0.00  0.00    +0.000 A 
ATOM      3  C   UNL     1       5.774   4.475  17.370  0.00  0.00    +0.000 A 
ATOM      4  N   UNL     1       5.866   3.947  18.641  0.00  0.00    +0.000 NA
ATOM      5  C   UNL     1       4.714   3.338  18.856  0.00  0.00    +0.000 A 
ATOM      6  C   UNL     1       4.345   2.613  20.099  0.00  0.00    +0.000 C 
ENDROOT
BRANCH   3   7
ATOM      7  N   UNL     1       6.866   5.212  16.775  0.00  0.00    +0.000 N 
ATOM      8  O   UNL     1       7.931   4.596  16.618  0.00  0.00    +0.000 OA
ATOM      9  O   UNL     1       6.669   6.396  16.468  0.00  0.00    +0.000 OA
ENDBRANCH   3   7
BRANCH   1  10
ATOM     10  C   UNL     1       2.551   2.913  17.606  0.00  0.00    +0.000 C 
BRANCH  10  11
ATOM     11  C   UNL     1       1.474   3.877  18.097  0.00  0.00    +0.000 C 
BRANCH  11  13
ATOM     12  C   UNL     1       1.139   4.420  20.530  0.00  0.00    +0.000 C 
ATOM     13  C   UNL     1       0.877   3.411  19.423  0.00  0.00    +0.000 C 
ENDBRANCH  11  13
ENDBRANCH  10  11
ENDBRANCH   1  10
TORSDOF 4
ENDMDL
MODEL 4
REMARK VINA RESULT:      -5.4      1.585      2.544
REMARK  Name = 
REMARK  6 active torsions:
REMARK  status: ('A' for Active; 'I' for Inactive)
REMARK    1  A    between atoms: C_1  and  C_2
REMARK    2  A    between atoms: C_2  and  C_3
REMARK    3  A    between atoms: C_3  and  C_4
REMARK    4  A    between atoms: C_4  and  N_5
REMARK    5  A    between atoms: C_7  and  N_8
REMARK    6  A    between atoms: C_12  and  C_13
REMARK                            x       y       z     vdW  Elec       q    Type
REMARK                         _______ _______ _______ _____ _____    ______ ____
ROOT
ATOM      1  N   UNL     1       5.180   4.184  17.326  0.00  0.00    +0.000 N 
ATOM      2  C   UNL     1       5.590   4.707  18.524  0.00  0.00    +0.000 A 
ATOM      3  C   UNL     1       6.865   5.172  18.286  0.00  0.00    +0.000 A 
ATOM      4  N   UNL     1       7.240   4.933  16.980  0.00  0.00    +0.000 NA
ATOM      5  C   UNL     1       6.206   4.336  16.419  0.00  0.00    +0.000 A 
ATOM      6  C   UNL     1       6.138   3.885  15.004  0.00  0.00    +0.000 C 
ENDROOT
BRANCH   3   7
ATOM      7  N   UNL     1       7.749   5.834  19.220  0.00  0.00    +0.000 N 
ATOM      8  O   UNL     1       7.888   5.296  20.329  0.00  0.00    +0.000 OA
ATOM      9  O   UNL     1       8.298   6.883  18.855  0.00  0.00    +0.000 OA
ENDBRANCH   3   7
BRANCH   1  10
ATOM     10  C   UNL     1       3.874   3.595  17.081  0.00  0.00    +0.000 C 
BRANCH  10  11
ATOM     11  C   UNL     1       2.755   4.387  17.752  0.00  0.00    +0.000 C 
BRANCH  11  13
ATOM     12  C   UNL     1       1.143   3.824  19.600  0.00  0.00    +0.000 C 
ATOM     13  C   UNL     1       1.619   3.470  18.200  0.00  0.00    +0.000 C 
ENDBRANCH  11  13
ENDBRANCH  10  11
ENDBRANCH   1  10
TORSDOF 4
ENDMDL
MODEL 5
REMARK VINA RESULT:      -5.4      1.284      1.686
REMARK  Name = 
REMARK  6 active torsions:
REMARK  status: ('A' for Active; 'I' for Inactive)
REMARK    1  A    between atoms: C_1  and  C_2
REMARK    2  A    between atoms: C_2  and  C_3
REMARK    3  A    between atoms: C_3  and  C_4
REMARK    4  A    between atoms: C_4  and  N_5
REMARK    5  A    between atoms: C_7  and  N_8
REMARK    6  A    between atoms: C_12  and  C_13
REMARK                            x       y       z     vdW  Elec       q    Type
REMARK                         _______ _______ _______ _____ _____    ______ ____
ROOT
ATOM      1  N   UNL     1       3.964   5.112  18.748  0.00  0.00    +0.000 N 
ATOM      2  C   UNL     1       5.082   4.328  18.642  0.00  0.00    +0.000 A 
ATOM      3  C   UNL     1       5.933   5.038  17.821  0.00  0.00    +0.000 A 
ATOM      4  N   UNL     1       5.353   6.223  17.420  0.00  0.00    +0.000 NA
ATOM      5  C   UNL     1       4.165   6.248  17.994  0.00  0.00    +0.000 A 
ATOM      6  C   UNL     1       3.167   7.342  17.857  0.00  0.00    +0.000 C 
ENDROOT
BRANCH   3   7
ATOM      7  N   UNL     1       7.264   4.663  17.397  0.00  0.00    +0.000 N 
ATOM      8  O   UNL     1       7.473   4.646  16.174  0.00  0.00    +0.000 OA
ATOM      9  O   UNL     1       8.094   4.384  18.272  0.00  0.00    +0.000 OA
ENDBRANCH   3   7
BRANCH   1  10
ATOM     10  C   UNL     1       2.795   4.785  19.544  0.00  0.00    +0.000 C 
BRANCH  10  11
ATOM     11  C   UNL     1       1.814   3.897  18.783  0.00  0.00    +0.000 C 
BRANCH  11  13
ATOM     12  C   UNL     1       1.457   3.149  21.158  0.00  0.00    +0.000 C 
ATOM     13  C   UNL     1       0.911   3.121  19.739  0.00  0.00    +0.000 C 
ENDBRANCH  11  13
ENDBRANCH  10  11
ENDBRANCH   1  10
TORSDOF 4
ENDMDL
MODEL 6
REMARK VINA RESULT:      -5.4      3.202      5.096
REMARK  Name = 
REMARK  6 active torsions:
REMARK  status: ('A' for Active; 'I' for Inactive)
REMARK    1  A    between atoms: C_1  and  C_2
REMARK    2  A    between atoms: C_2  and  C_3
REMARK    3  A    between atoms: C_3  and  C_4
REMARK    4  A    between atoms: C_4  and  N_5
REMARK    5  A    between atoms: C_7  and  N_8
REMARK    6  A    between atoms: C_12  and  C_13
REMARK                            x       y       z     vdW  Elec       q    Type
REMARK                         _______ _______ _______ _____ _____    ______ ____
ROOT
ATOM      1  N   UNL     1       6.165   4.418  17.582  0.00  0.00    +0.000 N 
ATOM      2  C   UNL     1       5.159   4.282  18.502  0.00  0.00    +0.000 A 
ATOM      3  C   UNL     1       4.045   3.952  17.758  0.00  0.00    +0.000 A 
ATOM      4  N   UNL     1       4.350   3.898  16.415  0.00  0.00    +0.000 NA
ATOM      5  C   UNL     1       5.636   4.182  16.331  0.00  0.00    +0.000 A 
ATOM      6  C   UNL     1       6.423   4.241  15.072  0.00  0.00    +0.000 C 
ENDROOT
BRANCH   3   7
ATOM      7  N   UNL     1       2.711   3.680  18.245  0.00  0.00    +0.000 N 
ATOM      8  O   UNL     1       1.842   3.456  17.387  0.00  0.00    +0.000 OA
ATOM      9  O   UNL     1       2.526   3.692  19.469  0.00  0.00    +0.000 OA
ENDBRANCH   3   7
BRANCH   1  10
ATOM     10  C   UNL     1       7.544   4.738  17.904  0.00  0.00    +0.000 C 
BRANCH  10  11
ATOM     11  C   UNL     1       7.682   6.130  18.516  0.00  0.00    +0.000 C 
BRANCH  11  13
ATOM     12  C   UNL     1       8.114   8.538  17.931  0.00  0.00    +0.000 C 
ATOM     13  C   UNL     1       7.525   7.219  17.457  0.00  0.00    +0.000 C 
ENDBRANCH  11  13
ENDBRANCH  10  11
ENDBRANCH   1  10
TORSDOF 4
ENDMDL
MODEL 7
REMARK VINA RESULT:      -5.4      1.429      1.962
REMARK  Name = 
REMARK  6 active torsions:
REMARK  status: ('A' for Active; 'I' for Inactive)
REMARK    1  A    between atoms: C_1  and  C_2
REMARK    2  A    between atoms: C_2  and  C_3
REMARK    3  A    between atoms: C_3  and  C_4
REMARK    4  A    between atoms: C_4  and  N_5
REMARK    5  A    between atoms: C_7  and  N_8
REMARK    6  A    between atoms: C_12  and  C_13
REMARK                            x       y       z     vdW  Elec       q    Type
REMARK                         _______ _______ _______ _____ _____    ______ ____
ROOT
ATOM      1  N   UNL     1       4.292   4.626  18.732  0.00  0.00    +0.000 N 
ATOM      2  C   UNL     1       5.572   4.306  18.367  0.00  0.00    +0.000 A 
ATOM      3  C   UNL     1       5.953   5.311  17.503  0.00  0.00    +0.000 A 
ATOM      4  N   UNL     1       4.933   6.222  17.330  0.00  0.00    +0.000 NA
ATOM      5  C   UNL     1       3.939   5.789  18.083  0.00  0.00    +0.000 A 
ATOM      6  C   UNL     1       2.616   6.452  18.224  0.00  0.00    +0.000 C 
ENDROOT
BRANCH   3   7
ATOM      7  N   UNL     1       7.228   5.463  16.836  0.00  0.00    +0.000 N 
ATOM      8  O   UNL     1       7.511   6.602  16.434  0.00  0.00    +0.000 OA
ATOM      9  O   UNL     1       7.939   4.457  16.709  0.00  0.00    +0.000 OA
ENDBRANCH   3   7
BRANCH   1  10
ATOM     10  C   UNL     1       3.480   3.863  19.663  0.00  0.00    +0.000 C 
BRANCH  10  11
ATOM     11  C   UNL     1       2.668   2.778  18.959  0.00  0.00    +0.000 C 
BRANCH  11  13
ATOM     12  C   UNL     1       0.855   3.885  20.306  0.00  0.00    +0.000 C 
ATOM     13  C   UNL     1       1.169   3.040  19.082  0.00  0.00    +0.000 C 
ENDBRANCH  11  13
ENDBRANCH  10  11
ENDBRANCH   1  10
TORSDOF 4
ENDMDL
MODEL 8
REMARK VINA RESULT:      -5.4      0.940      1.204
REMARK  Name = 
REMARK  6 active torsions:
REMARK  status: ('A' for Active; 'I' for Inactive)
REMARK    1  A    between atoms: C_1  and  C_2
REMARK    2  A    between atoms: C_2  and  C_3
REMARK    3  A    between atoms: C_3  and  C_4
REMARK    4  A    between atoms: C_4  and  N_5
REMARK    5  A    between atoms: C_7  and  N_8
REMARK    6  A    between atoms: C_12  and  C_13
REMARK                            x       y       z     vdW  Elec       q    Type
REMARK                         _______ _______ _______ _____ _____    ______ ____
ROOT
ATOM      1  N   UNL     1       4.200   4.656  18.632  0.00  0.00    +0.000 N 
ATOM      2  C   UNL     1       5.502   5.083  18.614  0.00  0.00    +0.000 A 
ATOM      3  C   UNL     1       5.984   4.685  17.385  0.00  0.00    +0.000 A 
ATOM      4  N   UNL     1       5.013   4.020  16.668  0.00  0.00    +0.000 NA
ATOM      5  C   UNL     1       3.943   4.015  17.440  0.00  0.00    +0.000 A 
ATOM      6  C   UNL     1       2.632   3.408  17.088  0.00  0.00    +0.000 C 
ENDROOT
BRANCH   3   7
ATOM      7  N   UNL     1       7.309   4.902  16.848  0.00  0.00    +0.000 N 
ATOM      8  O   UNL     1       8.218   4.193  17.308  0.00  0.00    +0.000 OA
ATOM      9  O   UNL     1       7.447   5.772  15.977  0.00  0.00    +0.000 OA
ENDBRANCH   3   7
BRANCH   1  10
ATOM     10  C   UNL     1       3.271   4.875  19.727  0.00  0.00    +0.000 C 
BRANCH  10  11
ATOM     11  C   UNL     1       3.111   3.633  20.600  0.00  0.00    +0.000 C 
BRANCH  11  13
ATOM     12  C   UNL     1       0.698   3.128  20.099  0.00  0.00    +0.000 C 
ATOM     13  C   UNL     1       1.698   3.534  21.170  0.00  0.00    +0.000 C 
ENDBRANCH  11  13
ENDBRANCH  10  11
ENDBRANCH   1  10
TORSDOF 4
ENDMDL
MODEL 9
REMARK VINA RESULT:      -5.4      2.894      4.036
REMARK  Name = 
REMARK  6 active torsions:
REMARK  status: ('A' for Active; 'I' for Inactive)
REMARK    1  A    between atoms: C_1  and  C_2
REMARK    2  A    between atoms: C_2  and  C_3
REMARK    3  A    between atoms: C_3  and  C_4
REMARK    4  A    between atoms: C_4  and  N_5
REMARK    5  A    between atoms: C_7  and  N_8
REMARK    6  A    between atoms: C_12  and  C_13
REMARK                            x       y       z     vdW  Elec       q    Type
REMARK                         _______ _______ _______ _____ _____    ______ ____
ROOT
ATOM      1  N   UNL     1       5.571   4.774  16.448  0.00  0.00    +0.000 N 
ATOM      2  C   UNL     1       5.451   4.730  15.084  0.00  0.00    +0.000 A 
ATOM      3  C   UNL     1       6.746   4.784  14.615  0.00  0.00    +0.000 A 
ATOM      4  N   UNL     1       7.643   4.872  15.659  0.00  0.00    +0.000 NA
ATOM      5  C   UNL     1       6.911   4.863  16.757  0.00  0.00    +0.000 A 
ATOM      6  C   UNL     1       7.442   4.936  18.144  0.00  0.00    +0.000 C 
ENDROOT
BRANCH   3   7
ATOM      7  N   UNL     1       7.185   4.753  13.238  0.00  0.00    +0.000 N 
ATOM      8  O   UNL     1       8.019   5.608  12.902  0.00  0.00    +0.000 OA
ATOM      9  O   UNL     1       6.703   3.889  12.494  0.00  0.00    +0.000 OA
ENDBRANCH   3   7
BRANCH   1  10
ATOM     10  C   UNL     1       4.460   4.715  17.381  0.00  0.00    +0.000 C 
BRANCH  10  11
ATOM     11  C   UNL     1       4.007   3.280  17.642  0.00  0.00    +0.000 C 
BRANCH  11  13
ATOM     12  C   UNL     1       1.744   4.373  17.748  0.00  0.00    +0.000 C 
ATOM     13  C   UNL     1       2.512   3.114  17.378  0.00  0.00    +0.000 C 
ENDBRANCH  11  13
ENDBRANCH  10  11
ENDBRANCH   1  10
TORSDOF 4
ENDMDL
