MODEL 1
REMARK VINA RESULT:      -8.6      0.000      0.000
REMARK  Name = 
REMARK  9 active torsions:
REMARK  status: ('A' for Active; 'I' for Inactive)
REMARK    1  A    between atoms: C_1  and  C_2
REMARK    2  A    between atoms: C_7  and  N_8
REMARK    3  A    between atoms: C_9  and  C_11
REMARK    4  A    between atoms: C_11  and  N_12
REMARK    5  A    between atoms: C_11  and  C_30
REMARK    6  A    between atoms: N_12  and  S_13
REMARK    7  A    between atoms: S_13  and  C_16
REMARK    8  A    between atoms: N_24  and  C_25
REMARK    9  A    between atoms: N_28  and  C_29
REMARK                            x       y       z     vdW  Elec       q    Type
REMARK                         _______ _______ _______ _____ _____    ______ ____
ROOT
ATOM      1  N   UNL     1       0.946   9.874  20.242  0.00  0.00    +0.000 NA
ATOM      2  H   UNL     1       1.917  10.200  20.241  0.00  0.00    +0.000 HD
ENDROOT
BRANCH   1   3
ATOM      3  S   UNL     1       0.869   8.596  21.328  0.00  0.00    +0.000 S 
ATOM      4  O   UNL     1       1.793   8.951  22.383  0.00  0.00    +0.000 OA
ATOM      5  O   UNL     1      -0.514   8.297  21.586  0.00  0.00    +0.000 OA
BRANCH   3   6
ATOM      6  C   UNL     1       1.604   7.251  20.452  0.00  0.00    +0.000 A 
ATOM      7  C   UNL     1       1.646   5.965  20.989  0.00  0.00    +0.000 A 
ATOM      8  C   UNL     1       2.413   4.976  20.366  0.00  0.00    +0.000 A 
ATOM      9  C   UNL     1       3.113   5.259  19.187  0.00  0.00    +0.000 A 
ATOM     10  C   UNL     1       2.993   6.529  18.630  0.00  0.00    +0.000 A 
ATOM     11  C   UNL     1       2.237   7.531  19.251  0.00  0.00    +0.000 A 
ATOM     12  C   UNL     1       3.717   6.856  17.399  0.00  0.00    +0.000 A 
ATOM     13  O   UNL     1       3.536   7.950  16.872  0.00  0.00    +0.000 OA
ATOM     14  N   UNL     1       4.577   5.886  16.917  0.00  0.00    +0.000 N 
ATOM     15  C   UNL     1       5.388   6.213  15.759  0.00  0.00    +0.000 C 
ATOM     16  C   UNL     1       4.708   4.603  17.432  0.00  0.00    +0.000 A 
ATOM     17  O   UNL     1       5.462   3.777  16.913  0.00  0.00    +0.000 OA
ATOM     18  N   UNL     1       3.952   4.300  18.565  0.00  0.00    +0.000 N 
ATOM     19  C   UNL     1       4.088   2.971  19.148  0.00  0.00    +0.000 C 
ENDBRANCH   3   6
ENDBRANCH   1   3
BRANCH   1  20
ATOM     20  C   UNL     1      -0.042  10.980  20.374  0.00  0.00    +0.000 C 
BRANCH  20  21
ATOM     21  C   UNL     1      -1.183  11.022  19.360  0.00  0.00    +0.000 A 
ATOM     22  C   UNL     1      -1.148  10.285  18.163  0.00  0.00    +0.000 A 
ATOM     23  C   UNL     1      -2.142  10.432  17.192  0.00  0.00    +0.000 A 
ATOM     24  C   UNL     1      -3.203  11.304  17.406  0.00  0.00    +0.000 A 
ATOM     25  C   UNL     1      -3.284  12.011  18.603  0.00  0.00    +0.000 A 
ATOM     26  C   UNL     1      -2.286  11.870  19.572  0.00  0.00    +0.000 A 
ENDBRANCH  20  21
BRANCH  20  28
ATOM     27  N   UNL     1       0.977  12.783  19.017  0.00  0.00    +0.000 N 
ATOM     28  C   UNL     1       0.790  12.293  20.317  0.00  0.00    +0.000 C 
ATOM     29  O   UNL     1       1.162  12.836  21.355  0.00  0.00    +0.000 OA
ATOM     30  H   UNL     1       0.495  12.272  18.286  0.00  0.00    +0.000 HD
BRANCH  27  37
ATOM     31  C   UNL     1      -0.483  15.379  19.239  0.00  0.00    +0.000 C 
ATOM     32  C   UNL     1       0.947  15.235  18.790  0.00  0.00    +0.000 A 
ATOM     33  C   UNL     1       1.637  16.422  18.463  0.00  0.00    +0.000 A 
ATOM     34  C   UNL     1       2.958  16.393  18.022  0.00  0.00    +0.000 A 
ATOM     35  C   UNL     1       3.600  15.176  17.866  0.00  0.00    +0.000 A 
ATOM     36  C   UNL     1       2.930  13.993  18.172  0.00  0.00    +0.000 A 
ATOM     37  C   UNL     1       1.616  13.997  18.658  0.00  0.00    +0.000 A 
ENDBRANCH  27  37
ENDBRANCH  20  28
ENDBRANCH   1  20
TORSDOF 6
ENDMDL
MODEL 2
REMARK VINA RESULT:      -8.6      0.516      1.488
REMARK  Name = 
REMARK  9 active torsions:
REMARK  status: ('A' for Active; 'I' for Inactive)
REMARK    1  A    between atoms: C_1  and  C_2
REMARK    2  A    between atoms: C_7  and  N_8
REMARK    3  A    between atoms: C_9  and  C_11
REMARK    4  A    between atoms: C_11  and  N_12
REMARK    5  A    between atoms: C_11  and  C_30
REMARK    6  A    between atoms: N_12  and  S_13
REMARK    7  A    between atoms: S_13  and  C_16
REMARK    8  A    between atoms: N_24  and  C_25
REMARK    9  A    between atoms: N_28  and  C_29
REMARK                            x       y       z     vdW  Elec       q    Type
REMARK                         _______ _______ _______ _____ _____    ______ ____
ROOT
ATOM      1  N   UNL     1       0.683  10.016  20.119  0.00  0.00    +0.000 NA
ATOM      2  H   UNL     1       1.601  10.467  20.082  0.00  0.00    +0.000 HD
ENDROOT
BRANCH   1   3
ATOM      3  S   UNL     1       0.779   8.827  21.302  0.00  0.00    +0.000 S 
ATOM      4  O   UNL     1       1.755   9.326  22.247  0.00  0.00    +0.000 OA
ATOM      5  O   UNL     1      -0.556   8.464  21.695  0.00  0.00    +0.000 OA
BRANCH   3   6
ATOM      6  C   UNL     1       1.537   7.466  20.472  0.00  0.00    +0.000 A 
ATOM      7  C   UNL     1       1.588   6.196  21.048  0.00  0.00    +0.000 A 
ATOM      8  C   UNL     1       2.371   5.198  20.461  0.00  0.00    +0.000 A 
ATOM      9  C   UNL     1       3.079   5.455  19.280  0.00  0.00    +0.000 A 
ATOM     10  C   UNL     1       2.950   6.707  18.685  0.00  0.00    +0.000 A 
ATOM     11  C   UNL     1       2.178   7.718  19.269  0.00  0.00    +0.000 A 
ATOM     12  C   UNL     1       3.681   7.005  17.451  0.00  0.00    +0.000 A 
ATOM     13  O   UNL     1       3.494   8.081  16.891  0.00  0.00    +0.000 OA
ATOM     14  N   UNL     1       4.557   6.031  17.006  0.00  0.00    +0.000 N 
ATOM     15  C   UNL     1       5.375   6.332  15.846  0.00  0.00    +0.000 C 
ATOM     16  C   UNL     1       4.697   4.765  17.559  0.00  0.00    +0.000 A 
ATOM     17  O   UNL     1       5.464   3.932  17.071  0.00  0.00    +0.000 OA
ATOM     18  N   UNL     1       3.934   4.487  18.694  0.00  0.00    +0.000 N 
ATOM     19  C   UNL     1       4.078   3.177  19.317  0.00  0.00    +0.000 C 
ENDBRANCH   3   6
ENDBRANCH   1   3
BRANCH   1  20
ATOM     20  C   UNL     1      -0.445  10.987  20.178  0.00  0.00    +0.000 C 
BRANCH  20  21
ATOM     21  C   UNL     1      -1.446  10.965  19.026  0.00  0.00    +0.000 A 
ATOM     22  C   UNL     1      -2.629  11.726  19.047  0.00  0.00    +0.000 A 
ATOM     23  C   UNL     1      -3.591  11.598  18.042  0.00  0.00    +0.000 A 
ATOM     24  C   UNL     1      -3.382  10.723  16.983  0.00  0.00    +0.000 A 
ATOM     25  C   UNL     1      -2.198   9.993  16.915  0.00  0.00    +0.000 A 
ATOM     26  C   UNL     1      -1.237  10.115  17.925  0.00  0.00    +0.000 A 
ENDBRANCH  20  21
BRANCH  20  28
ATOM     27  N   UNL     1       0.273  13.093  19.090  0.00  0.00    +0.000 N 
ATOM     28  C   UNL     1       0.218  12.389  20.301  0.00  0.00    +0.000 C 
ATOM     29  O   UNL     1       0.577  12.810  21.399  0.00  0.00    +0.000 OA
ATOM     30  H   UNL     1      -0.182  12.642  18.305  0.00  0.00    +0.000 HD
BRANCH  27  37
ATOM     31  C   UNL     1       3.113  13.600  18.317  0.00  0.00    +0.000 C 
ATOM     32  C   UNL     1       2.073  14.671  18.510  0.00  0.00    +0.000 A 
ATOM     33  C   UNL     1       2.481  16.005  18.296  0.00  0.00    +0.000 A 
ATOM     34  C   UNL     1       1.597  17.068  18.464  0.00  0.00    +0.000 A 
ATOM     35  C   UNL     1       0.300  16.819  18.883  0.00  0.00    +0.000 A 
ATOM     36  C   UNL     1      -0.117  15.509  19.110  0.00  0.00    +0.000 A 
ATOM     37  C   UNL     1       0.740  14.419  18.907  0.00  0.00    +0.000 A 
ENDBRANCH  27  37
ENDBRANCH  20  28
ENDBRANCH   1  20
TORSDOF 6
ENDMDL
MODEL 3
REMARK VINA RESULT:      -8.6      2.777      4.013
REMARK  Name = 
REMARK  9 active torsions:
REMARK  status: ('A' for Active; 'I' for Inactive)
REMARK    1  A    between atoms: C_1  and  C_2
REMARK    2  A    between atoms: C_7  and  N_8
REMARK    3  A    between atoms: C_9  and  C_11
REMARK    4  A    between atoms: C_11  and  N_12
REMARK    5  A    between atoms: C_11  and  C_30
REMARK    6  A    between atoms: N_12  and  S_13
REMARK    7  A    between atoms: S_13  and  C_16
REMARK    8  A    between atoms: N_24  and  C_25
REMARK    9  A    between atoms: N_28  and  C_29
REMARK                            x       y       z     vdW  Elec       q    Type
REMARK                         _______ _______ _______ _____ _____    ______ ____
ROOT
ATOM      1  N   UNL     1      -0.206  10.313  19.234  0.00  0.00    +0.000 NA
ATOM      2  H   UNL     1       0.401  11.107  19.009  0.00  0.00    +0.000 HD
ENDROOT
BRANCH   1   3
ATOM      3  S   UNL     1       0.503   9.521  20.534  0.00  0.00    +0.000 S 
ATOM      4  O   UNL     1       1.270  10.542  21.215  0.00  0.00    +0.000 OA
ATOM      5  O   UNL     1      -0.506   8.744  21.202  0.00  0.00    +0.000 OA
BRANCH   3   6
ATOM      6  C   UNL     1       1.674   8.436  19.780  0.00  0.00    +0.000 A 
ATOM      7  C   UNL     1       2.331   8.776  18.598  0.00  0.00    +0.000 A 
ATOM      8  C   UNL     1       3.090   7.816  17.923  0.00  0.00    +0.000 A 
ATOM      9  C   UNL     1       3.222   6.523  18.443  0.00  0.00    +0.000 A 
ATOM     10  C   UNL     1       2.619   6.230  19.663  0.00  0.00    +0.000 A 
ATOM     11  C   UNL     1       1.847   7.180  20.343  0.00  0.00    +0.000 A 
ATOM     12  C   UNL     1       2.737   4.885  20.231  0.00  0.00    +0.000 A 
ATOM     13  O   UNL     1       2.274   4.664  21.346  0.00  0.00    +0.000 OA
ATOM     14  N   UNL     1       3.369   3.940  19.442  0.00  0.00    +0.000 N 
ATOM     15  C   UNL     1       3.413   2.573  19.925  0.00  0.00    +0.000 C 
ATOM     16  C   UNL     1       3.999   4.198  18.232  0.00  0.00    +0.000 A 
ATOM     17  O   UNL     1       4.588   3.309  17.613  0.00  0.00    +0.000 OA
ATOM     18  N   UNL     1       3.929   5.506  17.752  0.00  0.00    +0.000 N 
ATOM     19  C   UNL     1       4.556   5.804  16.471  0.00  0.00    +0.000 C 
ENDBRANCH   3   6
ENDBRANCH   1   3
BRANCH   1  20
ATOM     20  C   UNL     1      -1.645  10.684  19.326  0.00  0.00    +0.000 C 
BRANCH  20  21
ATOM     21  C   UNL     1      -2.428  10.777  18.018  0.00  0.00    +0.000 A 
ATOM     22  C   UNL     1      -3.639  11.485  17.920  0.00  0.00    +0.000 A 
ATOM     23  C   UNL     1      -4.403  11.456  16.750  0.00  0.00    +0.000 A 
ATOM     24  C   UNL     1      -3.962  10.733  15.647  0.00  0.00    +0.000 A 
ATOM     25  C   UNL     1      -2.744  10.061  15.705  0.00  0.00    +0.000 A 
ATOM     26  C   UNL     1      -1.982  10.084  16.878  0.00  0.00    +0.000 A 
ENDBRANCH  20  21
BRANCH  20  28
ATOM     27  N   UNL     1      -2.233  11.959  21.366  0.00  0.00    +0.000 N 
ATOM     28  C   UNL     1      -1.679  12.043  20.082  0.00  0.00    +0.000 C 
ATOM     29  O   UNL     1      -1.187  13.047  19.570  0.00  0.00    +0.000 OA
ATOM     30  H   UNL     1      -2.477  11.024  21.674  0.00  0.00    +0.000 HD
BRANCH  27  37
ATOM     31  C   UNL     1      -4.878  13.169  22.043  0.00  0.00    +0.000 C 
ATOM     32  C   UNL     1      -3.568  13.566  22.670  0.00  0.00    +0.000 A 
ATOM     33  C   UNL     1      -3.611  14.576  23.654  0.00  0.00    +0.000 A 
ATOM     34  C   UNL     1      -2.451  15.025  24.281  0.00  0.00    +0.000 A 
ATOM     35  C   UNL     1      -1.225  14.496  23.911  0.00  0.00    +0.000 A 
ATOM     36  C   UNL     1      -1.163  13.506  22.932  0.00  0.00    +0.000 A 
ATOM     37  C   UNL     1      -2.319  13.007  22.317  0.00  0.00    +0.000 A 
ENDBRANCH  27  37
ENDBRANCH  20  28
ENDBRANCH   1  20
TORSDOF 6
ENDMDL
MODEL 4
REMARK VINA RESULT:      -8.5      1.577      2.662
REMARK  Name = 
REMARK  9 active torsions:
REMARK  status: ('A' for Active; 'I' for Inactive)
REMARK    1  A    between atoms: C_1  and  C_2
REMARK    2  A    between atoms: C_7  and  N_8
REMARK    3  A    between atoms: C_9  and  C_11
REMARK    4  A    between atoms: C_11  and  N_12
REMARK    5  A    between atoms: C_11  and  C_30
REMARK    6  A    between atoms: N_12  and  S_13
REMARK    7  A    between atoms: S_13  and  C_16
REMARK    8  A    between atoms: N_24  and  C_25
REMARK    9  A    between atoms: N_28  and  C_29
REMARK                            x       y       z     vdW  Elec       q    Type
REMARK                         _______ _______ _______ _____ _____    ______ ____
ROOT
ATOM      1  N   UNL     1      -0.013  10.312  19.305  0.00  0.00    +0.000 NA
ATOM      2  H   UNL     1       0.727  10.989  19.097  0.00  0.00    +0.000 HD
ENDROOT
BRANCH   1   3
ATOM      3  S   UNL     1       0.527   9.396  20.605  0.00  0.00    +0.000 S 
ATOM      4  O   UNL     1       1.314  10.313  21.402  0.00  0.00    +0.000 OA
ATOM      5  O   UNL     1      -0.589   8.669  21.148  0.00  0.00    +0.000 OA
BRANCH   3   6
ATOM      6  C   UNL     1       1.667   8.261  19.879  0.00  0.00    +0.000 A 
ATOM      7  C   UNL     1       2.317   8.545  18.678  0.00  0.00    +0.000 A 
ATOM      8  C   UNL     1       3.048   7.546  18.030  0.00  0.00    +0.000 A 
ATOM      9  C   UNL     1       3.161   6.270  18.595  0.00  0.00    +0.000 A 
ATOM     10  C   UNL     1       2.567   6.034  19.832  0.00  0.00    +0.000 A 
ATOM     11  C   UNL     1       1.822   7.023  20.485  0.00  0.00    +0.000 A 
ATOM     12  C   UNL     1       2.665   4.708  20.446  0.00  0.00    +0.000 A 
ATOM     13  O   UNL     1       2.211   4.537  21.574  0.00  0.00    +0.000 OA
ATOM     14  N   UNL     1       3.269   3.723  19.686  0.00  0.00    +0.000 N 
ATOM     15  C   UNL     1       3.291   2.373  20.218  0.00  0.00    +0.000 C 
ATOM     16  C   UNL     1       3.890   3.923  18.460  0.00  0.00    +0.000 A 
ATOM     17  O   UNL     1       4.453   3.001  17.867  0.00  0.00    +0.000 OA
ATOM     18  N   UNL     1       3.840   5.215  17.934  0.00  0.00    +0.000 N 
ATOM     19  C   UNL     1       4.458   5.453  16.636  0.00  0.00    +0.000 C 
ENDBRANCH   3   6
ENDBRANCH   1   3
BRANCH   1  20
ATOM     20  C   UNL     1      -1.366  10.928  19.384  0.00  0.00    +0.000 C 
BRANCH  20  21
ATOM     21  C   UNL     1      -2.266  10.795  18.157  0.00  0.00    +0.000 A 
ATOM     22  C   UNL     1      -1.896  10.029  17.037  0.00  0.00    +0.000 A 
ATOM     23  C   UNL     1      -2.675  10.019  15.876  0.00  0.00    +0.000 A 
ATOM     24  C   UNL     1      -3.850  10.760  15.818  0.00  0.00    +0.000 A 
ATOM     25  C   UNL     1      -4.260  11.490  16.930  0.00  0.00    +0.000 A 
ATOM     26  C   UNL     1      -3.478  11.506  18.090  0.00  0.00    +0.000 A 
ENDBRANCH  20  21
BRANCH  20  28
ATOM     27  N   UNL     1      -0.020  12.982  19.063  0.00  0.00    +0.000 N 
ATOM     28  C   UNL     1      -1.124  12.426  19.725  0.00  0.00    +0.000 C 
ATOM     29  O   UNL     1      -1.903  13.027  20.461  0.00  0.00    +0.000 OA
ATOM     30  H   UNL     1       0.439  12.372  18.396  0.00  0.00    +0.000 HD
BRANCH  27  37
ATOM     31  C   UNL     1       2.576  13.723  20.339  0.00  0.00    +0.000 C 
ATOM     32  C   UNL     1       1.636  14.697  19.680  0.00  0.00    +0.000 A 
ATOM     33  C   UNL     1       2.028  16.052  19.662  0.00  0.00    +0.000 A 
ATOM     34  C   UNL     1       1.220  17.032  19.090  0.00  0.00    +0.000 A 
ATOM     35  C   UNL     1      -0.009  16.679  18.558  0.00  0.00    +0.000 A 
ATOM     36  C   UNL     1      -0.418  15.347  18.577  0.00  0.00    +0.000 A 
ATOM     37  C   UNL     1       0.395  14.337  19.108  0.00  0.00    +0.000 A 
ENDBRANCH  27  37
ENDBRANCH  20  28
ENDBRANCH   1  20
TORSDOF 6
ENDMDL
MODEL 5
REMARK VINA RESULT:      -8.5      1.395      2.706
REMARK  Name = 
REMARK  9 active torsions:
REMARK  status: ('A' for Active; 'I' for Inactive)
REMARK    1  A    between atoms: C_1  and  C_2
REMARK    2  A    between atoms: C_7  and  N_8
REMARK    3  A    between atoms: C_9  and  C_11
REMARK    4  A    between atoms: C_11  and  N_12
REMARK    5  A    between atoms: C_11  and  C_30
REMARK    6  A    between atoms: N_12  and  S_13
REMARK    7  A    between atoms: S_13  and  C_16
REMARK    8  A    between atoms: N_24  and  C_25
REMARK    9  A    between atoms: N_28  and  C_29
REMARK                            x       y       z     vdW  Elec       q    Type
REMARK                         _______ _______ _______ _____ _____    ______ ____
ROOT
ATOM      1  N   UNL     1       0.325  10.164  19.676  0.00  0.00    +0.000 NA
ATOM      2  H   UNL     1       1.170  10.725  19.534  0.00  0.00    +0.000 HD
ENDROOT
BRANCH   1   3
ATOM      3  S   UNL     1       0.677   9.063  20.894  0.00  0.00    +0.000 S 
ATOM      4  O   UNL     1       1.526   9.790  21.813  0.00  0.00    +0.000 OA
ATOM      5  O   UNL     1      -0.548   8.435  21.312  0.00  0.00    +0.000 OA
BRANCH   3   6
ATOM      6  C   UNL     1       1.706   7.868  20.101  0.00  0.00    +0.000 A 
ATOM      7  C   UNL     1       2.466   8.190  18.977  0.00  0.00    +0.000 A 
ATOM      8  C   UNL     1       3.104   7.177  18.255  0.00  0.00    +0.000 A 
ATOM      9  C   UNL     1       3.011   5.843  18.673  0.00  0.00    +0.000 A 
ATOM     10  C   UNL     1       2.310   5.558  19.841  0.00  0.00    +0.000 A 
ATOM     11  C   UNL     1       1.658   6.563  20.566  0.00  0.00    +0.000 A 
ATOM     12  C   UNL     1       2.193   4.172  20.301  0.00  0.00    +0.000 A 
ATOM     13  O   UNL     1       1.645   3.943  21.375  0.00  0.00    +0.000 OA
ATOM     14  N   UNL     1       2.713   3.202  19.463  0.00  0.00    +0.000 N 
ATOM     15  C   UNL     1       2.524   1.812  19.834  0.00  0.00    +0.000 C 
ATOM     16  C   UNL     1       3.436   3.448  18.303  0.00  0.00    +0.000 A 
ATOM     17  O   UNL     1       3.913   2.527  17.636  0.00  0.00    +0.000 OA
ATOM     18  N   UNL     1       3.590   4.783  17.929  0.00  0.00    +0.000 N 
ATOM     19  C   UNL     1       4.320   5.075  16.702  0.00  0.00    +0.000 C 
ENDBRANCH   3   6
ENDBRANCH   1   3
BRANCH   1  20
ATOM     20  C   UNL     1      -0.911  10.986  19.796  0.00  0.00    +0.000 C 
BRANCH  20  21
ATOM     21  C   UNL     1      -1.895  10.945  18.629  0.00  0.00    +0.000 A 
ATOM     22  C   UNL     1      -3.110  11.653  18.648  0.00  0.00    +0.000 A 
ATOM     23  C   UNL     1      -4.051  11.505  17.626  0.00  0.00    +0.000 A 
ATOM     24  C   UNL     1      -3.790  10.660  16.554  0.00  0.00    +0.000 A 
ATOM     25  C   UNL     1      -2.575   9.983  16.490  0.00  0.00    +0.000 A 
ATOM     26  C   UNL     1      -1.634  10.126  17.515  0.00  0.00    +0.000 A 
ENDBRANCH  20  21
BRANCH  20  28
ATOM     27  N   UNL     1       0.064  13.077  18.897  0.00  0.00    +0.000 N 
ATOM     28  C   UNL     1      -0.421  12.441  20.048  0.00  0.00    +0.000 C 
ATOM     29  O   UNL     1      -0.538  12.950  21.160  0.00  0.00    +0.000 OA
ATOM     30  H   UNL     1      -0.027  12.549  18.037  0.00  0.00    +0.000 HD
BRANCH  27  37
ATOM     31  C   UNL     1       2.975  13.717  18.707  0.00  0.00    +0.000 C 
ATOM     32  C   UNL     1       1.869  14.738  18.674  0.00  0.00    +0.000 A 
ATOM     33  C   UNL     1       2.250  16.089  18.533  0.00  0.00    +0.000 A 
ATOM     34  C   UNL     1       1.302  17.110  18.509  0.00  0.00    +0.000 A 
ATOM     35  C   UNL     1      -0.039  16.800  18.660  0.00  0.00    +0.000 A 
ATOM     36  C   UNL     1      -0.433  15.472  18.813  0.00  0.00    +0.000 A 
ATOM     37  C   UNL     1       0.497  14.424  18.798  0.00  0.00    +0.000 A 
ENDBRANCH  27  37
ENDBRANCH  20  28
ENDBRANCH   1  20
TORSDOF 6
ENDMDL
MODEL 6
REMARK VINA RESULT:      -8.5      2.735      4.692
REMARK  Name = 
REMARK  9 active torsions:
REMARK  status: ('A' for Active; 'I' for Inactive)
REMARK    1  A    between atoms: C_1  and  C_2
REMARK    2  A    between atoms: C_7  and  N_8
REMARK    3  A    between atoms: C_9  and  C_11
REMARK    4  A    between atoms: C_11  and  N_12
REMARK    5  A    between atoms: C_11  and  C_30
REMARK    6  A    between atoms: N_12  and  S_13
REMARK    7  A    between atoms: S_13  and  C_16
REMARK    8  A    between atoms: N_24  and  C_25
REMARK    9  A    between atoms: N_28  and  C_29
REMARK                            x       y       z     vdW  Elec       q    Type
REMARK                         _______ _______ _______ _____ _____    ______ ____
ROOT
ATOM      1  N   UNL     1       1.013   9.706  19.513  0.00  0.00    +0.000 NA
ATOM      2  H   UNL     1       0.275   9.009  19.655  0.00  0.00    +0.000 HD
ENDROOT
BRANCH   1   3
ATOM      3  S   UNL     1       1.688   9.391  18.008  0.00  0.00    +0.000 S 
ATOM      4  O   UNL     1       0.581   8.928  17.198  0.00  0.00    +0.000 OA
ATOM      5  O   UNL     1       2.502  10.514  17.628  0.00  0.00    +0.000 OA
BRANCH   3   6
ATOM      6  C   UNL     1       2.721   7.989  18.292  0.00  0.00    +0.000 A 
ATOM      7  C   UNL     1       3.825   7.718  17.483  0.00  0.00    +0.000 A 
ATOM      8  C   UNL     1       4.494   6.497  17.606  0.00  0.00    +0.000 A 
ATOM      9  C   UNL     1       4.083   5.556  18.558  0.00  0.00    +0.000 A 
ATOM     10  C   UNL     1       3.027   5.881  19.404  0.00  0.00    +0.000 A 
ATOM     11  C   UNL     1       2.341   7.096  19.284  0.00  0.00    +0.000 A 
ATOM     12  C   UNL     1       2.573   4.915  20.408  0.00  0.00    +0.000 A 
ATOM     13  O   UNL     1       1.698   5.246  21.203  0.00  0.00    +0.000 OA
ATOM     14  N   UNL     1       3.173   3.670  20.375  0.00  0.00    +0.000 N 
ATOM     15  C   UNL     1       2.678   2.654  21.285  0.00  0.00    +0.000 C 
ATOM     16  C   UNL     1       4.242   3.315  19.563  0.00  0.00    +0.000 A 
ATOM     17  O   UNL     1       4.757   2.197  19.631  0.00  0.00    +0.000 OA
ATOM     18  N   UNL     1       4.697   4.282  18.665  0.00  0.00    +0.000 N 
ATOM     19  C   UNL     1       5.799   3.933  17.778  0.00  0.00    +0.000 C 
ENDBRANCH   3   6
ENDBRANCH   1   3
BRANCH   1  20
ATOM     20  C   UNL     1       0.572  11.095  19.818  0.00  0.00    +0.000 C 
BRANCH  20  21
ATOM     21  C   UNL     1      -0.122  11.329  21.158  0.00  0.00    +0.000 A 
ATOM     22  C   UNL     1      -0.384  10.281  22.059  0.00  0.00    +0.000 A 
ATOM     23  C   UNL     1      -1.129  10.494  23.222  0.00  0.00    +0.000 A 
ATOM     24  C   UNL     1      -1.612  11.763  23.519  0.00  0.00    +0.000 A 
ATOM     25  C   UNL     1      -1.328  12.826  22.665  0.00  0.00    +0.000 A 
ATOM     26  C   UNL     1      -0.587  12.613  21.498  0.00  0.00    +0.000 A 
ENDBRANCH  20  21
BRANCH  20  28
ATOM     27  N   UNL     1      -1.440  10.638  18.450  0.00  0.00    +0.000 N 
ATOM     28  C   UNL     1      -0.357  11.506  18.641  0.00  0.00    +0.000 C 
ATOM     29  O   UNL     1      -0.144  12.545  18.018  0.00  0.00    +0.000 OA
ATOM     30  H   UNL     1      -1.529   9.897  19.136  0.00  0.00    +0.000 HD
BRANCH  27  37
ATOM     31  C   UNL     1      -3.939  12.074  19.231  0.00  0.00    +0.000 C 
ATOM     32  C   UNL     1      -3.669  11.505  17.863  0.00  0.00    +0.000 A 
ATOM     33  C   UNL     1      -4.674  11.680  16.889  0.00  0.00    +0.000 A 
ATOM     34  C   UNL     1      -4.527  11.176  15.599  0.00  0.00    +0.000 A 
ATOM     35  C   UNL     1      -3.388  10.459  15.271  0.00  0.00    +0.000 A 
ATOM     36  C   UNL     1      -2.390  10.266  16.225  0.00  0.00    +0.000 A 
ATOM     37  C   UNL     1      -2.495  10.799  17.516  0.00  0.00    +0.000 A 
ENDBRANCH  27  37
ENDBRANCH  20  28
ENDBRANCH   1  20
TORSDOF 6
ENDMDL
MODEL 7
REMARK VINA RESULT:      -8.4      1.003      1.519
REMARK  Name = 
REMARK  9 active torsions:
REMARK  status: ('A' for Active; 'I' for Inactive)
REMARK    1  A    between atoms: C_1  and  C_2
REMARK    2  A    between atoms: C_7  and  N_8
REMARK    3  A    between atoms: C_9  and  C_11
REMARK    4  A    between atoms: C_11  and  N_12
REMARK    5  A    between atoms: C_11  and  C_30
REMARK    6  A    between atoms: N_12  and  S_13
REMARK    7  A    between atoms: S_13  and  C_16
REMARK    8  A    between atoms: N_24  and  C_25
REMARK    9  A    between atoms: N_28  and  C_29
REMARK                            x       y       z     vdW  Elec       q    Type
REMARK                         _______ _______ _______ _____ _____    ______ ____
ROOT
ATOM      1  N   UNL     1       0.921  10.376  20.293  0.00  0.00    +0.000 NA
ATOM      2  H   UNL     1       1.836  10.815  20.431  0.00  0.00    +0.000 HD
ENDROOT
BRANCH   1   3
ATOM      3  S   UNL     1       0.800   9.149  21.434  0.00  0.00    +0.000 S 
ATOM      4  O   UNL     1       1.780   9.487  22.444  0.00  0.00    +0.000 OA
ATOM      5  O   UNL     1      -0.589   8.950  21.747  0.00  0.00    +0.000 OA
BRANCH   3   6
ATOM      6  C   UNL     1       1.420   7.727  20.592  0.00  0.00    +0.000 A 
ATOM      7  C   UNL     1       1.333   6.451  21.150  0.00  0.00    +0.000 A 
ATOM      8  C   UNL     1       2.014   5.385  20.556  0.00  0.00    +0.000 A 
ATOM      9  C   UNL     1       2.757   5.581  19.385  0.00  0.00    +0.000 A 
ATOM     10  C   UNL     1       2.766   6.847  18.806  0.00  0.00    +0.000 A 
ATOM     11  C   UNL     1       2.097   7.926  19.398  0.00  0.00    +0.000 A 
ATOM     12  C   UNL     1       3.536   7.084  17.583  0.00  0.00    +0.000 A 
ATOM     13  O   UNL     1       3.468   8.181  17.037  0.00  0.00    +0.000 OA
ATOM     14  N   UNL     1       4.310   6.029  17.133  0.00  0.00    +0.000 N 
ATOM     15  C   UNL     1       5.167   6.259  15.985  0.00  0.00    +0.000 C 
ATOM     16  C   UNL     1       4.312   4.749  17.670  0.00  0.00    +0.000 A 
ATOM     17  O   UNL     1       4.993   3.847  17.177  0.00  0.00    +0.000 OA
ATOM     18  N   UNL     1       3.512   4.537  18.793  0.00  0.00    +0.000 N 
ATOM     19  C   UNL     1       3.513   3.211  19.399  0.00  0.00    +0.000 C 
ENDBRANCH   3   6
ENDBRANCH   1   3
BRANCH   1  20
ATOM     20  C   UNL     1      -0.191  11.361  20.189  0.00  0.00    +0.000 C 
BRANCH  20  21
ATOM     21  C   UNL     1      -1.213  11.144  19.075  0.00  0.00    +0.000 A 
ATOM     22  C   UNL     1      -2.464  11.788  19.071  0.00  0.00    +0.000 A 
ATOM     23  C   UNL     1      -3.433  11.484  18.111  0.00  0.00    +0.000 A 
ATOM     24  C   UNL     1      -3.165  10.543  17.123  0.00  0.00    +0.000 A 
ATOM     25  C   UNL     1      -1.918   9.925  17.080  0.00  0.00    +0.000 A 
ATOM     26  C   UNL     1      -0.950  10.224  18.044  0.00  0.00    +0.000 A 
ENDBRANCH  20  21
BRANCH  20  28
ATOM     27  N   UNL     1       1.790  12.684  19.515  0.00  0.00    +0.000 N 
ATOM     28  C   UNL     1       0.493  12.750  20.041  0.00  0.00    +0.000 C 
ATOM     29  O   UNL     1      -0.125  13.776  20.315  0.00  0.00    +0.000 OA
ATOM     30  H   UNL     1       2.097  11.761  19.229  0.00  0.00    +0.000 HD
BRANCH  27  37
ATOM     31  C   UNL     1       3.503  13.952  21.607  0.00  0.00    +0.000 C 
ATOM     32  C   UNL     1       3.463  14.371  20.162  0.00  0.00    +0.000 A 
ATOM     33  C   UNL     1       4.309  15.435  19.781  0.00  0.00    +0.000 A 
ATOM     34  C   UNL     1       4.333  15.907  18.471  0.00  0.00    +0.000 A 
ATOM     35  C   UNL     1       3.487  15.348  17.528  0.00  0.00    +0.000 A 
ATOM     36  C   UNL     1       2.637  14.305  17.888  0.00  0.00    +0.000 A 
ATOM     37  C   UNL     1       2.624  13.784  19.188  0.00  0.00    +0.000 A 
ENDBRANCH  27  37
ENDBRANCH  20  28
ENDBRANCH   1  20
TORSDOF 6
ENDMDL
MODEL 8
REMARK VINA RESULT:      -8.4      2.765      3.897
REMARK  Name = 
REMARK  9 active torsions:
REMARK  status: ('A' for Active; 'I' for Inactive)
REMARK    1  A    between atoms: C_1  and  C_2
REMARK    2  A    between atoms: C_7  and  N_8
REMARK    3  A    between atoms: C_9  and  C_11
REMARK    4  A    between atoms: C_11  and  N_12
REMARK    5  A    between atoms: C_11  and  C_30
REMARK    6  A    between atoms: N_12  and  S_13
REMARK    7  A    between atoms: S_13  and  C_16
REMARK    8  A    between atoms: N_24  and  C_25
REMARK    9  A    between atoms: N_28  and  C_29
REMARK                            x       y       z     vdW  Elec       q    Type
REMARK                         _______ _______ _______ _____ _____    ______ ____
ROOT
ATOM      1  N   UNL     1      -0.280  10.302  18.753  0.00  0.00    +0.000 NA
ATOM      2  H   UNL     1       0.305  11.063  18.396  0.00  0.00    +0.000 HD
ENDROOT
BRANCH   1   3
ATOM      3  S   UNL     1       0.487   9.709  20.124  0.00  0.00    +0.000 S 
ATOM      4  O   UNL     1       1.226  10.837  20.651  0.00  0.00    +0.000 OA
ATOM      5  O   UNL     1      -0.476   8.986  20.911  0.00  0.00    +0.000 OA
BRANCH   3   6
ATOM      6  C   UNL     1       1.685   8.582  19.485  0.00  0.00    +0.000 A 
ATOM      7  C   UNL     1       2.384   8.847  18.308  0.00  0.00    +0.000 A 
ATOM      8  C   UNL     1       3.168   7.849  17.724  0.00  0.00    +0.000 A 
ATOM      9  C   UNL     1       3.283   6.591  18.330  0.00  0.00    +0.000 A 
ATOM     10  C   UNL     1       2.636   6.376  19.544  0.00  0.00    +0.000 A 
ATOM     11  C   UNL     1       1.839   7.365  20.133  0.00  0.00    +0.000 A 
ATOM     12  C   UNL     1       2.735   5.070  20.201  0.00  0.00    +0.000 A 
ATOM     13  O   UNL     1       2.232   4.920  21.310  0.00  0.00    +0.000 OA
ATOM     14  N   UNL     1       3.396   4.079  19.498  0.00  0.00    +0.000 N 
ATOM     15  C   UNL     1       3.424   2.746  20.069  0.00  0.00    +0.000 C 
ATOM     16  C   UNL     1       4.069   4.260  18.297  0.00  0.00    +0.000 A 
ATOM     17  O   UNL     1       4.681   3.335  17.758  0.00  0.00    +0.000 OA
ATOM     18  N   UNL     1       4.015   5.535  17.732  0.00  0.00    +0.000 N 
ATOM     19  C   UNL     1       4.688   5.752  16.457  0.00  0.00    +0.000 C 
ENDBRANCH   3   6
ENDBRANCH   1   3
BRANCH   1  20
ATOM     20  C   UNL     1      -1.721  10.665  18.845  0.00  0.00    +0.000 C 
BRANCH  20  21
ATOM     21  C   UNL     1      -2.546  10.583  17.562  0.00  0.00    +0.000 A 
ATOM     22  C   UNL     1      -2.083   9.910  16.417  0.00  0.00    +0.000 A 
ATOM     23  C   UNL     1      -2.795   9.950  15.215  0.00  0.00    +0.000 A 
ATOM     24  C   UNL     1      -3.994  10.649  15.138  0.00  0.00    +0.000 A 
ATOM     25  C   UNL     1      -4.496  11.285  16.271  0.00  0.00    +0.000 A 
ATOM     26  C   UNL     1      -3.780  11.250  17.473  0.00  0.00    +0.000 A 
ENDBRANCH  20  21
BRANCH  20  28
ATOM     27  N   UNL     1      -2.617  12.257  20.517  0.00  0.00    +0.000 N 
ATOM     28  C   UNL     1      -1.752  12.108  19.424  0.00  0.00    +0.000 C 
ATOM     29  O   UNL     1      -1.012  12.975  18.964  0.00  0.00    +0.000 OA
ATOM     30  H   UNL     1      -3.059  11.404  20.841  0.00  0.00    +0.000 HD
BRANCH  27  37
ATOM     31  C   UNL     1      -1.172  12.561  23.112  0.00  0.00    +0.000 C 
ATOM     32  C   UNL     1      -2.088  13.596  22.515  0.00  0.00    +0.000 A 
ATOM     33  C   UNL     1      -2.257  14.794  23.240  0.00  0.00    +0.000 A 
ATOM     34  C   UNL     1      -3.096  15.806  22.779  0.00  0.00    +0.000 A 
ATOM     35  C   UNL     1      -3.807  15.623  21.604  0.00  0.00    +0.000 A 
ATOM     36  C   UNL     1      -3.661  14.441  20.881  0.00  0.00    +0.000 A 
ATOM     37  C   UNL     1      -2.791  13.426  21.300  0.00  0.00    +0.000 A 
ENDBRANCH  27  37
ENDBRANCH  20  28
ENDBRANCH   1  20
TORSDOF 6
ENDMDL
MODEL 9
REMARK VINA RESULT:      -8.3      1.341      1.792
REMARK  Name = 
REMARK  9 active torsions:
REMARK  status: ('A' for Active; 'I' for Inactive)
REMARK    1  A    between atoms: C_1  and  C_2
REMARK    2  A    between atoms: C_7  and  N_8
REMARK    3  A    between atoms: C_9  and  C_11
REMARK    4  A    between atoms: C_11  and  N_12
REMARK    5  A    between atoms: C_11  and  C_30
REMARK    6  A    between atoms: N_12  and  S_13
REMARK    7  A    between atoms: S_13  and  C_16
REMARK    8  A    between atoms: N_24  and  C_25
REMARK    9  A    between atoms: N_28  and  C_29
REMARK                            x       y       z     vdW  Elec       q    Type
REMARK                         _______ _______ _______ _____ _____    ______ ____
ROOT
ATOM      1  N   UNL     1       0.510   9.929  20.369  0.00  0.00    +0.000 NA
ATOM      2  H   UNL     1       1.271   9.805  19.696  0.00  0.00    +0.000 HD
ENDROOT
BRANCH   1   3
ATOM      3  S   UNL     1       0.668   8.700  21.504  0.00  0.00    +0.000 S 
ATOM      4  O   UNL     1       1.661   9.187  22.438  0.00  0.00    +0.000 OA
ATOM      5  O   UNL     1      -0.645   8.292  21.923  0.00  0.00    +0.000 OA
BRANCH   3   6
ATOM      6  C   UNL     1       1.430   7.388  20.603  0.00  0.00    +0.000 A 
ATOM      7  C   UNL     1       1.490   6.090  21.112  0.00  0.00    +0.000 A 
ATOM      8  C   UNL     1       2.277   5.128  20.472  0.00  0.00    +0.000 A 
ATOM      9  C   UNL     1       2.980   5.449  19.304  0.00  0.00    +0.000 A 
ATOM     10  C   UNL     1       2.843   6.730  18.775  0.00  0.00    +0.000 A 
ATOM     11  C   UNL     1       2.067   7.705  19.413  0.00  0.00    +0.000 A 
ATOM     12  C   UNL     1       3.569   7.095  17.556  0.00  0.00    +0.000 A 
ATOM     13  O   UNL     1       3.374   8.198  17.053  0.00  0.00    +0.000 OA
ATOM     14  N   UNL     1       4.448   6.150  17.059  0.00  0.00    +0.000 N 
ATOM     15  C   UNL     1       5.261   6.516  15.915  0.00  0.00    +0.000 C 
ATOM     16  C   UNL     1       4.597   4.859  17.546  0.00  0.00    +0.000 A 
ATOM     17  O   UNL     1       5.366   4.056  17.014  0.00  0.00    +0.000 OA
ATOM     18  N   UNL     1       3.838   4.518  18.667  0.00  0.00    +0.000 N 
ATOM     19  C   UNL     1       3.991   3.178  19.220  0.00  0.00    +0.000 C 
ENDBRANCH   3   6
ENDBRANCH   1   3
BRANCH   1  20
ATOM     20  C   UNL     1       0.377  11.331  20.854  0.00  0.00    +0.000 C 
BRANCH  20  21
ATOM     21  C   UNL     1      -0.995  11.767  21.363  0.00  0.00    +0.000 A 
ATOM     22  C   UNL     1      -1.972  12.311  20.509  0.00  0.00    +0.000 A 
ATOM     23  C   UNL     1      -3.173  12.818  21.012  0.00  0.00    +0.000 A 
ATOM     24  C   UNL     1      -3.432  12.774  22.377  0.00  0.00    +0.000 A 
ATOM     25  C   UNL     1      -2.500  12.199  23.237  0.00  0.00    +0.000 A 
ATOM     26  C   UNL     1      -1.294  11.697  22.735  0.00  0.00    +0.000 A 
ENDBRANCH  20  21
BRANCH  20  28
ATOM     27  N   UNL     1       1.412  13.438  20.067  0.00  0.00    +0.000 N 
ATOM     28  C   UNL     1       0.831  12.227  19.667  0.00  0.00    +0.000 C 
ATOM     29  O   UNL     1       0.724  11.823  18.511  0.00  0.00    +0.000 OA
ATOM     30  H   UNL     1       1.532  13.553  21.067  0.00  0.00    +0.000 HD
BRANCH  27  37
ATOM     31  C   UNL     1      -0.103  15.911  19.353  0.00  0.00    +0.000 C 
ATOM     32  C   UNL     1       1.300  15.604  18.900  0.00  0.00    +0.000 A 
ATOM     33  C   UNL     1       1.935  16.568  18.089  0.00  0.00    +0.000 A 
ATOM     34  C   UNL     1       3.226  16.369  17.605  0.00  0.00    +0.000 A 
ATOM     35  C   UNL     1       3.891  15.189  17.895  0.00  0.00    +0.000 A 
ATOM     36  C   UNL     1       3.274  14.221  18.685  0.00  0.00    +0.000 A 
ATOM     37  C   UNL     1       1.993  14.414  19.219  0.00  0.00    +0.000 A 
ENDBRANCH  27  37
ENDBRANCH  20  28
ENDBRANCH   1  20
TORSDOF 6
ENDMDL
