MODEL 1
REMARK VINA RESULT:      -6.5      0.000      0.000
REMARK  Name = 
REMARK  7 active torsions:
REMARK  status: ('A' for Active; 'I' for Inactive)
REMARK    1  A    between atoms: C_1  and  C_2
REMARK    2  A    between atoms: C_3  and  C_4
REMARK    3  A    between atoms: C_4  and  O_6
REMARK    4  A    between atoms: O_6  and  C_7
REMARK    5  A    between atoms: C_7  and  C_8
REMARK    6  A    between atoms: C_7  and  C_9
REMARK    7  A    between atoms: C_10  and  C_11
REMARK                            x       y       z     vdW  Elec       q    Type
REMARK                         _______ _______ _______ _____ _____    ______ ____
ROOT
ATOM      1  C   UNL     1       1.402   9.093  21.291  0.00  0.00    +0.000 C 
ATOM      2  C   UNL     1       1.756   7.950  20.368  0.00  0.00    +0.000 C 
ATOM      3  C   UNL     1       2.005   8.009  19.036  0.00  0.00    +0.000 C 
ATOM      4  C   UNL     1       2.364   6.740  18.255  0.00  0.00    +0.000 C 
ATOM      5  N   UNL     1       2.241   5.517  19.059  0.00  0.00    +0.000 N 
ATOM      6  C   UNL     1       1.986   5.538  20.404  0.00  0.00    +0.000 A 
ATOM      7  N   UNL     1       1.960   4.334  20.915  0.00  0.00    +0.000 NA
ATOM      8  C   UNL     1       2.208   3.493  19.855  0.00  0.00    +0.000 A 
ATOM      9  C   UNL     1       2.318   2.094  19.839  0.00  0.00    +0.000 A 
ATOM     10  C   UNL     1       2.593   1.452  18.624  0.00  0.00    +0.000 A 
ATOM     11  C   UNL     1       2.741   2.187  17.447  0.00  0.00    +0.000 A 
ATOM     12  C   UNL     1       2.624   3.582  17.440  0.00  0.00    +0.000 A 
ATOM     13  C   UNL     1       2.367   4.207  18.668  0.00  0.00    +0.000 A 
ATOM     14  N   UNL     1       1.798   6.718  21.015  0.00  0.00    +0.000 N 
ATOM     15  H   UNL     1       1.563   6.700  22.004  0.00  0.00    +0.000 HD
ENDROOT
BRANCH   4  16
ATOM     16  C   UNL     1       3.754   6.814  17.696  0.00  0.00    +0.000 A 
ATOM     17  C   UNL     1       4.975   6.599  18.379  0.00  0.00    +0.000 A 
ATOM     18  N   UNL     1       6.034   6.751  17.586  0.00  0.00    +0.000 NA
ATOM     19  O   UNL     1       5.516   7.059  16.339  0.00  0.00    +0.000 OA
ATOM     20  C   UNL     1       4.164   7.094  16.411  0.00  0.00    +0.000 A 
ENDBRANCH   4  16
BRANCH   3  21
ATOM     21  C   UNL     1       1.943   9.197  18.142  0.00  0.00    +0.000 C 
ATOM     22  O   UNL     1       2.885   9.971  18.029  0.00  0.00    +0.000 OA
BRANCH  21  23
ATOM     23  O   UNL     1       0.738   9.346  17.554  0.00  0.00    +0.000 OA
BRANCH  23  24
ATOM     24  C   UNL     1      -0.294   9.995  18.324  0.00  0.00    +0.000 C 
ATOM     25  C   UNL     1       0.117  11.418  18.692  0.00  0.00    +0.000 C 
ATOM     26  C   UNL     1      -1.541  10.019  17.447  0.00  0.00    +0.000 C 
ENDBRANCH  23  24
ENDBRANCH  21  23
ENDBRANCH   3  21
TORSDOF 4
ENDMDL
MODEL 2
REMARK VINA RESULT:      -6.5      2.563      5.901
REMARK  Name = 
REMARK  7 active torsions:
REMARK  status: ('A' for Active; 'I' for Inactive)
REMARK    1  A    between atoms: C_1  and  C_2
REMARK    2  A    between atoms: C_3  and  C_4
REMARK    3  A    between atoms: C_4  and  O_6
REMARK    4  A    between atoms: O_6  and  C_7
REMARK    5  A    between atoms: C_7  and  C_8
REMARK    6  A    between atoms: C_7  and  C_9
REMARK    7  A    between atoms: C_10  and  C_11
REMARK                            x       y       z     vdW  Elec       q    Type
REMARK                         _______ _______ _______ _____ _____    ______ ____
ROOT
ATOM      1  C   UNL     1       3.964   1.735  19.430  0.00  0.00    +0.000 C 
ATOM      2  C   UNL     1       4.312   3.133  18.974  0.00  0.00    +0.000 C 
ATOM      3  C   UNL     1       3.561   3.965  18.211  0.00  0.00    +0.000 C 
ATOM      4  C   UNL     1       4.072   5.365  17.853  0.00  0.00    +0.000 C 
ATOM      5  N   UNL     1       5.459   5.595  18.277  0.00  0.00    +0.000 N 
ATOM      6  C   UNL     1       6.156   4.704  19.048  0.00  0.00    +0.000 A 
ATOM      7  N   UNL     1       7.356   5.140  19.333  0.00  0.00    +0.000 NA
ATOM      8  C   UNL     1       7.444   6.367  18.720  0.00  0.00    +0.000 A 
ATOM      9  C   UNL     1       8.505   7.285  18.719  0.00  0.00    +0.000 A 
ATOM     10  C   UNL     1       8.354   8.493  18.025  0.00  0.00    +0.000 A 
ATOM     11  C   UNL     1       7.175   8.774  17.333  0.00  0.00    +0.000 A 
ATOM     12  C   UNL     1       6.110   7.867  17.311  0.00  0.00    +0.000 A 
ATOM     13  C   UNL     1       6.272   6.673  18.027  0.00  0.00    +0.000 A 
ATOM     14  N   UNL     1       5.569   3.550  19.402  0.00  0.00    +0.000 N 
ATOM     15  H   UNL     1       6.128   2.887  19.934  0.00  0.00    +0.000 HD
ENDROOT
BRANCH   4  16
ATOM     16  C   UNL     1       3.201   6.435  18.443  0.00  0.00    +0.000 A 
ATOM     17  C   UNL     1       2.811   6.586  19.795  0.00  0.00    +0.000 A 
ATOM     18  N   UNL     1       2.024   7.645  19.981  0.00  0.00    +0.000 NA
ATOM     19  O   UNL     1       1.894   8.228  18.731  0.00  0.00    +0.000 OA
ATOM     20  C   UNL     1       2.595   7.506  17.825  0.00  0.00    +0.000 A 
ENDBRANCH   4  16
BRANCH   3  21
ATOM     21  C   UNL     1       2.234   3.696  17.593  0.00  0.00    +0.000 C 
ATOM     22  O   UNL     1       2.126   3.120  16.518  0.00  0.00    +0.000 OA
BRANCH  21  23
ATOM     23  O   UNL     1       1.212   4.215  18.304  0.00  0.00    +0.000 OA
BRANCH  23  24
ATOM     24  C   UNL     1       0.503   3.320  19.185  0.00  0.00    +0.000 C 
ATOM     25  C   UNL     1       0.741   1.866  18.789  0.00  0.00    +0.000 C 
ATOM     26  C   UNL     1       1.038   3.575  20.590  0.00  0.00    +0.000 C 
ENDBRANCH  23  24
ENDBRANCH  21  23
ENDBRANCH   3  21
TORSDOF 4
ENDMDL
MODEL 3
REMARK VINA RESULT:      -6.4      4.888      8.429
REMARK  Name = 
REMARK  7 active torsions:
REMARK  status: ('A' for Active; 'I' for Inactive)
REMARK    1  A    between atoms: C_1  and  C_2
REMARK    2  A    between atoms: C_3  and  C_4
REMARK    3  A    between atoms: C_4  and  O_6
REMARK    4  A    between atoms: O_6  and  C_7
REMARK    5  A    between atoms: C_7  and  C_8
REMARK    6  A    between atoms: C_7  and  C_9
REMARK    7  A    between atoms: C_10  and  C_11
REMARK                            x       y       z     vdW  Elec       q    Type
REMARK                         _______ _______ _______ _____ _____    ______ ____
ROOT
ATOM      1  C   UNL     1       1.669   9.694  18.211  0.00  0.00    +0.000 C 
ATOM      2  C   UNL     1       0.406  10.440  18.576  0.00  0.00    +0.000 C 
ATOM      3  C   UNL     1       0.183  11.201  19.675  0.00  0.00    +0.000 C 
ATOM      4  C   UNL     1      -1.166  11.900  19.878  0.00  0.00    +0.000 C 
ATOM      5  N   UNL     1      -2.166  11.518  18.873  0.00  0.00    +0.000 N 
ATOM      6  C   UNL     1      -1.866  10.742  17.786  0.00  0.00    +0.000 A 
ATOM      7  N   UNL     1      -2.903  10.566  17.010  0.00  0.00    +0.000 NA
ATOM      8  C   UNL     1      -3.924  11.257  17.620  0.00  0.00    +0.000 A 
ATOM      9  C   UNL     1      -5.254  11.425  17.204  0.00  0.00    +0.000 A 
ATOM     10  C   UNL     1      -6.117  12.194  17.995  0.00  0.00    +0.000 A 
ATOM     11  C   UNL     1      -5.669  12.772  19.185  0.00  0.00    +0.000 A 
ATOM     12  C   UNL     1      -4.350  12.605  19.623  0.00  0.00    +0.000 A 
ATOM     13  C   UNL     1      -3.497  11.849  18.808  0.00  0.00    +0.000 A 
ATOM     14  N   UNL     1      -0.616  10.271  17.646  0.00  0.00    +0.000 N 
ATOM     15  H   UNL     1      -0.435   9.659  16.854  0.00  0.00    +0.000 HD
ENDROOT
BRANCH   4  16
ATOM     16  C   UNL     1      -1.017  13.393  19.870  0.00  0.00    +0.000 A 
ATOM     17  C   UNL     1      -0.489  14.205  18.838  0.00  0.00    +0.000 A 
ATOM     18  N   UNL     1      -0.494  15.498  19.158  0.00  0.00    +0.000 NA
ATOM     19  O   UNL     1      -1.052  15.560  20.424  0.00  0.00    +0.000 OA
ATOM     20  C   UNL     1      -1.361  14.309  20.840  0.00  0.00    +0.000 A 
ENDBRANCH   4  16
BRANCH   3  21
ATOM     21  C   UNL     1       1.102  11.452  20.819  0.00  0.00    +0.000 C 
ATOM     22  O   UNL     1       1.736  12.494  20.923  0.00  0.00    +0.000 OA
BRANCH  21  23
ATOM     23  O   UNL     1       1.199  10.396  21.652  0.00  0.00    +0.000 OA
BRANCH  23  24
ATOM     24  C   UNL     1       0.026   9.572  21.809  0.00  0.00    +0.000 C 
ATOM     25  C   UNL     1       0.352   8.106  21.536  0.00  0.00    +0.000 C 
ATOM     26  C   UNL     1      -0.439   9.746  23.251  0.00  0.00    +0.000 C 
ENDBRANCH  23  24
ENDBRANCH  21  23
ENDBRANCH   3  21
TORSDOF 4
ENDMDL
MODEL 4
REMARK VINA RESULT:      -6.4      3.694      5.766
REMARK  Name = 
REMARK  7 active torsions:
REMARK  status: ('A' for Active; 'I' for Inactive)
REMARK    1  A    between atoms: C_1  and  C_2
REMARK    2  A    between atoms: C_3  and  C_4
REMARK    3  A    between atoms: C_4  and  O_6
REMARK    4  A    between atoms: O_6  and  C_7
REMARK    5  A    between atoms: C_7  and  C_8
REMARK    6  A    between atoms: C_7  and  C_9
REMARK    7  A    between atoms: C_10  and  C_11
REMARK                            x       y       z     vdW  Elec       q    Type
REMARK                         _______ _______ _______ _____ _____    ______ ____
ROOT
ATOM      1  C   UNL     1      -1.978  11.692  23.367  0.00  0.00    +0.000 C 
ATOM      2  C   UNL     1      -1.142  11.318  22.165  0.00  0.00    +0.000 C 
ATOM      3  C   UNL     1      -1.033  11.988  20.992  0.00  0.00    +0.000 C 
ATOM      4  C   UNL     1      -0.121  11.464  19.877  0.00  0.00    +0.000 C 
ATOM      5  N   UNL     1       0.445  10.141  20.174  0.00  0.00    +0.000 N 
ATOM      6  C   UNL     1       0.292   9.525  21.387  0.00  0.00    +0.000 A 
ATOM      7  N   UNL     1       0.914   8.376  21.433  0.00  0.00    +0.000 NA
ATOM      8  C   UNL     1       1.497   8.238  20.195  0.00  0.00    +0.000 A 
ATOM      9  C   UNL     1       2.306   7.201  19.705  0.00  0.00    +0.000 A 
ATOM     10  C   UNL     1       2.802   7.290  18.398  0.00  0.00    +0.000 A 
ATOM     11  C   UNL     1       2.487   8.383  17.589  0.00  0.00    +0.000 A 
ATOM     12  C   UNL     1       1.672   9.422  18.055  0.00  0.00    +0.000 A 
ATOM     13  C   UNL     1       1.202   9.323  19.371  0.00  0.00    +0.000 A 
ATOM     14  N   UNL     1      -0.439  10.128  22.338  0.00  0.00    +0.000 N 
ATOM     15  H   UNL     1      -0.575   9.625  23.211  0.00  0.00    +0.000 HD
ENDROOT
BRANCH   4  16
ATOM     16  C   UNL     1       1.002  12.418  19.593  0.00  0.00    +0.000 A 
ATOM     17  C   UNL     1       2.010  12.859  20.483  0.00  0.00    +0.000 A 
ATOM     18  N   UNL     1       2.853  13.716  19.910  0.00  0.00    +0.000 NA
ATOM     19  O   UNL     1       2.414  13.843  18.602  0.00  0.00    +0.000 OA
ATOM     20  C   UNL     1       1.317  13.070  18.421  0.00  0.00    +0.000 A 
ENDBRANCH   4  16
BRANCH   3  21
ATOM     21  C   UNL     1      -1.745  13.226  20.573  0.00  0.00    +0.000 C 
ATOM     22  O   UNL     1      -1.442  14.327  21.015  0.00  0.00    +0.000 OA
BRANCH  21  23
ATOM     23  O   UNL     1      -2.772  12.979  19.734  0.00  0.00    +0.000 OA
BRANCH  23  24
ATOM     24  C   UNL     1      -4.047  12.665  20.330  0.00  0.00    +0.000 C 
ATOM     25  C   UNL     1      -4.707  13.921  20.895  0.00  0.00    +0.000 C 
ATOM     26  C   UNL     1      -4.911  12.072  19.223  0.00  0.00    +0.000 C 
ENDBRANCH  23  24
ENDBRANCH  21  23
ENDBRANCH   3  21
TORSDOF 4
ENDMDL
MODEL 5
REMARK VINA RESULT:      -6.3      2.599      5.243
REMARK  Name = 
REMARK  7 active torsions:
REMARK  status: ('A' for Active; 'I' for Inactive)
REMARK    1  A    between atoms: C_1  and  C_2
REMARK    2  A    between atoms: C_3  and  C_4
REMARK    3  A    between atoms: C_4  and  O_6
REMARK    4  A    between atoms: O_6  and  C_7
REMARK    5  A    between atoms: C_7  and  C_8
REMARK    6  A    between atoms: C_7  and  C_9
REMARK    7  A    between atoms: C_10  and  C_11
REMARK                            x       y       z     vdW  Elec       q    Type
REMARK                         _______ _______ _______ _____ _____    ______ ____
ROOT
ATOM      1  C   UNL     1       5.584   3.791  14.480  0.00  0.00    +0.000 C 
ATOM      2  C   UNL     1       4.958   4.096  15.821  0.00  0.00    +0.000 C 
ATOM      3  C   UNL     1       5.066   5.239  16.544  0.00  0.00    +0.000 C 
ATOM      4  C   UNL     1       4.346   5.380  17.889  0.00  0.00    +0.000 C 
ATOM      5  N   UNL     1       3.709   4.133  18.332  0.00  0.00    +0.000 N 
ATOM      6  C   UNL     1       3.639   3.016  17.544  0.00  0.00    +0.000 A 
ATOM      7  N   UNL     1       2.993   2.043  18.132  0.00  0.00    +0.000 NA
ATOM      8  C   UNL     1       2.628   2.548  19.357  0.00  0.00    +0.000 A 
ATOM      9  C   UNL     1       1.892   1.939  20.386  0.00  0.00    +0.000 A 
ATOM     10  C   UNL     1       1.629   2.669  21.552  0.00  0.00    +0.000 A 
ATOM     11  C   UNL     1       2.101   3.975  21.698  0.00  0.00    +0.000 A 
ATOM     12  C   UNL     1       2.847   4.595  20.690  0.00  0.00    +0.000 A 
ATOM     13  C   UNL     1       3.083   3.856  19.523  0.00  0.00    +0.000 A 
ATOM     14  N   UNL     1       4.210   3.038  16.329  0.00  0.00    +0.000 N 
ATOM     15  H   UNL     1       4.184   2.179  15.786  0.00  0.00    +0.000 HD
ENDROOT
BRANCH   4  16
ATOM     16  C   UNL     1       3.309   6.464  17.846  0.00  0.00    +0.000 A 
ATOM     17  C   UNL     1       3.494   7.848  18.075  0.00  0.00    +0.000 A 
ATOM     18  N   UNL     1       2.359   8.536  17.966  0.00  0.00    +0.000 NA
ATOM     19  O   UNL     1       1.392   7.599  17.642  0.00  0.00    +0.000 OA
ATOM     20  C   UNL     1       1.963   6.372  17.572  0.00  0.00    +0.000 A 
ENDBRANCH   4  16
BRANCH   3  21
ATOM     21  C   UNL     1       5.865   6.453  16.226  0.00  0.00    +0.000 C 
ATOM     22  O   UNL     1       5.436   7.338  15.496  0.00  0.00    +0.000 OA
BRANCH  21  23
ATOM     23  O   UNL     1       7.102   6.419  16.763  0.00  0.00    +0.000 OA
BRANCH  23  24
ATOM     24  C   UNL     1       7.279   7.052  18.047  0.00  0.00    +0.000 C 
ATOM     25  C   UNL     1       8.004   6.121  19.015  0.00  0.00    +0.000 C 
ATOM     26  C   UNL     1       8.112   8.306  17.803  0.00  0.00    +0.000 C 
ENDBRANCH  23  24
ENDBRANCH  21  23
ENDBRANCH   3  21
TORSDOF 4
ENDMDL
MODEL 6
REMARK VINA RESULT:      -6.3      2.520      4.419
REMARK  Name = 
REMARK  7 active torsions:
REMARK  status: ('A' for Active; 'I' for Inactive)
REMARK    1  A    between atoms: C_1  and  C_2
REMARK    2  A    between atoms: C_3  and  C_4
REMARK    3  A    between atoms: C_4  and  O_6
REMARK    4  A    between atoms: O_6  and  C_7
REMARK    5  A    between atoms: C_7  and  C_8
REMARK    6  A    between atoms: C_7  and  C_9
REMARK    7  A    between atoms: C_10  and  C_11
REMARK                            x       y       z     vdW  Elec       q    Type
REMARK                         _______ _______ _______ _____ _____    ______ ____
ROOT
ATOM      1  C   UNL     1       0.872   9.491  18.127  0.00  0.00    +0.000 C 
ATOM      2  C   UNL     1       1.890   8.402  18.376  0.00  0.00    +0.000 C 
ATOM      3  C   UNL     1       2.041   7.651  19.495  0.00  0.00    +0.000 C 
ATOM      4  C   UNL     1       3.128   6.573  19.569  0.00  0.00    +0.000 C 
ATOM      5  N   UNL     1       4.025   6.584  18.406  0.00  0.00    +0.000 N 
ATOM      6  C   UNL     1       3.807   7.373  17.309  0.00  0.00    +0.000 A 
ATOM      7  N   UNL     1       4.714   7.185  16.385  0.00  0.00    +0.000 NA
ATOM      8  C   UNL     1       5.559   6.233  16.904  0.00  0.00    +0.000 A 
ATOM      9  C   UNL     1       6.692   5.641  16.325  0.00  0.00    +0.000 A 
ATOM     10  C   UNL     1       7.393   4.670  17.052  0.00  0.00    +0.000 A 
ATOM     11  C   UNL     1       6.984   4.308  18.337  0.00  0.00    +0.000 A 
ATOM     12  C   UNL     1       5.865   4.896  18.937  0.00  0.00    +0.000 A 
ATOM     13  C   UNL     1       5.165   5.850  18.186  0.00  0.00    +0.000 A 
ATOM     14  N   UNL     1       2.754   8.206  17.303  0.00  0.00    +0.000 N 
ATOM     15  H   UNL     1       2.645   8.813  16.495  0.00  0.00    +0.000 HD
ENDROOT
BRANCH   4  16
ATOM     16  C   UNL     1       2.533   5.202  19.708  0.00  0.00    +0.000 A 
ATOM     17  C   UNL     1       1.747   4.500  18.764  0.00  0.00    +0.000 A 
ATOM     18  N   UNL     1       1.371   3.301  19.209  0.00  0.00    +0.000 NA
ATOM     19  O   UNL     1       1.928   3.188  20.472  0.00  0.00    +0.000 OA
ATOM     20  C   UNL     1       2.617   4.318  20.761  0.00  0.00    +0.000 A 
ENDBRANCH   4  16
BRANCH   3  21
ATOM     21  C   UNL     1       1.281   7.744  20.772  0.00  0.00    +0.000 C 
ATOM     22  O   UNL     1       0.533   6.850  21.147  0.00  0.00    +0.000 OA
BRANCH  21  23
ATOM     23  O   UNL     1       1.460   8.924  21.400  0.00  0.00    +0.000 OA
BRANCH  23  24
ATOM     24  C   UNL     1       0.276   9.667  21.755  0.00  0.00    +0.000 C 
ATOM     25  C   UNL     1      -0.007   9.555  23.251  0.00  0.00    +0.000 C 
ATOM     26  C   UNL     1       0.543  11.120  21.379  0.00  0.00    +0.000 C 
ENDBRANCH  23  24
ENDBRANCH  21  23
ENDBRANCH   3  21
TORSDOF 4
ENDMDL
MODEL 7
REMARK VINA RESULT:      -6.2      2.696      5.913
REMARK  Name = 
REMARK  7 active torsions:
REMARK  status: ('A' for Active; 'I' for Inactive)
REMARK    1  A    between atoms: C_1  and  C_2
REMARK    2  A    between atoms: C_3  and  C_4
REMARK    3  A    between atoms: C_4  and  O_6
REMARK    4  A    between atoms: O_6  and  C_7
REMARK    5  A    between atoms: C_7  and  C_8
REMARK    6  A    between atoms: C_7  and  C_9
REMARK    7  A    between atoms: C_10  and  C_11
REMARK                            x       y       z     vdW  Elec       q    Type
REMARK                         _______ _______ _______ _____ _____    ______ ____
ROOT
ATOM      1  C   UNL     1       4.058   1.724  19.201  0.00  0.00    +0.000 C 
ATOM      2  C   UNL     1       4.414   3.135  18.792  0.00  0.00    +0.000 C 
ATOM      3  C   UNL     1       3.688   3.981  18.019  0.00  0.00    +0.000 C 
ATOM      4  C   UNL     1       4.202   5.392  17.715  0.00  0.00    +0.000 C 
ATOM      5  N   UNL     1       5.569   5.622  18.201  0.00  0.00    +0.000 N 
ATOM      6  C   UNL     1       6.241   4.717  18.978  0.00  0.00    +0.000 A 
ATOM      7  N   UNL     1       7.425   5.153  19.322  0.00  0.00    +0.000 NA
ATOM      8  C   UNL     1       7.528   6.396  18.742  0.00  0.00    +0.000 A 
ATOM      9  C   UNL     1       8.581   7.321  18.807  0.00  0.00    +0.000 A 
ATOM     10  C   UNL     1       8.449   8.544  18.136  0.00  0.00    +0.000 A 
ATOM     11  C   UNL     1       7.297   8.833  17.403  0.00  0.00    +0.000 A 
ATOM     12  C   UNL     1       6.241   7.919  17.316  0.00  0.00    +0.000 A 
ATOM     13  C   UNL     1       6.384   6.710  18.010  0.00  0.00    +0.000 A 
ATOM     14  N   UNL     1       5.649   3.551  19.281  0.00  0.00    +0.000 N 
ATOM     15  H   UNL     1       6.191   2.879  19.820  0.00  0.00    +0.000 HD
ENDROOT
BRANCH   4  16
ATOM     16  C   UNL     1       3.300   6.442  18.294  0.00  0.00    +0.000 A 
ATOM     17  C   UNL     1       2.643   7.492  17.610  0.00  0.00    +0.000 A 
ATOM     18  N   UNL     1       1.920   8.256  18.429  0.00  0.00    +0.000 NA
ATOM     19  O   UNL     1       2.081   7.699  19.687  0.00  0.00    +0.000 OA
ATOM     20  C   UNL     1       2.899   6.623  19.600  0.00  0.00    +0.000 A 
ENDBRANCH   4  16
BRANCH   3  21
ATOM     21  C   UNL     1       2.390   3.718  17.341  0.00  0.00    +0.000 C 
ATOM     22  O   UNL     1       2.330   3.381  16.165  0.00  0.00    +0.000 OA
BRANCH  21  23
ATOM     23  O   UNL     1       1.327   3.960  18.136  0.00  0.00    +0.000 OA
BRANCH  23  24
ATOM     24  C   UNL     1       1.264   3.245  19.386  0.00  0.00    +0.000 C 
ATOM     25  C   UNL     1       0.698   4.132  20.492  0.00  0.00    +0.000 C 
ATOM     26  C   UNL     1       0.349   2.046  19.157  0.00  0.00    +0.000 C 
ENDBRANCH  23  24
ENDBRANCH  21  23
ENDBRANCH   3  21
TORSDOF 4
ENDMDL
MODEL 8
REMARK VINA RESULT:      -6.1      5.974      9.942
REMARK  Name = 
REMARK  7 active torsions:
REMARK  status: ('A' for Active; 'I' for Inactive)
REMARK    1  A    between atoms: C_1  and  C_2
REMARK    2  A    between atoms: C_3  and  C_4
REMARK    3  A    between atoms: C_4  and  O_6
REMARK    4  A    between atoms: O_6  and  C_7
REMARK    5  A    between atoms: C_7  and  C_8
REMARK    6  A    between atoms: C_7  and  C_9
REMARK    7  A    between atoms: C_10  and  C_11
REMARK                            x       y       z     vdW  Elec       q    Type
REMARK                         _______ _______ _______ _____ _____    ______ ____
ROOT
ATOM      1  C   UNL     1      -1.955  11.564  17.428  0.00  0.00    +0.000 C 
ATOM      2  C   UNL     1      -2.464  11.916  18.807  0.00  0.00    +0.000 C 
ATOM      3  C   UNL     1      -1.793  11.831  19.983  0.00  0.00    +0.000 C 
ATOM      4  C   UNL     1      -2.467  12.246  21.295  0.00  0.00    +0.000 C 
ATOM      5  N   UNL     1      -3.891  12.565  21.132  0.00  0.00    +0.000 N 
ATOM      6  C   UNL     1      -4.501  12.632  19.908  0.00  0.00    +0.000 A 
ATOM      7  N   UNL     1      -5.760  12.970  20.008  0.00  0.00    +0.000 NA
ATOM      8  C   UNL     1      -5.980  13.129  21.356  0.00  0.00    +0.000 A 
ATOM      9  C   UNL     1      -7.153  13.512  22.025  0.00  0.00    +0.000 A 
ATOM     10  C   UNL     1      -7.130  13.620  23.421  0.00  0.00    +0.000 A 
ATOM     11  C   UNL     1      -5.966  13.338  24.139  0.00  0.00    +0.000 A 
ATOM     12  C   UNL     1      -4.790  12.942  23.491  0.00  0.00    +0.000 A 
ATOM     13  C   UNL     1      -4.828  12.859  22.093  0.00  0.00    +0.000 A 
ATOM     14  N   UNL     1      -3.784  12.356  18.807  0.00  0.00    +0.000 N 
ATOM     15  H   UNL     1      -4.275  12.368  17.917  0.00  0.00    +0.000 HD
ENDROOT
BRANCH   4  16
ATOM     16  C   UNL     1      -1.776  13.423  21.918  0.00  0.00    +0.000 A 
ATOM     17  C   UNL     1      -1.092  13.470  23.156  0.00  0.00    +0.000 A 
ATOM     18  N   UNL     1      -0.597  14.679  23.417  0.00  0.00    +0.000 NA
ATOM     19  O   UNL     1      -0.942  15.459  22.325  0.00  0.00    +0.000 OA
ATOM     20  C   UNL     1      -1.639  14.708  21.440  0.00  0.00    +0.000 A 
ENDBRANCH   4  16
BRANCH   3  21
ATOM     21  C   UNL     1      -0.414  11.323  20.218  0.00  0.00    +0.000 C 
ATOM     22  O   UNL     1       0.576  11.959  19.881  0.00  0.00    +0.000 OA
BRANCH  21  23
ATOM     23  O   UNL     1      -0.398  10.088  20.761  0.00  0.00    +0.000 OA
BRANCH  23  24
ATOM     24  C   UNL     1       0.467   9.878  21.894  0.00  0.00    +0.000 C 
ATOM     25  C   UNL     1      -0.344   9.750  23.181  0.00  0.00    +0.000 C 
ATOM     26  C   UNL     1       1.232   8.587  21.626  0.00  0.00    +0.000 C 
ENDBRANCH  23  24
ENDBRANCH  21  23
ENDBRANCH   3  21
TORSDOF 4
ENDMDL
MODEL 9
REMARK VINA RESULT:      -6.1      4.278      6.686
REMARK  Name = 
REMARK  7 active torsions:
REMARK  status: ('A' for Active; 'I' for Inactive)
REMARK    1  A    between atoms: C_1  and  C_2
REMARK    2  A    between atoms: C_3  and  C_4
REMARK    3  A    between atoms: C_4  and  O_6
REMARK    4  A    between atoms: O_6  and  C_7
REMARK    5  A    between atoms: C_7  and  C_8
REMARK    6  A    between atoms: C_7  and  C_9
REMARK    7  A    between atoms: C_10  and  C_11
REMARK                            x       y       z     vdW  Elec       q    Type
REMARK                         _______ _______ _______ _____ _____    ______ ____
ROOT
ATOM      1  C   UNL     1      -2.758  12.273  23.687  0.00  0.00    +0.000 C 
ATOM      2  C   UNL     1      -1.940  11.859  22.485  0.00  0.00    +0.000 C 
ATOM      3  C   UNL     1      -1.953  12.410  21.246  0.00  0.00    +0.000 C 
ATOM      4  C   UNL     1      -1.040  11.865  20.143  0.00  0.00    +0.000 C 
ATOM      5  N   UNL     1      -0.327  10.644  20.539  0.00  0.00    +0.000 N 
ATOM      6  C   UNL     1      -0.363  10.145  21.814  0.00  0.00    +0.000 A 
ATOM      7  N   UNL     1       0.377   9.075  21.940  0.00  0.00    +0.000 NA
ATOM      8  C   UNL     1       0.917   8.866  20.693  0.00  0.00    +0.000 A 
ATOM      9  C   UNL     1       1.807   7.869  20.266  0.00  0.00    +0.000 A 
ATOM     10  C   UNL     1       2.234   7.869  18.932  0.00  0.00    +0.000 A 
ATOM     11  C   UNL     1       1.772   8.835  18.036  0.00  0.00    +0.000 A 
ATOM     12  C   UNL     1       0.875   9.831  18.439  0.00  0.00    +0.000 A 
ATOM     13  C   UNL     1       0.475   9.825  19.782  0.00  0.00    +0.000 A 
ATOM     14  N   UNL     1      -1.111  10.769  22.737  0.00  0.00    +0.000 N 
ATOM     15  H   UNL     1      -1.156  10.350  23.662  0.00  0.00    +0.000 HD
ENDROOT
BRANCH   4  16
ATOM     16  C   UNL     1      -0.036  12.890  19.705  0.00  0.00    +0.000 A 
ATOM     17  C   UNL     1       0.999  13.473  20.475  0.00  0.00    +0.000 A 
ATOM     18  N   UNL     1       1.711  14.360  19.780  0.00  0.00    +0.000 NA
ATOM     19  O   UNL     1       1.154  14.363  18.511  0.00  0.00    +0.000 OA
ATOM     20  C   UNL     1       0.120  13.489  18.474  0.00  0.00    +0.000 A 
ENDBRANCH   4  16
BRANCH   3  21
ATOM     21  C   UNL     1      -2.806  13.522  20.745  0.00  0.00    +0.000 C 
ATOM     22  O   UNL     1      -2.537  14.695  20.966  0.00  0.00    +0.000 OA
BRANCH  21  23
ATOM     23  O   UNL     1      -3.911  13.084  20.106  0.00  0.00    +0.000 OA
BRANCH  23  24
ATOM     24  C   UNL     1      -5.179  13.610  20.547  0.00  0.00    +0.000 C 
ATOM     25  C   UNL     1      -6.085  13.911  19.356  0.00  0.00    +0.000 C 
ATOM     26  C   UNL     1      -5.812  12.540  21.430  0.00  0.00    +0.000 C 
ENDBRANCH  23  24
ENDBRANCH  21  23
ENDBRANCH   3  21
TORSDOF 4
ENDMDL
