MODEL 1
REMARK VINA RESULT:      -7.9      0.000      0.000
REMARK  Name = 
REMARK  5 active torsions:
REMARK  status: ('A' for Active; 'I' for Inactive)
REMARK    1  A    between atoms: C_1  and  C_2
REMARK    2  A    between atoms: C_2  and  C_3
REMARK    3  A    between atoms: C_6  and  C_7
REMARK    4  A    between atoms: N_21  and  C_22
REMARK    5  A    between atoms: C_22  and  C_23
REMARK                            x       y       z     vdW  Elec       q    Type
REMARK                         _______ _______ _______ _____ _____    ______ ____
ROOT
ATOM      1  C   UNL     1       6.290   4.670  17.746  0.00  0.00    +0.000 C 
ATOM      2  C   UNL     1       6.455   4.354  16.266  0.00  0.00    +0.000 A 
ATOM      3  N   UNL     1       7.526   4.763  15.509  0.00  0.00    +0.000 N 
ATOM      4  C   UNL     1       7.247   4.592  14.172  0.00  0.00    +0.000 A 
ATOM      5  C   UNL     1       7.985   4.975  13.047  0.00  0.00    +0.000 A 
ATOM      6  C   UNL     1       7.443   4.688  11.791  0.00  0.00    +0.000 A 
ATOM      7  C   UNL     1       6.209   4.051  11.669  0.00  0.00    +0.000 A 
ATOM      8  C   UNL     1       5.475   3.692  12.803  0.00  0.00    +0.000 A 
ATOM      9  C   UNL     1       6.002   3.967  14.079  0.00  0.00    +0.000 A 
ATOM     10  C   UNL     1       5.514   3.818  15.403  0.00  0.00    +0.000 A 
ATOM     11  C   UNL     1       4.184   3.357  15.890  0.00  0.00    +0.000 C 
ATOM     12  C   UNL     1       4.253   3.205  17.408  0.00  0.00    +0.000 C 
ATOM     13  C   UNL     1       2.889   3.224  18.060  0.00  0.00    +0.000 C 
ATOM     14  O   UNL     1       1.953   2.500  17.745  0.00  0.00    +0.000 OA
ATOM     15  N   UNL     1       2.911   4.146  19.068  0.00  0.00    +0.000 N 
ATOM     16  C   UNL     1       4.139   4.761  19.149  0.00  0.00    +0.000 C 
ATOM     17  O   UNL     1       4.490   5.545  20.018  0.00  0.00    +0.000 OA
ATOM     18  N   UNL     1       4.891   4.347  18.064  0.00  0.00    +0.000 N 
ATOM     19  H   UNL     1       8.326   5.271  15.864  0.00  0.00    +0.000 HD
ENDROOT
BRANCH   1  23
ATOM     20  C   UNL     1       7.988   8.179  18.236  0.00  0.00    +0.000 A 
ATOM     21  C   UNL     1       6.961   8.367  17.334  0.00  0.00    +0.000 A 
ATOM     22  C   UNL     1       6.153   7.204  17.183  0.00  0.00    +0.000 A 
ATOM     23  C   UNL     1       6.631   6.134  17.911  0.00  0.00    +0.000 A 
ATOM     24  S   UNL     1       7.947   6.603  18.911  0.00  0.00    +0.000 S 
BRANCH  20  26
ATOM     25  C   UNL     1       8.755  10.571  18.150  0.00  0.00    +0.000 C 
ATOM     26  C   UNL     1       9.048   9.161  18.646  0.00  0.00    +0.000 C 
ENDBRANCH  20  26
ENDBRANCH   1  23
BRANCH  15  27
ATOM     27  C   UNL     1       1.756   4.462  19.885  0.00  0.00    +0.000 C 
ATOM     28  C   UNL     1       1.605   3.547  21.088  0.00  0.00    +0.000 C 
ENDBRANCH  15  27
TORSDOF 3
ENDMDL
MODEL 2
REMARK VINA RESULT:      -6.7      9.054     12.687
REMARK  Name = 
REMARK  5 active torsions:
REMARK  status: ('A' for Active; 'I' for Inactive)
REMARK    1  A    between atoms: C_1  and  C_2
REMARK    2  A    between atoms: C_2  and  C_3
REMARK    3  A    between atoms: C_6  and  C_7
REMARK    4  A    between atoms: N_21  and  C_22
REMARK    5  A    between atoms: C_22  and  C_23
REMARK                            x       y       z     vdW  Elec       q    Type
REMARK                         _______ _______ _______ _____ _____    ______ ____
ROOT
ATOM      1  C   UNL     1       0.637  11.883  20.751  0.00  0.00    +0.000 C 
ATOM      2  C   UNL     1      -0.275  12.374  21.868  0.00  0.00    +0.000 A 
ATOM      3  N   UNL     1      -1.304  11.634  22.399  0.00  0.00    +0.000 N 
ATOM      4  C   UNL     1      -2.119  12.444  23.157  0.00  0.00    +0.000 A 
ATOM      5  C   UNL     1      -3.336  12.154  23.782  0.00  0.00    +0.000 A 
ATOM      6  C   UNL     1      -3.965  13.189  24.480  0.00  0.00    +0.000 A 
ATOM      7  C   UNL     1      -3.401  14.463  24.541  0.00  0.00    +0.000 A 
ATOM      8  C   UNL     1      -2.193  14.741  23.894  0.00  0.00    +0.000 A 
ATOM      9  C   UNL     1      -1.538  13.713  23.188  0.00  0.00    +0.000 A 
ATOM     10  C   UNL     1      -0.376  13.658  22.377  0.00  0.00    +0.000 A 
ATOM     11  C   UNL     1       0.539  14.746  21.935  0.00  0.00    +0.000 C 
ATOM     12  C   UNL     1       1.738  14.111  21.233  0.00  0.00    +0.000 C 
ATOM     13  C   UNL     1       2.468  15.082  20.331  0.00  0.00    +0.000 C 
ATOM     14  O   UNL     1       2.891  16.177  20.679  0.00  0.00    +0.000 OA
ATOM     15  N   UNL     1       2.602  14.502  19.101  0.00  0.00    +0.000 N 
ATOM     16  C   UNL     1       2.024  13.254  19.077  0.00  0.00    +0.000 C 
ATOM     17  O   UNL     1       2.082  12.457  18.153  0.00  0.00    +0.000 OA
ATOM     18  N   UNL     1       1.352  13.076  20.273  0.00  0.00    +0.000 N 
ATOM     19  H   UNL     1      -1.530  10.684  22.136  0.00  0.00    +0.000 HD
ENDROOT
BRANCH   1  23
ATOM     20  C   UNL     1      -1.702  11.042  17.709  0.00  0.00    +0.000 A 
ATOM     21  C   UNL     1      -0.897   9.937  17.897  0.00  0.00    +0.000 A 
ATOM     22  C   UNL     1      -0.103  10.039  19.075  0.00  0.00    +0.000 A 
ATOM     23  C   UNL     1      -0.262  11.253  19.712  0.00  0.00    +0.000 A 
ATOM     24  S   UNL     1      -1.509  12.180  18.977  0.00  0.00    +0.000 S 
BRANCH  20  26
ATOM     25  C   UNL     1      -2.711  10.156  15.584  0.00  0.00    +0.000 C 
ATOM     26  C   UNL     1      -2.660  11.304  16.583  0.00  0.00    +0.000 C 
ENDBRANCH  20  26
ENDBRANCH   1  23
BRANCH  15  27
ATOM     27  C   UNL     1       3.220  15.165  17.970  0.00  0.00    +0.000 C 
ATOM     28  C   UNL     1       4.717  14.926  17.879  0.00  0.00    +0.000 C 
ENDBRANCH  15  27
TORSDOF 3
ENDMDL
MODEL 3
REMARK VINA RESULT:      -6.6      9.419     12.628
REMARK  Name = 
REMARK  5 active torsions:
REMARK  status: ('A' for Active; 'I' for Inactive)
REMARK    1  A    between atoms: C_1  and  C_2
REMARK    2  A    between atoms: C_2  and  C_3
REMARK    3  A    between atoms: C_6  and  C_7
REMARK    4  A    between atoms: N_21  and  C_22
REMARK    5  A    between atoms: C_22  and  C_23
REMARK                            x       y       z     vdW  Elec       q    Type
REMARK                         _______ _______ _______ _____ _____    ______ ____
ROOT
ATOM      1  C   UNL     1       0.902  12.128  20.208  0.00  0.00    +0.000 C 
ATOM      2  C   UNL     1       0.030  12.496  21.400  0.00  0.00    +0.000 A 
ATOM      3  N   UNL     1      -1.094  11.799  21.773  0.00  0.00    +0.000 N 
ATOM      4  C   UNL     1      -1.823  12.536  22.678  0.00  0.00    +0.000 A 
ATOM      5  C   UNL     1      -3.081  12.281  23.234  0.00  0.00    +0.000 A 
ATOM      6  C   UNL     1      -3.597  13.227  24.124  0.00  0.00    +0.000 A 
ATOM      7  C   UNL     1      -2.885  14.383  24.438  0.00  0.00    +0.000 A 
ATOM      8  C   UNL     1      -1.636  14.633  23.859  0.00  0.00    +0.000 A 
ATOM      9  C   UNL     1      -1.094  13.693  22.962  0.00  0.00    +0.000 A 
ATOM     10  C   UNL     1       0.073  13.656  22.156  0.00  0.00    +0.000 A 
ATOM     11  C   UNL     1       1.123  14.690  21.939  0.00  0.00    +0.000 C 
ATOM     12  C   UNL     1       2.253  14.064  21.124  0.00  0.00    +0.000 C 
ATOM     13  C   UNL     1       3.116  15.096  20.434  0.00  0.00    +0.000 C 
ATOM     14  O   UNL     1       3.659  16.040  20.992  0.00  0.00    +0.000 OA
ATOM     15  N   UNL     1       3.209  14.759  19.113  0.00  0.00    +0.000 N 
ATOM     16  C   UNL     1       2.484  13.622  18.840  0.00  0.00    +0.000 C 
ATOM     17  O   UNL     1       2.468  13.023  17.775  0.00  0.00    +0.000 OA
ATOM     18  N   UNL     1       1.768  13.295  19.977  0.00  0.00    +0.000 N 
ATOM     19  H   UNL     1      -1.426  10.955  21.326  0.00  0.00    +0.000 HD
ENDROOT
BRANCH   1  23
ATOM     20  C   UNL     1      -1.653  10.602  17.643  0.00  0.00    +0.000 A 
ATOM     21  C   UNL     1      -1.955  11.945  17.740  0.00  0.00    +0.000 A 
ATOM     22  C   UNL     1      -1.001  12.660  18.519  0.00  0.00    +0.000 A 
ATOM     23  C   UNL     1      -0.041  11.832  19.064  0.00  0.00    +0.000 A 
ATOM     24  S   UNL     1      -0.201  10.226  18.474  0.00  0.00    +0.000 S 
BRANCH  20  26
ATOM     25  C   UNL     1      -2.894   9.984  15.547  0.00  0.00    +0.000 C 
ATOM     26  C   UNL     1      -2.423   9.533  16.923  0.00  0.00    +0.000 C 
ENDBRANCH  20  26
ENDBRANCH   1  23
BRANCH  15  27
ATOM     27  C   UNL     1       3.929  15.552  18.136  0.00  0.00    +0.000 C 
ATOM     28  C   UNL     1       3.074  16.629  17.489  0.00  0.00    +0.000 C 
ENDBRANCH  15  27
TORSDOF 3
ENDMDL
MODEL 4
REMARK VINA RESULT:      -6.4      8.063     10.384
REMARK  Name = 
REMARK  5 active torsions:
REMARK  status: ('A' for Active; 'I' for Inactive)
REMARK    1  A    between atoms: C_1  and  C_2
REMARK    2  A    between atoms: C_2  and  C_3
REMARK    3  A    between atoms: C_6  and  C_7
REMARK    4  A    between atoms: N_21  and  C_22
REMARK    5  A    between atoms: C_22  and  C_23
REMARK                            x       y       z     vdW  Elec       q    Type
REMARK                         _______ _______ _______ _____ _____    ______ ____
ROOT
ATOM      1  C   UNL     1      -1.175  11.577  18.715  0.00  0.00    +0.000 C 
ATOM      2  C   UNL     1      -0.055  10.556  18.864  0.00  0.00    +0.000 A 
ATOM      3  N   UNL     1       0.494   9.861  17.813  0.00  0.00    +0.000 N 
ATOM      4  C   UNL     1       1.251   8.815  18.289  0.00  0.00    +0.000 A 
ATOM      5  C   UNL     1       1.891   7.784  17.594  0.00  0.00    +0.000 A 
ATOM      6  C   UNL     1       2.584   6.831  18.346  0.00  0.00    +0.000 A 
ATOM      7  C   UNL     1       2.626   6.905  19.737  0.00  0.00    +0.000 A 
ATOM      8  C   UNL     1       1.965   7.931  20.418  0.00  0.00    +0.000 A 
ATOM      9  C   UNL     1       1.264   8.905  19.683  0.00  0.00    +0.000 A 
ATOM     10  C   UNL     1       0.442  10.007  20.034  0.00  0.00    +0.000 A 
ATOM     11  C   UNL     1      -0.021  10.472  21.371  0.00  0.00    +0.000 C 
ATOM     12  C   UNL     1      -0.727  11.815  21.196  0.00  0.00    +0.000 C 
ATOM     13  C   UNL     1      -1.645  12.146  22.351  0.00  0.00    +0.000 C 
ATOM     14  O   UNL     1      -1.314  12.153  23.529  0.00  0.00    +0.000 OA
ATOM     15  N   UNL     1      -2.870  12.472  21.840  0.00  0.00    +0.000 N 
ATOM     16  C   UNL     1      -2.877  12.376  20.468  0.00  0.00    +0.000 C 
ATOM     17  O   UNL     1      -3.793  12.709  19.732  0.00  0.00    +0.000 OA
ATOM     18  N   UNL     1      -1.672  11.818  20.079  0.00  0.00    +0.000 N 
ATOM     19  H   UNL     1       0.243   9.987  16.841  0.00  0.00    +0.000 HD
ENDROOT
BRANCH   1  23
ATOM     20  C   UNL     1      -3.315  10.263  15.695  0.00  0.00    +0.000 A 
ATOM     21  C   UNL     1      -3.398   9.299  16.678  0.00  0.00    +0.000 A 
ATOM     22  C   UNL     1      -2.797   9.717  17.899  0.00  0.00    +0.000 A 
ATOM     23  C   UNL     1      -2.199  10.956  17.793  0.00  0.00    +0.000 A 
ATOM     24  S   UNL     1      -2.533  11.677  16.269  0.00  0.00    +0.000 S 
BRANCH  20  26
ATOM     25  C   UNL     1      -2.787   9.593  13.330  0.00  0.00    +0.000 C 
ATOM     26  C   UNL     1      -3.818  10.186  14.282  0.00  0.00    +0.000 C 
ENDBRANCH  20  26
ENDBRANCH   1  23
BRANCH  15  27
ATOM     27  C   UNL     1      -4.014  12.807  22.665  0.00  0.00    +0.000 C 
ATOM     28  C   UNL     1      -4.125  14.292  22.962  0.00  0.00    +0.000 C 
ENDBRANCH  15  27
TORSDOF 3
ENDMDL
MODEL 5
REMARK VINA RESULT:      -6.3      9.746     12.412
REMARK  Name = 
REMARK  5 active torsions:
REMARK  status: ('A' for Active; 'I' for Inactive)
REMARK    1  A    between atoms: C_1  and  C_2
REMARK    2  A    between atoms: C_2  and  C_3
REMARK    3  A    between atoms: C_6  and  C_7
REMARK    4  A    between atoms: N_21  and  C_22
REMARK    5  A    between atoms: C_22  and  C_23
REMARK                            x       y       z     vdW  Elec       q    Type
REMARK                         _______ _______ _______ _____ _____    ______ ____
ROOT
ATOM      1  C   UNL     1      -1.728  13.027  20.523  0.00  0.00    +0.000 C 
ATOM      2  C   UNL     1      -3.059  12.912  19.793  0.00  0.00    +0.000 A 
ATOM      3  N   UNL     1      -4.168  13.664  20.095  0.00  0.00    +0.000 N 
ATOM      4  C   UNL     1      -5.279  13.129  19.484  0.00  0.00    +0.000 A 
ATOM      5  C   UNL     1      -6.626  13.486  19.602  0.00  0.00    +0.000 A 
ATOM      6  C   UNL     1      -7.556  12.745  18.868  0.00  0.00    +0.000 A 
ATOM      7  C   UNL     1      -7.154  11.685  18.057  0.00  0.00    +0.000 A 
ATOM      8  C   UNL     1      -5.805  11.328  17.965  0.00  0.00    +0.000 A 
ATOM      9  C   UNL     1      -4.849  12.062  18.692  0.00  0.00    +0.000 A 
ATOM     10  C   UNL     1      -3.449  11.937  18.890  0.00  0.00    +0.000 A 
ATOM     11  C   UNL     1      -2.503  10.888  18.418  0.00  0.00    +0.000 C 
ATOM     12  C   UNL     1      -1.082  11.336  18.753  0.00  0.00    +0.000 C 
ATOM     13  C   UNL     1      -0.098  10.188  18.779  0.00  0.00    +0.000 C 
ATOM     14  O   UNL     1       0.065   9.386  17.869  0.00  0.00    +0.000 OA
ATOM     15  N   UNL     1       0.587  10.241  19.960  0.00  0.00    +0.000 N 
ATOM     16  C   UNL     1       0.154  11.290  20.737  0.00  0.00    +0.000 C 
ATOM     17  O   UNL     1       0.652  11.652  21.792  0.00  0.00    +0.000 OA
ATOM     18  N   UNL     1      -0.953  11.844  20.119  0.00  0.00    +0.000 N 
ATOM     19  H   UNL     1      -4.200  14.394  20.796  0.00  0.00    +0.000 HD
ENDROOT
BRANCH   1  23
ATOM     20  C   UNL     1      -2.716  13.979  24.204  0.00  0.00    +0.000 A 
ATOM     21  C   UNL     1      -3.238  12.722  23.975  0.00  0.00    +0.000 A 
ATOM     22  C   UNL     1      -2.818  12.181  22.726  0.00  0.00    +0.000 A 
ATOM     23  C   UNL     1      -2.053  13.070  21.999  0.00  0.00    +0.000 A 
ATOM     24  S   UNL     1      -1.700  14.479  22.917  0.00  0.00    +0.000 S 
BRANCH  20  26
ATOM     25  C   UNL     1      -1.646  15.489  25.905  0.00  0.00    +0.000 C 
ATOM     26  C   UNL     1      -2.939  14.867  25.394  0.00  0.00    +0.000 C 
ENDBRANCH  20  26
ENDBRANCH   1  23
BRANCH  15  27
ATOM     27  C   UNL     1       1.587   9.265  20.346  0.00  0.00    +0.000 C 
ATOM     28  C   UNL     1       1.042   8.173  21.250  0.00  0.00    +0.000 C 
ENDBRANCH  15  27
TORSDOF 3
ENDMDL
MODEL 6
REMARK VINA RESULT:      -6.3      9.961     11.521
REMARK  Name = 
REMARK  5 active torsions:
REMARK  status: ('A' for Active; 'I' for Inactive)
REMARK    1  A    between atoms: C_1  and  C_2
REMARK    2  A    between atoms: C_2  and  C_3
REMARK    3  A    between atoms: C_6  and  C_7
REMARK    4  A    between atoms: N_21  and  C_22
REMARK    5  A    between atoms: C_22  and  C_23
REMARK                            x       y       z     vdW  Elec       q    Type
REMARK                         _______ _______ _______ _____ _____    ______ ____
ROOT
ATOM      1  C   UNL     1      -0.008  12.373  20.371  0.00  0.00    +0.000 C 
ATOM      2  C   UNL     1      -1.124  11.874  19.465  0.00  0.00    +0.000 A 
ATOM      3  N   UNL     1      -0.931  11.442  18.175  0.00  0.00    +0.000 N 
ATOM      4  C   UNL     1      -2.141  11.347  17.526  0.00  0.00    +0.000 A 
ATOM      5  C   UNL     1      -2.417  11.066  16.185  0.00  0.00    +0.000 A 
ATOM      6  C   UNL     1      -3.758  11.054  15.791  0.00  0.00    +0.000 A 
ATOM      7  C   UNL     1      -4.778  11.322  16.703  0.00  0.00    +0.000 A 
ATOM      8  C   UNL     1      -4.484  11.621  18.037  0.00  0.00    +0.000 A 
ATOM      9  C   UNL     1      -3.140  11.634  18.458  0.00  0.00    +0.000 A 
ATOM     10  C   UNL     1      -2.490  11.960  19.676  0.00  0.00    +0.000 A 
ATOM     11  C   UNL     1      -3.050  12.487  20.952  0.00  0.00    +0.000 C 
ATOM     12  C   UNL     1      -1.941  12.481  22.003  0.00  0.00    +0.000 C 
ATOM     13  C   UNL     1      -2.225  13.417  23.156  0.00  0.00    +0.000 C 
ATOM     14  O   UNL     1      -3.249  13.410  23.826  0.00  0.00    +0.000 OA
ATOM     15  N   UNL     1      -1.133  14.219  23.332  0.00  0.00    +0.000 N 
ATOM     16  C   UNL     1      -0.155  13.935  22.408  0.00  0.00    +0.000 C 
ATOM     17  O   UNL     1       0.970  14.410  22.387  0.00  0.00    +0.000 OA
ATOM     18  N   UNL     1      -0.681  13.032  21.501  0.00  0.00    +0.000 N 
ATOM     19  H   UNL     1      -0.031  11.371  17.717  0.00  0.00    +0.000 HD
ENDROOT
BRANCH   1  23
ATOM     20  C   UNL     1       1.723  15.419  18.593  0.00  0.00    +0.000 A 
ATOM     21  C   UNL     1       2.713  14.484  18.813  0.00  0.00    +0.000 A 
ATOM     22  C   UNL     1       2.196  13.254  19.310  0.00  0.00    +0.000 A 
ATOM     23  C   UNL     1       0.836  13.308  19.534  0.00  0.00    +0.000 A 
ATOM     24  S   UNL     1       0.173  14.789  18.966  0.00  0.00    +0.000 S 
BRANCH  20  26
ATOM     25  C   UNL     1       2.968  16.947  17.033  0.00  0.00    +0.000 C 
ATOM     26  C   UNL     1       1.877  16.826  18.090  0.00  0.00    +0.000 C 
ENDBRANCH  20  26
ENDBRANCH   1  23
BRANCH  15  27
ATOM     27  C   UNL     1      -1.068  15.270  24.329  0.00  0.00    +0.000 C 
ATOM     28  C   UNL     1      -1.580  16.608  23.824  0.00  0.00    +0.000 C 
ENDBRANCH  15  27
TORSDOF 3
ENDMDL
MODEL 7
REMARK VINA RESULT:      -6.3      3.239      5.939
REMARK  Name = 
REMARK  5 active torsions:
REMARK  status: ('A' for Active; 'I' for Inactive)
REMARK    1  A    between atoms: C_1  and  C_2
REMARK    2  A    between atoms: C_2  and  C_3
REMARK    3  A    between atoms: C_6  and  C_7
REMARK    4  A    between atoms: N_21  and  C_22
REMARK    5  A    between atoms: C_22  and  C_23
REMARK                            x       y       z     vdW  Elec       q    Type
REMARK                         _______ _______ _______ _____ _____    ______ ____
ROOT
ATOM      1  C   UNL     1       2.931   5.486  17.854  0.00  0.00    +0.000 C 
ATOM      2  C   UNL     1       2.209   6.686  18.451  0.00  0.00    +0.000 A 
ATOM      3  N   UNL     1       2.075   7.896  17.816  0.00  0.00    +0.000 N 
ATOM      4  C   UNL     1       1.653   8.852  18.712  0.00  0.00    +0.000 A 
ATOM      5  C   UNL     1       1.498  10.231  18.543  0.00  0.00    +0.000 A 
ATOM      6  C   UNL     1       1.068  10.973  19.647  0.00  0.00    +0.000 A 
ATOM      7  C   UNL     1       0.812  10.357  20.871  0.00  0.00    +0.000 A 
ATOM      8  C   UNL     1       0.991   8.980  21.029  0.00  0.00    +0.000 A 
ATOM      9  C   UNL     1       1.420   8.211  19.930  0.00  0.00    +0.000 A 
ATOM     10  C   UNL     1       1.768   6.847  19.755  0.00  0.00    +0.000 A 
ATOM     11  C   UNL     1       1.860   5.744  20.751  0.00  0.00    +0.000 C 
ATOM     12  C   UNL     1       2.093   4.435  19.999  0.00  0.00    +0.000 C 
ATOM     13  C   UNL     1       2.679   3.353  20.878  0.00  0.00    +0.000 C 
ATOM     14  O   UNL     1       2.206   2.985  21.945  0.00  0.00    +0.000 OA
ATOM     15  N   UNL     1       3.783   2.846  20.250  0.00  0.00    +0.000 N 
ATOM     16  C   UNL     1       4.009   3.485  19.054  0.00  0.00    +0.000 C 
ATOM     17  O   UNL     1       4.853   3.176  18.226  0.00  0.00    +0.000 OA
ATOM     18  N   UNL     1       3.127   4.548  18.969  0.00  0.00    +0.000 N 
ATOM     19  H   UNL     1       2.400   8.097  16.879  0.00  0.00    +0.000 HD
ENDROOT
BRANCH   1  23
ATOM     20  C   UNL     1       6.571   6.782  17.142  0.00  0.00    +0.000 A 
ATOM     21  C   UNL     1       6.202   6.036  16.041  0.00  0.00    +0.000 A 
ATOM     22  C   UNL     1       4.837   5.634  16.092  0.00  0.00    +0.000 A 
ATOM     23  C   UNL     1       4.221   6.014  17.267  0.00  0.00    +0.000 A 
ATOM     24  S   UNL     1       5.252   7.011  18.213  0.00  0.00    +0.000 S 
BRANCH  20  26
ATOM     25  C   UNL     1       7.840   8.841  17.827  0.00  0.00    +0.000 C 
ATOM     26  C   UNL     1       7.919   7.367  17.450  0.00  0.00    +0.000 C 
ENDBRANCH  20  26
ENDBRANCH   1  23
BRANCH  15  27
ATOM     27  C   UNL     1       4.623   1.815  20.825  0.00  0.00    +0.000 C 
ATOM     28  C   UNL     1       4.832   0.627  19.902  0.00  0.00    +0.000 C 
ENDBRANCH  15  27
TORSDOF 3
ENDMDL
MODEL 8
REMARK VINA RESULT:      -6.3     10.101     11.967
REMARK  Name = 
REMARK  5 active torsions:
REMARK  status: ('A' for Active; 'I' for Inactive)
REMARK    1  A    between atoms: C_1  and  C_2
REMARK    2  A    between atoms: C_2  and  C_3
REMARK    3  A    between atoms: C_6  and  C_7
REMARK    4  A    between atoms: N_21  and  C_22
REMARK    5  A    between atoms: C_22  and  C_23
REMARK                            x       y       z     vdW  Elec       q    Type
REMARK                         _______ _______ _______ _____ _____    ______ ____
ROOT
ATOM      1  C   UNL     1      -0.656  12.737  21.185  0.00  0.00    +0.000 C 
ATOM      2  C   UNL     1      -1.650  12.181  20.175  0.00  0.00    +0.000 A 
ATOM      3  N   UNL     1      -1.296  11.673  18.949  0.00  0.00    +0.000 N 
ATOM      4  C   UNL     1      -2.414  11.537  18.158  0.00  0.00    +0.000 A 
ATOM      5  C   UNL     1      -2.518  11.174  16.811  0.00  0.00    +0.000 A 
ATOM      6  C   UNL     1      -3.798  11.136  16.251  0.00  0.00    +0.000 A 
ATOM      7  C   UNL     1      -4.924  11.456  17.007  0.00  0.00    +0.000 A 
ATOM      8  C   UNL     1      -4.801  11.835  18.347  0.00  0.00    +0.000 A 
ATOM      9  C   UNL     1      -3.523  11.877  18.935  0.00  0.00    +0.000 A 
ATOM     10  C   UNL     1      -3.032  12.277  20.205  0.00  0.00    +0.000 A 
ATOM     11  C   UNL     1      -3.747  12.878  21.365  0.00  0.00    +0.000 C 
ATOM     12  C   UNL     1      -2.781  12.939  22.547  0.00  0.00    +0.000 C 
ATOM     13  C   UNL     1      -3.205  13.942  23.596  0.00  0.00    +0.000 C 
ATOM     14  O   UNL     1      -4.306  13.973  24.129  0.00  0.00    +0.000 OA
ATOM     15  N   UNL     1      -2.140  14.756  23.862  0.00  0.00    +0.000 N 
ATOM     16  C   UNL     1      -1.053  14.418  23.089  0.00  0.00    +0.000 C 
ATOM     17  O   UNL     1       0.068  14.894  23.183  0.00  0.00    +0.000 OA
ATOM     18  N   UNL     1      -1.465  13.461  22.178  0.00  0.00    +0.000 N 
ATOM     19  H   UNL     1      -0.346  11.576  18.615  0.00  0.00    +0.000 HD
ENDROOT
BRANCH   1  23
ATOM     20  C   UNL     1       2.172  14.283  18.938  0.00  0.00    +0.000 A 
ATOM     21  C   UNL     1       1.048  15.058  18.736  0.00  0.00    +0.000 A 
ATOM     22  C   UNL     1      -0.017  14.708  19.614  0.00  0.00    +0.000 A 
ATOM     23  C   UNL     1       0.293  13.622  20.408  0.00  0.00    +0.000 A 
ATOM     24  S   UNL     1       1.935  13.157  20.209  0.00  0.00    +0.000 S 
BRANCH  20  26
ATOM     25  C   UNL     1       3.652  15.649  17.435  0.00  0.00    +0.000 C 
ATOM     26  C   UNL     1       3.480  14.345  18.203  0.00  0.00    +0.000 C 
ENDBRANCH  20  26
ENDBRANCH   1  23
BRANCH  15  27
ATOM     27  C   UNL     1      -2.197  15.865  24.793  0.00  0.00    +0.000 C 
ATOM     28  C   UNL     1      -1.511  15.572  26.117  0.00  0.00    +0.000 C 
ENDBRANCH  15  27
TORSDOF 3
ENDMDL
MODEL 9
REMARK VINA RESULT:      -6.0      9.792     12.062
REMARK  Name = 
REMARK  5 active torsions:
REMARK  status: ('A' for Active; 'I' for Inactive)
REMARK    1  A    between atoms: C_1  and  C_2
REMARK    2  A    between atoms: C_2  and  C_3
REMARK    3  A    between atoms: C_6  and  C_7
REMARK    4  A    between atoms: N_21  and  C_22
REMARK    5  A    between atoms: C_22  and  C_23
REMARK                            x       y       z     vdW  Elec       q    Type
REMARK                         _______ _______ _______ _____ _____    ______ ____
ROOT
ATOM      1  C   UNL     1      -0.783  14.203  20.553  0.00  0.00    +0.000 C 
ATOM      2  C   UNL     1      -1.382  13.290  19.492  0.00  0.00    +0.000 A 
ATOM      3  N   UNL     1      -2.704  12.915  19.460  0.00  0.00    +0.000 N 
ATOM      4  C   UNL     1      -2.872  11.866  18.586  0.00  0.00    +0.000 A 
ATOM      5  C   UNL     1      -4.007  11.093  18.323  0.00  0.00    +0.000 A 
ATOM      6  C   UNL     1      -3.884  10.063  17.386  0.00  0.00    +0.000 A 
ATOM      7  C   UNL     1      -2.671   9.814  16.746  0.00  0.00    +0.000 A 
ATOM      8  C   UNL     1      -1.540  10.585  17.034  0.00  0.00    +0.000 A 
ATOM      9  C   UNL     1      -1.640  11.630  17.971  0.00  0.00    +0.000 A 
ATOM     10  C   UNL     1      -0.710  12.535  18.546  0.00  0.00    +0.000 A 
ATOM     11  C   UNL     1       0.767  12.628  18.379  0.00  0.00    +0.000 C 
ATOM     12  C   UNL     1       1.250  13.899  19.074  0.00  0.00    +0.000 C 
ATOM     13  C   UNL     1       2.726  13.861  19.400  0.00  0.00    +0.000 C 
ATOM     14  O   UNL     1       3.615  13.626  18.592  0.00  0.00    +0.000 OA
ATOM     15  N   UNL     1       2.879  14.176  20.721  0.00  0.00    +0.000 N 
ATOM     16  C   UNL     1       1.662  14.402  21.320  0.00  0.00    +0.000 C 
ATOM     17  O   UNL     1       1.490  14.807  22.460  0.00  0.00    +0.000 OA
ATOM     18  N   UNL     1       0.675  14.070  20.409  0.00  0.00    +0.000 N 
ATOM     19  H   UNL     1      -3.413  13.239  20.105  0.00  0.00    +0.000 HD
ENDROOT
BRANCH   1  23
ATOM     20  C   UNL     1      -2.877  13.359  23.767  0.00  0.00    +0.000 A 
ATOM     21  C   UNL     1      -2.120  12.239  23.492  0.00  0.00    +0.000 A 
ATOM     22  C   UNL     1      -1.187  12.461  22.439  0.00  0.00    +0.000 A 
ATOM     23  C   UNL     1      -1.312  13.718  21.883  0.00  0.00    +0.000 A 
ATOM     24  S   UNL     1      -2.432  14.677  22.765  0.00  0.00    +0.000 S 
BRANCH  20  26
ATOM     25  C   UNL     1      -4.866  12.282  24.865  0.00  0.00    +0.000 C 
ATOM     26  C   UNL     1      -3.964  13.508  24.792  0.00  0.00    +0.000 C 
ENDBRANCH  20  26
ENDBRANCH   1  23
BRANCH  15  27
ATOM     27  C   UNL     1       4.164  14.197  21.391  0.00  0.00    +0.000 C 
ATOM     28  C   UNL     1       4.843  15.555  21.345  0.00  0.00    +0.000 C 
ENDBRANCH  15  27
TORSDOF 3
ENDMDL
