MODEL 1
REMARK VINA RESULT:      -7.4      0.000      0.000
REMARK  Name = 
REMARK  4 active torsions:
REMARK  status: ('A' for Active; 'I' for Inactive)
REMARK    1  A    between atoms: C_2  and  C_3
REMARK    2  A    between atoms: C_4  and  C_5
REMARK    3  A    between atoms: C_16  and  C_17
REMARK    4  A    between atoms: C_24  and  C_25
REMARK                            x       y       z     vdW  Elec       q    Type
REMARK                         _______ _______ _______ _____ _____    ______ ____
ROOT
ATOM      1  C   UNL     1       1.305   8.971  19.716  0.00  0.00    +0.000 A 
ATOM      2  C   UNL     1       1.484   7.844  20.541  0.00  0.00    +0.000 A 
ATOM      3  N   UNL     1       1.139   7.832  21.850  0.00  0.00    +0.000 NA
ATOM      4  C   UNL     1       0.536   8.946  22.289  0.00  0.00    +0.000 A 
ATOM      5  N   UNL     1       0.138   9.149  23.573  0.00  0.00    +0.000 N 
ATOM      6  N   UNL     1      -0.495  10.309  23.769  0.00  0.00    +0.000 NA
ATOM      7  C   UNL     1      -0.508  10.899  22.563  0.00  0.00    +0.000 A 
ATOM      8  C   UNL     1       0.198  10.091  21.578  0.00  0.00    +0.000 A 
ATOM      9  C   UNL     1       0.622  10.132  20.208  0.00  0.00    +0.000 A 
ATOM     10  H   UNL     1       0.276   8.522  24.356  0.00  0.00    +0.000 HD
ENDROOT
BRANCH   2  11
ATOM     11  C   UNL     1       2.050   6.546  20.074  0.00  0.00    +0.000 A 
ATOM     12  C   UNL     1       1.388   5.331  20.343  0.00  0.00    +0.000 A 
ATOM     13  C   UNL     1       1.911   4.100  19.922  0.00  0.00    +0.000 A 
ATOM     14  C   UNL     1       3.116   4.061  19.226  0.00  0.00    +0.000 A 
ATOM     15 CL   UNL     1       3.779   2.554  18.732  0.00  0.00    +0.000 Cl
ATOM     16  C   UNL     1       3.782   5.242  18.923  0.00  0.00    +0.000 A 
ATOM     17  C   UNL     1       3.239   6.469  19.318  0.00  0.00    +0.000 A 
ENDBRANCH   2  11
BRANCH   7  18
ATOM     18  C   UNL     1      -1.142  12.220  22.435  0.00  0.00    +0.000 A 
ATOM     19  C   UNL     1      -0.351  13.363  22.218  0.00  0.00    +0.000 A 
ATOM     20  C   UNL     1      -0.942  14.586  21.884  0.00  0.00    +0.000 A 
ATOM     21  C   UNL     1      -2.327  14.678  21.768  0.00  0.00    +0.000 A 
ATOM     22  C   UNL     1      -3.121  13.579  22.083  0.00  0.00    +0.000 A 
ATOM     23  C   UNL     1      -2.530  12.367  22.456  0.00  0.00    +0.000 A 
ENDBRANCH   7  18
BRANCH   9  24
ATOM     24  C   UNL     1       0.355  11.306  19.346  0.00  0.00    +0.000 A 
ATOM     25  C   UNL     1       1.327  12.292  19.118  0.00  0.00    +0.000 A 
ATOM     26  C   UNL     1       1.023  13.458  18.404  0.00  0.00    +0.000 A 
ATOM     27  C   UNL     1      -0.230  13.621  17.823  0.00  0.00    +0.000 A 
ATOM     28  C   UNL     1      -1.180  12.617  17.951  0.00  0.00    +0.000 A 
ATOM     29  C   UNL     1      -0.900  11.490  18.729  0.00  0.00    +0.000 A 
ENDBRANCH   9  24
BRANCH   1  31
ATOM     30  N   UNL     1       2.303   9.028  17.316  0.00  0.00    +0.000 NA
ATOM     31  C   UNL     1       1.859   8.967  18.392  0.00  0.00    +0.000 C 
ENDBRANCH   1  31
TORSDOF 4
ENDMDL
MODEL 2
REMARK VINA RESULT:      -7.1      0.234      1.264
REMARK  Name = 
REMARK  4 active torsions:
REMARK  status: ('A' for Active; 'I' for Inactive)
REMARK    1  A    between atoms: C_2  and  C_3
REMARK    2  A    between atoms: C_4  and  C_5
REMARK    3  A    between atoms: C_16  and  C_17
REMARK    4  A    between atoms: C_24  and  C_25
REMARK                            x       y       z     vdW  Elec       q    Type
REMARK                         _______ _______ _______ _____ _____    ______ ____
ROOT
ATOM      1  C   UNL     1       1.307   8.973  19.702  0.00  0.00    +0.000 A 
ATOM      2  C   UNL     1       1.484   7.838  20.515  0.00  0.00    +0.000 A 
ATOM      3  N   UNL     1       1.142   7.815  21.825  0.00  0.00    +0.000 NA
ATOM      4  C   UNL     1       0.543   8.928  22.276  0.00  0.00    +0.000 A 
ATOM      5  N   UNL     1       0.149   9.120  23.563  0.00  0.00    +0.000 N 
ATOM      6  N   UNL     1      -0.480  10.279  23.771  0.00  0.00    +0.000 NA
ATOM      7  C   UNL     1      -0.494  10.881  22.570  0.00  0.00    +0.000 A 
ATOM      8  C   UNL     1       0.207  10.080  21.576  0.00  0.00    +0.000 A 
ATOM      9  C   UNL     1       0.628  10.131  20.205  0.00  0.00    +0.000 A 
ATOM     10  H   UNL     1       0.286   8.485  24.339  0.00  0.00    +0.000 HD
ENDROOT
BRANCH   2  11
ATOM     11  C   UNL     1       2.045   6.543  20.036  0.00  0.00    +0.000 A 
ATOM     12  C   UNL     1       3.247   6.505  19.301  0.00  0.00    +0.000 A 
ATOM     13  C   UNL     1       3.785   5.299  18.832  0.00  0.00    +0.000 A 
ATOM     14  C   UNL     1       3.124   4.100  19.086  0.00  0.00    +0.000 A 
ATOM     15 CL   UNL     1       3.761   2.619  18.491  0.00  0.00    +0.000 Cl
ATOM     16  C   UNL     1       1.951   4.099  19.830  0.00  0.00    +0.000 A 
ATOM     17  C   UNL     1       1.436   5.303  20.321  0.00  0.00    +0.000 A 
ENDBRANCH   2  11
BRANCH   7  18
ATOM     18  C   UNL     1      -1.125  12.204  22.456  0.00  0.00    +0.000 A 
ATOM     19  C   UNL     1      -2.516  12.338  22.615  0.00  0.00    +0.000 A 
ATOM     20  C   UNL     1      -3.103  13.603  22.721  0.00  0.00    +0.000 A 
ATOM     21  C   UNL     1      -2.307  14.745  22.664  0.00  0.00    +0.000 A 
ATOM     22  C   UNL     1      -0.944  14.623  22.402  0.00  0.00    +0.000 A 
ATOM     23  C   UNL     1      -0.365  13.359  22.256  0.00  0.00    +0.000 A 
ENDBRANCH   7  18
BRANCH   9  24
ATOM     24  C   UNL     1       0.363  11.315  19.356  0.00  0.00    +0.000 A 
ATOM     25  C   UNL     1       1.333  12.306  19.144  0.00  0.00    +0.000 A 
ATOM     26  C   UNL     1       1.029  13.479  18.441  0.00  0.00    +0.000 A 
ATOM     27  C   UNL     1      -0.221  13.645  17.854  0.00  0.00    +0.000 A 
ATOM     28  C   UNL     1      -1.168  12.636  17.965  0.00  0.00    +0.000 A 
ATOM     29  C   UNL     1      -0.889  11.501  18.732  0.00  0.00    +0.000 A 
ENDBRANCH   9  24
BRANCH   1  31
ATOM     30  N   UNL     1       2.307   9.050  17.303  0.00  0.00    +0.000 NA
ATOM     31  C   UNL     1       1.858   8.980  18.376  0.00  0.00    +0.000 C 
ENDBRANCH   1  31
TORSDOF 4
ENDMDL
MODEL 3
REMARK VINA RESULT:      -7.0      0.169      1.251
REMARK  Name = 
REMARK  4 active torsions:
REMARK  status: ('A' for Active; 'I' for Inactive)
REMARK    1  A    between atoms: C_2  and  C_3
REMARK    2  A    between atoms: C_4  and  C_5
REMARK    3  A    between atoms: C_16  and  C_17
REMARK    4  A    between atoms: C_24  and  C_25
REMARK                            x       y       z     vdW  Elec       q    Type
REMARK                         _______ _______ _______ _____ _____    ______ ____
ROOT
ATOM      1  C   UNL     1       1.264   9.052  19.734  0.00  0.00    +0.000 A 
ATOM      2  C   UNL     1       1.475   7.908  20.527  0.00  0.00    +0.000 A 
ATOM      3  N   UNL     1       1.153   7.858  21.841  0.00  0.00    +0.000 NA
ATOM      4  C   UNL     1       0.538   8.951  22.317  0.00  0.00    +0.000 A 
ATOM      5  N   UNL     1       0.158   9.115  23.612  0.00  0.00    +0.000 N 
ATOM      6  N   UNL     1      -0.491  10.259  23.848  0.00  0.00    +0.000 NA
ATOM      7  C   UNL     1      -0.533  10.878  22.657  0.00  0.00    +0.000 A 
ATOM      8  C   UNL     1       0.170  10.107  21.641  0.00  0.00    +0.000 A 
ATOM      9  C   UNL     1       0.570  10.189  20.265  0.00  0.00    +0.000 A 
ATOM     10  H   UNL     1       0.319   8.471  24.377  0.00  0.00    +0.000 HD
ENDROOT
BRANCH   2  11
ATOM     11  C   UNL     1       2.055   6.633  20.019  0.00  0.00    +0.000 A 
ATOM     12  C   UNL     1       3.224   6.634  19.231  0.00  0.00    +0.000 A 
ATOM     13  C   UNL     1       3.778   5.445  18.735  0.00  0.00    +0.000 A 
ATOM     14  C   UNL     1       3.167   4.227  19.016  0.00  0.00    +0.000 A 
ATOM     15 CL   UNL     1       3.823   2.767  18.388  0.00  0.00    +0.000 Cl
ATOM     16  C   UNL     1       2.029   4.187  19.811  0.00  0.00    +0.000 A 
ATOM     17  C   UNL     1       1.499   5.373  20.328  0.00  0.00    +0.000 A 
ENDBRANCH   2  11
BRANCH   7  18
ATOM     18  C   UNL     1      -1.191  12.191  22.572  0.00  0.00    +0.000 A 
ATOM     19  C   UNL     1      -0.428  13.347  22.328  0.00  0.00    +0.000 A 
ATOM     20  C   UNL     1      -1.052  14.564  22.034  0.00  0.00    +0.000 A 
ATOM     21  C   UNL     1      -2.442  14.638  21.987  0.00  0.00    +0.000 A 
ATOM     22  C   UNL     1      -3.204  13.524  22.330  0.00  0.00    +0.000 A 
ATOM     23  C   UNL     1      -2.579  12.317  22.662  0.00  0.00    +0.000 A 
ENDBRANCH   7  18
BRANCH   9  24
ATOM     24  C   UNL     1       0.270  11.380  19.438  0.00  0.00    +0.000 A 
ATOM     25  C   UNL     1      -0.974  11.551  18.812  0.00  0.00    +0.000 A 
ATOM     26  C   UNL     1      -1.202  12.618  17.933  0.00  0.00    +0.000 A 
ATOM     27  C   UNL     1      -0.226  13.588  17.735  0.00  0.00    +0.000 A 
ATOM     28  C   UNL     1       0.979  13.496  18.419  0.00  0.00    +0.000 A 
ATOM     29  C   UNL     1       1.233  12.389  19.234  0.00  0.00    +0.000 A 
ENDBRANCH   9  24
BRANCH   1  31
ATOM     30  N   UNL     1       2.178   9.158  17.302  0.00  0.00    +0.000 NA
ATOM     31  C   UNL     1       1.796   9.091  18.401  0.00  0.00    +0.000 C 
ENDBRANCH   1  31
TORSDOF 4
ENDMDL
MODEL 4
REMARK VINA RESULT:      -6.8      4.958      7.063
REMARK  Name = 
REMARK  4 active torsions:
REMARK  status: ('A' for Active; 'I' for Inactive)
REMARK    1  A    between atoms: C_2  and  C_3
REMARK    2  A    between atoms: C_4  and  C_5
REMARK    3  A    between atoms: C_16  and  C_17
REMARK    4  A    between atoms: C_24  and  C_25
REMARK                            x       y       z     vdW  Elec       q    Type
REMARK                         _______ _______ _______ _____ _____    ______ ____
ROOT
ATOM      1  C   UNL     1      -1.068  13.331  20.468  0.00  0.00    +0.000 A 
ATOM      2  C   UNL     1      -0.492  13.159  19.196  0.00  0.00    +0.000 A 
ATOM      3  N   UNL     1      -1.163  12.610  18.156  0.00  0.00    +0.000 NA
ATOM      4  C   UNL     1      -2.448  12.316  18.401  0.00  0.00    +0.000 A 
ATOM      5  N   UNL     1      -3.287  11.733  17.504  0.00  0.00    +0.000 N 
ATOM      6  N   UNL     1      -4.540  11.589  17.945  0.00  0.00    +0.000 NA
ATOM      7  C   UNL     1      -4.523  12.093  19.190  0.00  0.00    +0.000 A 
ATOM      8  C   UNL     1      -3.183  12.523  19.562  0.00  0.00    +0.000 A 
ATOM      9  C   UNL     1      -2.456  13.044  20.685  0.00  0.00    +0.000 A 
ATOM     10  H   UNL     1      -3.052  11.415  16.572  0.00  0.00    +0.000 HD
ENDROOT
BRANCH   2  11
ATOM     11  C   UNL     1       0.898  13.567  18.843  0.00  0.00    +0.000 A 
ATOM     12  C   UNL     1       1.877  12.602  18.530  0.00  0.00    +0.000 A 
ATOM     13  C   UNL     1       3.191  12.966  18.207  0.00  0.00    +0.000 A 
ATOM     14  C   UNL     1       3.556  14.309  18.196  0.00  0.00    +0.000 A 
ATOM     15 CL   UNL     1       5.172  14.763  17.829  0.00  0.00    +0.000 Cl
ATOM     16  C   UNL     1       2.610  15.288  18.474  0.00  0.00    +0.000 A 
ATOM     17  C   UNL     1       1.292  14.920  18.765  0.00  0.00    +0.000 A 
ENDBRANCH   2  11
BRANCH   7  18
ATOM     18  C   UNL     1      -5.771  12.081  19.968  0.00  0.00    +0.000 A 
ATOM     19  C   UNL     1      -6.524  10.898  20.075  0.00  0.00    +0.000 A 
ATOM     20  C   UNL     1      -7.590  10.810  20.976  0.00  0.00    +0.000 A 
ATOM     21  C   UNL     1      -7.916  11.904  21.774  0.00  0.00    +0.000 A 
ATOM     22  C   UNL     1      -7.243  13.111  21.600  0.00  0.00    +0.000 A 
ATOM     23  C   UNL     1      -6.203  13.209  20.670  0.00  0.00    +0.000 A 
ENDBRANCH   7  18
BRANCH   9  24
ATOM     24  C   UNL     1      -3.110  13.280  21.992  0.00  0.00    +0.000 A 
ATOM     25  C   UNL     1      -3.267  12.255  22.937  0.00  0.00    +0.000 A 
ATOM     26  C   UNL     1      -3.996  12.461  24.115  0.00  0.00    +0.000 A 
ATOM     27  C   UNL     1      -4.503  13.720  24.418  0.00  0.00    +0.000 A 
ATOM     28  C   UNL     1      -4.279  14.776  23.546  0.00  0.00    +0.000 A 
ATOM     29  C   UNL     1      -3.618  14.550  22.335  0.00  0.00    +0.000 A 
ENDBRANCH   9  24
BRANCH   1  31
ATOM     30  N   UNL     1       0.465  14.130  22.411  0.00  0.00    +0.000 NA
ATOM     31  C   UNL     1      -0.240  13.752  21.563  0.00  0.00    +0.000 C 
ENDBRANCH   1  31
TORSDOF 4
ENDMDL
MODEL 5
REMARK VINA RESULT:      -6.7      4.978      7.081
REMARK  Name = 
REMARK  4 active torsions:
REMARK  status: ('A' for Active; 'I' for Inactive)
REMARK    1  A    between atoms: C_2  and  C_3
REMARK    2  A    between atoms: C_4  and  C_5
REMARK    3  A    between atoms: C_16  and  C_17
REMARK    4  A    between atoms: C_24  and  C_25
REMARK                            x       y       z     vdW  Elec       q    Type
REMARK                         _______ _______ _______ _____ _____    ______ ____
ROOT
ATOM      1  C   UNL     1      -1.055  13.341  20.489  0.00  0.00    +0.000 A 
ATOM      2  C   UNL     1      -0.474  13.170  19.218  0.00  0.00    +0.000 A 
ATOM      3  N   UNL     1      -1.141  12.622  18.175  0.00  0.00    +0.000 NA
ATOM      4  C   UNL     1      -2.428  12.327  18.416  0.00  0.00    +0.000 A 
ATOM      5  N   UNL     1      -3.263  11.745  17.515  0.00  0.00    +0.000 N 
ATOM      6  N   UNL     1      -4.517  11.599  17.952  0.00  0.00    +0.000 NA
ATOM      7  C   UNL     1      -4.505  12.101  19.198  0.00  0.00    +0.000 A 
ATOM      8  C   UNL     1      -3.166  12.532  19.575  0.00  0.00    +0.000 A 
ATOM      9  C   UNL     1      -2.443  13.051  20.700  0.00  0.00    +0.000 A 
ATOM     10  H   UNL     1      -3.024  11.428  16.584  0.00  0.00    +0.000 HD
ENDROOT
BRANCH   2  11
ATOM     11  C   UNL     1       0.916  13.580  18.870  0.00  0.00    +0.000 A 
ATOM     12  C   UNL     1       1.276  14.942  18.816  0.00  0.00    +0.000 A 
ATOM     13  C   UNL     1       2.575  15.346  18.480  0.00  0.00    +0.000 A 
ATOM     14  C   UNL     1       3.544  14.392  18.184  0.00  0.00    +0.000 A 
ATOM     15 CL   UNL     1       5.132  14.880  17.743  0.00  0.00    +0.000 Cl
ATOM     16  C   UNL     1       3.230  13.040  18.253  0.00  0.00    +0.000 A 
ATOM     17  C   UNL     1       1.940  12.642  18.619  0.00  0.00    +0.000 A 
ENDBRANCH   2  11
BRANCH   7  18
ATOM     18  C   UNL     1      -5.755  12.087  19.972  0.00  0.00    +0.000 A 
ATOM     19  C   UNL     1      -6.558  10.932  19.994  0.00  0.00    +0.000 A 
ATOM     20  C   UNL     1      -7.630  10.826  20.885  0.00  0.00    +0.000 A 
ATOM     21  C   UNL     1      -7.913  11.874  21.758  0.00  0.00    +0.000 A 
ATOM     22  C   UNL     1      -7.189  13.060  21.671  0.00  0.00    +0.000 A 
ATOM     23  C   UNL     1      -6.142  13.180  20.751  0.00  0.00    +0.000 A 
ENDBRANCH   7  18
BRANCH   9  24
ATOM     24  C   UNL     1      -3.101  13.285  22.006  0.00  0.00    +0.000 A 
ATOM     25  C   UNL     1      -3.548  14.558  22.391  0.00  0.00    +0.000 A 
ATOM     26  C   UNL     1      -4.056  14.790  23.676  0.00  0.00    +0.000 A 
ATOM     27  C   UNL     1      -4.216  13.737  24.570  0.00  0.00    +0.000 A 
ATOM     28  C   UNL     1      -3.873  12.450  24.180  0.00  0.00    +0.000 A 
ATOM     29  C   UNL     1      -3.295  12.234  22.926  0.00  0.00    +0.000 A 
ENDBRANCH   9  24
BRANCH   1  31
ATOM     30  N   UNL     1       0.412  14.159  22.474  0.00  0.00    +0.000 NA
ATOM     31  C   UNL     1      -0.230  13.760  21.587  0.00  0.00    +0.000 C 
ENDBRANCH   1  31
TORSDOF 4
ENDMDL
MODEL 6
REMARK VINA RESULT:      -6.7      1.783      3.914
REMARK  Name = 
REMARK  4 active torsions:
REMARK  status: ('A' for Active; 'I' for Inactive)
REMARK    1  A    between atoms: C_2  and  C_3
REMARK    2  A    between atoms: C_4  and  C_5
REMARK    3  A    between atoms: C_16  and  C_17
REMARK    4  A    between atoms: C_24  and  C_25
REMARK                            x       y       z     vdW  Elec       q    Type
REMARK                         _______ _______ _______ _____ _____    ______ ____
ROOT
ATOM      1  C   UNL     1       0.522   9.805  20.039  0.00  0.00    +0.000 A 
ATOM      2  C   UNL     1       1.535   9.288  19.210  0.00  0.00    +0.000 A 
ATOM      3  N   UNL     1       2.235  10.057  18.342  0.00  0.00    +0.000 NA
ATOM      4  C   UNL     1       1.951  11.367  18.387  0.00  0.00    +0.000 A 
ATOM      5  N   UNL     1       2.518  12.304  17.581  0.00  0.00    +0.000 N 
ATOM      6  N   UNL     1       2.129  13.554  17.843  0.00  0.00    +0.000 NA
ATOM      7  C   UNL     1       1.262  13.435  18.862  0.00  0.00    +0.000 A 
ATOM      8  C   UNL     1       1.061  12.037  19.217  0.00  0.00    +0.000 A 
ATOM      9  C   UNL     1       0.272  11.216  20.090  0.00  0.00    +0.000 A 
ATOM     10  H   UNL     1       3.180  12.138  16.833  0.00  0.00    +0.000 HD
ENDROOT
BRANCH   2  11
ATOM     11  C   UNL     1       1.962   7.860  19.199  0.00  0.00    +0.000 A 
ATOM     12  C   UNL     1       2.331   7.226  17.996  0.00  0.00    +0.000 A 
ATOM     13  C   UNL     1       2.725   5.881  17.965  0.00  0.00    +0.000 A 
ATOM     14  C   UNL     1       2.750   5.138  19.141  0.00  0.00    +0.000 A 
ATOM     15 CL   UNL     1       3.203   3.481  19.108  0.00  0.00    +0.000 Cl
ATOM     16  C   UNL     1       2.416   5.739  20.349  0.00  0.00    +0.000 A 
ATOM     17  C   UNL     1       2.055   7.090  20.377  0.00  0.00    +0.000 A 
ENDBRANCH   2  11
BRANCH   7  18
ATOM     18  C   UNL     1       0.636  14.654  19.397  0.00  0.00    +0.000 A 
ATOM     19  C   UNL     1      -0.155  15.464  18.563  0.00  0.00    +0.000 A 
ATOM     20  C   UNL     1      -0.925  16.501  19.098  0.00  0.00    +0.000 A 
ATOM     21  C   UNL     1      -0.908  16.741  20.470  0.00  0.00    +0.000 A 
ATOM     22  C   UNL     1      -0.049  16.011  21.288  0.00  0.00    +0.000 A 
ATOM     23  C   UNL     1       0.751  15.001  20.745  0.00  0.00    +0.000 A 
ENDBRANCH   7  18
BRANCH   9  24
ATOM     24  C   UNL     1      -0.738  11.800  21.003  0.00  0.00    +0.000 A 
ATOM     25  C   UNL     1      -1.965  12.291  20.532  0.00  0.00    +0.000 A 
ATOM     26  C   UNL     1      -2.857  12.952  21.386  0.00  0.00    +0.000 A 
ATOM     27  C   UNL     1      -2.586  13.053  22.746  0.00  0.00    +0.000 A 
ATOM     28  C   UNL     1      -1.424  12.489  23.256  0.00  0.00    +0.000 A 
ATOM     29  C   UNL     1      -0.499  11.899  22.389  0.00  0.00    +0.000 A 
ENDBRANCH   9  24
BRANCH   1  31
ATOM     30  N   UNL     1      -0.913   8.166  21.459  0.00  0.00    +0.000 NA
ATOM     31  C   UNL     1      -0.295   8.900  20.798  0.00  0.00    +0.000 C 
ENDBRANCH   1  31
TORSDOF 4
ENDMDL
MODEL 7
REMARK VINA RESULT:      -6.6      3.335      5.543
REMARK  Name = 
REMARK  4 active torsions:
REMARK  status: ('A' for Active; 'I' for Inactive)
REMARK    1  A    between atoms: C_2  and  C_3
REMARK    2  A    between atoms: C_4  and  C_5
REMARK    3  A    between atoms: C_16  and  C_17
REMARK    4  A    between atoms: C_24  and  C_25
REMARK                            x       y       z     vdW  Elec       q    Type
REMARK                         _______ _______ _______ _____ _____    ______ ____
ROOT
ATOM      1  C   UNL     1      -2.562  12.103  20.097  0.00  0.00    +0.000 A 
ATOM      2  C   UNL     1      -1.278  11.861  20.621  0.00  0.00    +0.000 A 
ATOM      3  N   UNL     1      -0.854  12.388  21.794  0.00  0.00    +0.000 NA
ATOM      4  C   UNL     1      -1.776  13.092  22.466  0.00  0.00    +0.000 A 
ATOM      5  N   UNL     1      -1.547  13.726  23.647  0.00  0.00    +0.000 N 
ATOM      6  N   UNL     1      -2.627  14.316  24.166  0.00  0.00    +0.000 NA
ATOM      7  C   UNL     1      -3.609  14.066  23.285  0.00  0.00    +0.000 A 
ATOM      8  C   UNL     1      -3.104  13.329  22.134  0.00  0.00    +0.000 A 
ATOM      9  C   UNL     1      -3.536  12.827  20.861  0.00  0.00    +0.000 A 
ATOM     10  H   UNL     1      -0.666  13.785  24.142  0.00  0.00    +0.000 HD
ENDROOT
BRANCH   2  11
ATOM     11  C   UNL     1      -0.255  10.998  19.964  0.00  0.00    +0.000 A 
ATOM     12  C   UNL     1       0.488  11.470  18.863  0.00  0.00    +0.000 A 
ATOM     13  C   UNL     1       1.447  10.670  18.226  0.00  0.00    +0.000 A 
ATOM     14  C   UNL     1       1.678   9.374  18.677  0.00  0.00    +0.000 A 
ATOM     15 CL   UNL     1       2.831   8.376  17.884  0.00  0.00    +0.000 Cl
ATOM     16  C   UNL     1       0.982   8.886  19.776  0.00  0.00    +0.000 A 
ATOM     17  C   UNL     1       0.049   9.700  20.427  0.00  0.00    +0.000 A 
ENDBRANCH   2  11
BRANCH   7  18
ATOM     18  C   UNL     1      -4.954  14.591  23.564  0.00  0.00    +0.000 A 
ATOM     19  C   UNL     1      -5.184  15.979  23.556  0.00  0.00    +0.000 A 
ATOM     20  C   UNL     1      -6.486  16.486  23.608  0.00  0.00    +0.000 A 
ATOM     21  C   UNL     1      -7.569  15.613  23.674  0.00  0.00    +0.000 A 
ATOM     22  C   UNL     1      -7.345  14.243  23.788  0.00  0.00    +0.000 A 
ATOM     23  C   UNL     1      -6.040  13.739  23.776  0.00  0.00    +0.000 A 
ENDBRANCH   7  18
BRANCH   9  24
ATOM     24  C   UNL     1      -4.917  13.039  20.370  0.00  0.00    +0.000 A 
ATOM     25  C   UNL     1      -5.354  14.289  19.907  0.00  0.00    +0.000 A 
ATOM     26  C   UNL     1      -6.694  14.506  19.563  0.00  0.00    +0.000 A 
ATOM     27  C   UNL     1      -7.606  13.456  19.584  0.00  0.00    +0.000 A 
ATOM     28  C   UNL     1      -7.178  12.186  19.945  0.00  0.00    +0.000 A 
ATOM     29  C   UNL     1      -5.858  11.989  20.362  0.00  0.00    +0.000 A 
ENDBRANCH   9  24
BRANCH   1  31
ATOM     30  N   UNL     1      -3.100  11.354  17.666  0.00  0.00    +0.000 NA
ATOM     31  C   UNL     1      -2.874  11.660  18.767  0.00  0.00    +0.000 C 
ENDBRANCH   1  31
TORSDOF 4
ENDMDL
MODEL 8
REMARK VINA RESULT:      -6.5      9.123     11.128
REMARK  Name = 
REMARK  4 active torsions:
REMARK  status: ('A' for Active; 'I' for Inactive)
REMARK    1  A    between atoms: C_2  and  C_3
REMARK    2  A    between atoms: C_4  and  C_5
REMARK    3  A    between atoms: C_16  and  C_17
REMARK    4  A    between atoms: C_24  and  C_25
REMARK                            x       y       z     vdW  Elec       q    Type
REMARK                         _______ _______ _______ _____ _____    ______ ____
ROOT
ATOM      1  C   UNL     1       8.182  13.701  22.898  0.00  0.00    +0.000 A 
ATOM      2  C   UNL     1       7.938  12.407  23.396  0.00  0.00    +0.000 A 
ATOM      3  N   UNL     1       8.307  11.286  22.734  0.00  0.00    +0.000 NA
ATOM      4  C   UNL     1       9.000  11.495  21.604  0.00  0.00    +0.000 A 
ATOM      5  N   UNL     1       9.438  10.508  20.778  0.00  0.00    +0.000 N 
ATOM      6  N   UNL     1      10.159  10.945  19.743  0.00  0.00    +0.000 NA
ATOM      7  C   UNL     1      10.191  12.280  19.889  0.00  0.00    +0.000 A 
ATOM      8  C   UNL     1       9.407  12.699  21.043  0.00  0.00    +0.000 A 
ATOM      9  C   UNL     1       8.960  13.889  21.708  0.00  0.00    +0.000 A 
ATOM     10  H   UNL     1       9.271   9.514  20.880  0.00  0.00    +0.000 HD
ENDROOT
BRANCH   2  11
ATOM     11  C   UNL     1       7.267  12.123  24.696  0.00  0.00    +0.000 A 
ATOM     12  C   UNL     1       7.849  12.532  25.913  0.00  0.00    +0.000 A 
ATOM     13  C   UNL     1       7.239  12.264  27.146  0.00  0.00    +0.000 A 
ATOM     14  C   UNL     1       6.032  11.573  27.187  0.00  0.00    +0.000 A 
ATOM     15 CL   UNL     1       5.291  11.215  28.696  0.00  0.00    +0.000 Cl
ATOM     16  C   UNL     1       5.418  11.178  26.005  0.00  0.00    +0.000 A 
ATOM     17  C   UNL     1       6.017  11.475  24.776  0.00  0.00    +0.000 A 
ENDBRANCH   2  11
BRANCH   7  18
ATOM     18  C   UNL     1      10.918  13.078  18.890  0.00  0.00    +0.000 A 
ATOM     19  C   UNL     1      10.640  12.917  17.521  0.00  0.00    +0.000 A 
ATOM     20  C   UNL     1      11.161  13.808  16.577  0.00  0.00    +0.000 A 
ATOM     21  C   UNL     1      11.969  14.864  16.992  0.00  0.00    +0.000 A 
ATOM     22  C   UNL     1      12.333  14.969  18.332  0.00  0.00    +0.000 A 
ATOM     23  C   UNL     1      11.843  14.053  19.270  0.00  0.00    +0.000 A 
ENDBRANCH   7  18
BRANCH   9  24
ATOM     24  C   UNL     1       9.295  15.237  21.196  0.00  0.00    +0.000 A 
ATOM     25  C   UNL     1       8.643  15.789  20.083  0.00  0.00    +0.000 A 
ATOM     26  C   UNL     1       9.053  17.011  19.534  0.00  0.00    +0.000 A 
ATOM     27  C   UNL     1      10.061  17.752  20.141  0.00  0.00    +0.000 A 
ATOM     28  C   UNL     1      10.657  17.275  21.301  0.00  0.00    +0.000 A 
ATOM     29  C   UNL     1      10.299  16.020  21.802  0.00  0.00    +0.000 A 
ENDBRANCH   9  24
BRANCH   1  31
ATOM     30  N   UNL     1       7.074  15.731  24.086  0.00  0.00    +0.000 NA
ATOM     31  C   UNL     1       7.602  14.832  23.566  0.00  0.00    +0.000 C 
ENDBRANCH   1  31
TORSDOF 4
ENDMDL
MODEL 9
REMARK VINA RESULT:      -6.5      1.816      3.875
REMARK  Name = 
REMARK  4 active torsions:
REMARK  status: ('A' for Active; 'I' for Inactive)
REMARK    1  A    between atoms: C_2  and  C_3
REMARK    2  A    between atoms: C_4  and  C_5
REMARK    3  A    between atoms: C_16  and  C_17
REMARK    4  A    between atoms: C_24  and  C_25
REMARK                            x       y       z     vdW  Elec       q    Type
REMARK                         _______ _______ _______ _____ _____    ______ ____
ROOT
ATOM      1  C   UNL     1       0.548   9.742  20.040  0.00  0.00    +0.000 A 
ATOM      2  C   UNL     1       1.562   9.238  19.203  0.00  0.00    +0.000 A 
ATOM      3  N   UNL     1       2.239  10.012  18.323  0.00  0.00    +0.000 NA
ATOM      4  C   UNL     1       1.933  11.318  18.363  0.00  0.00    +0.000 A 
ATOM      5  N   UNL     1       2.475  12.259  17.545  0.00  0.00    +0.000 N 
ATOM      6  N   UNL     1       2.067  13.504  17.804  0.00  0.00    +0.000 NA
ATOM      7  C   UNL     1       1.212  13.377  18.832  0.00  0.00    +0.000 A 
ATOM      8  C   UNL     1       1.039  11.978  19.198  0.00  0.00    +0.000 A 
ATOM      9  C   UNL     1       0.274  11.149  20.085  0.00  0.00    +0.000 A 
ATOM     10  H   UNL     1       3.132  12.100  16.792  0.00  0.00    +0.000 HD
ENDROOT
BRANCH   2  11
ATOM     11  C   UNL     1       2.013   7.817  19.197  0.00  0.00    +0.000 A 
ATOM     12  C   UNL     1       2.454   7.204  18.006  0.00  0.00    +0.000 A 
ATOM     13  C   UNL     1       2.871   5.866  17.979  0.00  0.00    +0.000 A 
ATOM     14  C   UNL     1       2.850   5.110  19.147  0.00  0.00    +0.000 A 
ATOM     15 CL   UNL     1       3.333   3.461  19.116  0.00  0.00    +0.000 Cl
ATOM     16  C   UNL     1       2.446   5.690  20.343  0.00  0.00    +0.000 A 
ATOM     17  C   UNL     1       2.060   7.034  20.369  0.00  0.00    +0.000 A 
ENDBRANCH   2  11
BRANCH   7  18
ATOM     18  C   UNL     1       0.571  14.588  19.366  0.00  0.00    +0.000 A 
ATOM     19  C   UNL     1       0.830  14.999  20.686  0.00  0.00    +0.000 A 
ATOM     20  C   UNL     1       0.404  16.251  21.140  0.00  0.00    +0.000 A 
ATOM     21  C   UNL     1      -0.290  17.101  20.281  0.00  0.00    +0.000 A 
ATOM     22  C   UNL     1      -0.640  16.659  19.008  0.00  0.00    +0.000 A 
ATOM     23  C   UNL     1      -0.247  15.391  18.569  0.00  0.00    +0.000 A 
ENDBRANCH   7  18
BRANCH   9  24
ATOM     24  C   UNL     1      -0.736  11.721  21.004  0.00  0.00    +0.000 A 
ATOM     25  C   UNL     1      -0.534  11.763  22.391  0.00  0.00    +0.000 A 
ATOM     26  C   UNL     1      -1.546  12.192  23.259  0.00  0.00    +0.000 A 
ATOM     27  C   UNL     1      -2.749  12.676  22.754  0.00  0.00    +0.000 A 
ATOM     28  C   UNL     1      -2.938  12.736  21.380  0.00  0.00    +0.000 A 
ATOM     29  C   UNL     1      -1.957  12.235  20.519  0.00  0.00    +0.000 A 
ENDBRANCH   9  24
BRANCH   1  31
ATOM     30  N   UNL     1      -0.897   8.133  21.483  0.00  0.00    +0.000 NA
ATOM     31  C   UNL     1      -0.245   8.828  20.812  0.00  0.00    +0.000 C 
ENDBRANCH   1  31
TORSDOF 4
ENDMDL
