MODEL 1
REMARK VINA RESULT:      -6.5      0.000      0.000
REMARK  Name = 
REMARK  9 active torsions:
REMARK  status: ('A' for Active; 'I' for Inactive)
REMARK    1  A    between atoms: C_1  and  C_2
REMARK    2  A    between atoms: C_4  and  C_5
REMARK    3  A    between atoms: N_6  and  C_7
REMARK    4  A    between atoms: C_7  and  C_8
REMARK    5  A    between atoms: C_8  and  O_9
REMARK    6  A    between atoms: C_8  and  C_10
REMARK    7  A    between atoms: C_10  and  O_11
REMARK    8  A    between atoms: O_11  and  C_12
REMARK    9  A    between atoms: C_12  and  C_13
REMARK                            x       y       z     vdW  Elec       q    Type
REMARK                         _______ _______ _______ _____ _____    ______ ____
ROOT
ATOM      1  C   UNL     1       2.273   2.234  17.670  0.00  0.00    +0.000 C 
ENDROOT
BRANCH   1   2
ATOM      2  O   UNL     1       2.455   3.220  16.648  0.00  0.00    +0.000 OA
ATOM      3  H   UNL     1       2.905   3.992  17.035  0.00  0.00    +0.000 HD
ENDBRANCH   1   2
BRANCH   1   4
ATOM      4  C   UNL     1       1.168   2.595  18.674  0.00  0.00    +0.000 C 
BRANCH   4  10
ATOM      5  C   UNL     1       2.404   7.189  19.475  0.00  0.00    +0.000 C 
ATOM      6  C   UNL     1       2.044   5.788  19.799  0.00  0.00    +0.000 A 
ATOM      7  C   UNL     1       2.043   5.156  21.061  0.00  0.00    +0.000 A 
ATOM      8  C   UNL     1       1.652   3.856  20.821  0.00  0.00    +0.000 A 
ATOM      9  C   UNL     1       1.485   2.711  21.748  0.00  0.00    +0.000 C 
ATOM     10  N   UNL     1       1.438   3.780  19.466  0.00  0.00    +0.000 N 
ATOM     11  N   UNL     1       1.683   4.943  18.826  0.00  0.00    +0.000 NA
ENDBRANCH   4  10
ENDBRANCH   1   4
BRANCH   1  12
ATOM     12  C   UNL     1       3.610   2.074  18.405  0.00  0.00    +0.000 C 
BRANCH  12  13
ATOM     13  O   UNL     1       4.532   3.071  17.969  0.00  0.00    +0.000 OA
BRANCH  13  14
ATOM     14  C   UNL     1       5.041   3.832  19.060  0.00  0.00    +0.000 C 
BRANCH  14  15
ATOM     15  C   UNL     1       5.806   5.000  18.495  0.00  0.00    +0.000 A 
ATOM     16  C   UNL     1       7.054   5.363  19.020  0.00  0.00    +0.000 A 
ATOM     17  C   UNL     1       7.742   6.466  18.519  0.00  0.00    +0.000 A 
ATOM     18  C   UNL     1       7.190   7.228  17.487  0.00  0.00    +0.000 A 
ATOM     19  C   UNL     1       5.949   6.875  16.955  0.00  0.00    +0.000 A 
ATOM     20  C   UNL     1       5.262   5.766  17.459  0.00  0.00    +0.000 A 
ENDBRANCH  14  15
ENDBRANCH  13  14
ENDBRANCH  12  13
ENDBRANCH   1  12
TORSDOF 7
ENDMDL
MODEL 2
REMARK VINA RESULT:      -6.3      3.358      6.434
REMARK  Name = 
REMARK  9 active torsions:
REMARK  status: ('A' for Active; 'I' for Inactive)
REMARK    1  A    between atoms: C_1  and  C_2
REMARK    2  A    between atoms: C_4  and  C_5
REMARK    3  A    between atoms: N_6  and  C_7
REMARK    4  A    between atoms: C_7  and  C_8
REMARK    5  A    between atoms: C_8  and  O_9
REMARK    6  A    between atoms: C_8  and  C_10
REMARK    7  A    between atoms: C_10  and  O_11
REMARK    8  A    between atoms: O_11  and  C_12
REMARK    9  A    between atoms: C_12  and  C_13
REMARK                            x       y       z     vdW  Elec       q    Type
REMARK                         _______ _______ _______ _____ _____    ______ ____
ROOT
ATOM      1  C   UNL     1       6.048   6.835  17.180  0.00  0.00    +0.000 C 
ENDROOT
BRANCH   1   2
ATOM      2  O   UNL     1       5.339   7.238  16.002  0.00  0.00    +0.000 OA
ATOM      3  H   UNL     1       5.650   8.121  15.736  0.00  0.00    +0.000 HD
ENDBRANCH   1   2
BRANCH   1   4
ATOM      4  C   UNL     1       7.041   5.690  16.930  0.00  0.00    +0.000 C 
BRANCH   4  10
ATOM      5  C   UNL     1       7.595   4.962  12.193  0.00  0.00    +0.000 C 
ATOM      6  C   UNL     1       7.076   4.742  13.563  0.00  0.00    +0.000 A 
ATOM      7  C   UNL     1       6.063   3.852  13.982  0.00  0.00    +0.000 A 
ATOM      8  C   UNL     1       5.942   4.045  15.342  0.00  0.00    +0.000 A 
ATOM      9  C   UNL     1       5.034   3.414  16.330  0.00  0.00    +0.000 C 
ATOM     10  N   UNL     1       6.868   5.010  15.660  0.00  0.00    +0.000 N 
ATOM     11  N   UNL     1       7.559   5.454  14.589  0.00  0.00    +0.000 NA
ENDBRANCH   4  10
ENDBRANCH   1   4
BRANCH   1  12
ATOM     12  C   UNL     1       5.010   6.403  18.222  0.00  0.00    +0.000 C 
BRANCH  12  13
ATOM     13  O   UNL     1       3.692   6.563  17.699  0.00  0.00    +0.000 OA
BRANCH  13  14
ATOM     14  C   UNL     1       2.732   6.747  18.735  0.00  0.00    +0.000 C 
BRANCH  14  15
ATOM     15  C   UNL     1       2.127   5.404  19.050  0.00  0.00    +0.000 A 
ATOM     16  C   UNL     1       1.854   4.482  18.030  0.00  0.00    +0.000 A 
ATOM     17  C   UNL     1       1.261   3.255  18.322  0.00  0.00    +0.000 A 
ATOM     18  C   UNL     1       0.925   2.933  19.639  0.00  0.00    +0.000 A 
ATOM     19  C   UNL     1       1.193   3.842  20.662  0.00  0.00    +0.000 A 
ATOM     20  C   UNL     1       1.791   5.072  20.367  0.00  0.00    +0.000 A 
ENDBRANCH  14  15
ENDBRANCH  13  14
ENDBRANCH  12  13
ENDBRANCH   1  12
TORSDOF 7
ENDMDL
MODEL 3
REMARK VINA RESULT:      -6.3      3.365      6.345
REMARK  Name = 
REMARK  9 active torsions:
REMARK  status: ('A' for Active; 'I' for Inactive)
REMARK    1  A    between atoms: C_1  and  C_2
REMARK    2  A    between atoms: C_4  and  C_5
REMARK    3  A    between atoms: N_6  and  C_7
REMARK    4  A    between atoms: C_7  and  C_8
REMARK    5  A    between atoms: C_8  and  O_9
REMARK    6  A    between atoms: C_8  and  C_10
REMARK    7  A    between atoms: C_10  and  O_11
REMARK    8  A    between atoms: O_11  and  C_12
REMARK    9  A    between atoms: C_12  and  C_13
REMARK                            x       y       z     vdW  Elec       q    Type
REMARK                         _______ _______ _______ _____ _____    ______ ____
ROOT
ATOM      1  C   UNL     1       7.192   6.267  17.695  0.00  0.00    +0.000 C 
ENDROOT
BRANCH   1   2
ATOM      2  O   UNL     1       7.759   7.171  16.739  0.00  0.00    +0.000 OA
ATOM      3  H   UNL     1       8.606   6.805  16.427  0.00  0.00    +0.000 HD
ENDBRANCH   1   2
BRANCH   1   4
ATOM      4  C   UNL     1       7.286   4.795  17.269  0.00  0.00    +0.000 C 
BRANCH   4  10
ATOM      5  C   UNL     1       7.628   5.198  12.474  0.00  0.00    +0.000 C 
ATOM      6  C   UNL     1       7.061   4.784  13.779  0.00  0.00    +0.000 A 
ATOM      7  C   UNL     1       5.833   4.136  14.032  0.00  0.00    +0.000 A 
ATOM      8  C   UNL     1       5.766   3.995  15.401  0.00  0.00    +0.000 A 
ATOM      9  C   UNL     1       4.709   3.410  16.262  0.00  0.00    +0.000 C 
ATOM     10  N   UNL     1       6.929   4.544  15.885  0.00  0.00    +0.000 N 
ATOM     11  N   UNL     1       7.724   5.040  14.913  0.00  0.00    +0.000 NA
ENDBRANCH   4  10
ENDBRANCH   1   4
BRANCH   1  12
ATOM     12  C   UNL     1       5.722   6.659  17.889  0.00  0.00    +0.000 C 
BRANCH  12  13
ATOM     13  O   UNL     1       5.061   5.698  18.710  0.00  0.00    +0.000 OA
BRANCH  13  14
ATOM     14  C   UNL     1       3.658   5.931  18.771  0.00  0.00    +0.000 C 
BRANCH  14  15
ATOM     15  C   UNL     1       3.029   4.786  19.519  0.00  0.00    +0.000 A 
ATOM     16  C   UNL     1       1.693   4.852  19.942  0.00  0.00    +0.000 A 
ATOM     17  C   UNL     1       1.126   3.805  20.667  0.00  0.00    +0.000 A 
ATOM     18  C   UNL     1       1.886   2.678  20.985  0.00  0.00    +0.000 A 
ATOM     19  C   UNL     1       3.215   2.601  20.568  0.00  0.00    +0.000 A 
ATOM     20  C   UNL     1       3.781   3.652  19.839  0.00  0.00    +0.000 A 
ENDBRANCH  14  15
ENDBRANCH  13  14
ENDBRANCH  12  13
ENDBRANCH   1  12
TORSDOF 7
ENDMDL
MODEL 4
REMARK VINA RESULT:      -6.2      4.187      6.294
REMARK  Name = 
REMARK  9 active torsions:
REMARK  status: ('A' for Active; 'I' for Inactive)
REMARK    1  A    between atoms: C_1  and  C_2
REMARK    2  A    between atoms: C_4  and  C_5
REMARK    3  A    between atoms: N_6  and  C_7
REMARK    4  A    between atoms: C_7  and  C_8
REMARK    5  A    between atoms: C_8  and  O_9
REMARK    6  A    between atoms: C_8  and  C_10
REMARK    7  A    between atoms: C_10  and  O_11
REMARK    8  A    between atoms: O_11  and  C_12
REMARK    9  A    between atoms: C_12  and  C_13
REMARK                            x       y       z     vdW  Elec       q    Type
REMARK                         _______ _______ _______ _____ _____    ______ ____
ROOT
ATOM      1  C   UNL     1       7.359   6.390  18.485  0.00  0.00    +0.000 C 
ENDROOT
BRANCH   1   2
ATOM      2  O   UNL     1       8.416   6.243  19.440  0.00  0.00    +0.000 OA
ATOM      3  H   UNL     1       8.117   6.598  20.295  0.00  0.00    +0.000 HD
ENDBRANCH   1   2
BRANCH   1   4
ATOM      4  C   UNL     1       7.180   5.161  17.582  0.00  0.00    +0.000 C 
BRANCH   4  10
ATOM      5  C   UNL     1       3.726   2.733  19.916  0.00  0.00    +0.000 C 
ATOM      6  C   UNL     1       4.429   3.359  18.771  0.00  0.00    +0.000 A 
ATOM      7  C   UNL     1       4.098   3.292  17.401  0.00  0.00    +0.000 A 
ATOM      8  C   UNL     1       5.072   4.020  16.751  0.00  0.00    +0.000 A 
ATOM      9  C   UNL     1       5.271   4.294  15.307  0.00  0.00    +0.000 C 
ATOM     10  N   UNL     1       5.909   4.479  17.739  0.00  0.00    +0.000 N 
ATOM     11  N   UNL     1       5.541   4.076  18.974  0.00  0.00    +0.000 NA
ENDBRANCH   4  10
ENDBRANCH   1   4
BRANCH   1  12
ATOM     12  C   UNL     1       7.676   7.622  17.628  0.00  0.00    +0.000 C 
BRANCH  12  13
ATOM     13  O   UNL     1       8.592   8.475  18.314  0.00  0.00    +0.000 OA
BRANCH  13  14
ATOM     14  C   UNL     1       8.270   9.850  18.130  0.00  0.00    +0.000 C 
BRANCH  14  15
ATOM     15  C   UNL     1       9.369  10.671  18.750  0.00  0.00    +0.000 A 
ATOM     16  C   UNL     1      10.432  11.153  17.973  0.00  0.00    +0.000 A 
ATOM     17  C   UNL     1      11.466  11.882  18.558  0.00  0.00    +0.000 A 
ATOM     18  C   UNL     1      11.457  12.135  19.932  0.00  0.00    +0.000 A 
ATOM     19  C   UNL     1      10.404  11.662  20.714  0.00  0.00    +0.000 A 
ATOM     20  C   UNL     1       9.366  10.933  20.124  0.00  0.00    +0.000 A 
ENDBRANCH  14  15
ENDBRANCH  13  14
ENDBRANCH  12  13
ENDBRANCH   1  12
TORSDOF 7
ENDMDL
MODEL 5
REMARK VINA RESULT:      -6.2      4.116      6.183
REMARK  Name = 
REMARK  9 active torsions:
REMARK  status: ('A' for Active; 'I' for Inactive)
REMARK    1  A    between atoms: C_1  and  C_2
REMARK    2  A    between atoms: C_4  and  C_5
REMARK    3  A    between atoms: N_6  and  C_7
REMARK    4  A    between atoms: C_7  and  C_8
REMARK    5  A    between atoms: C_8  and  O_9
REMARK    6  A    between atoms: C_8  and  C_10
REMARK    7  A    between atoms: C_10  and  O_11
REMARK    8  A    between atoms: O_11  and  C_12
REMARK    9  A    between atoms: C_12  and  C_13
REMARK                            x       y       z     vdW  Elec       q    Type
REMARK                         _______ _______ _______ _____ _____    ______ ____
ROOT
ATOM      1  C   UNL     1       7.369   6.231  18.602  0.00  0.00    +0.000 C 
ENDROOT
BRANCH   1   2
ATOM      2  O   UNL     1       8.449   6.137  19.538  0.00  0.00    +0.000 OA
ATOM      3  H   UNL     1       9.184   5.652  19.121  0.00  0.00    +0.000 HD
ENDBRANCH   1   2
BRANCH   1   4
ATOM      4  C   UNL     1       7.192   4.966  17.750  0.00  0.00    +0.000 C 
BRANCH   4  10
ATOM      5  C   UNL     1       3.610   2.588  19.939  0.00  0.00    +0.000 C 
ATOM      6  C   UNL     1       4.349   3.239  18.832  0.00  0.00    +0.000 A 
ATOM      7  C   UNL     1       4.023   3.263  17.459  0.00  0.00    +0.000 A 
ATOM      8  C   UNL     1       5.035   3.977  16.852  0.00  0.00    +0.000 A 
ATOM      9  C   UNL     1       5.255   4.319  15.426  0.00  0.00    +0.000 C 
ATOM     10  N   UNL     1       5.888   4.340  17.866  0.00  0.00    +0.000 N 
ATOM     11  N   UNL     1       5.494   3.890  19.076  0.00  0.00    +0.000 NA
ENDBRANCH   4  10
ENDBRANCH   1   4
BRANCH   1  12
ATOM     12  C   UNL     1       7.646   7.435  17.694  0.00  0.00    +0.000 C 
BRANCH  12  13
ATOM     13  O   UNL     1       8.603   8.300  18.302  0.00  0.00    +0.000 OA
BRANCH  13  14
ATOM     14  C   UNL     1       8.265   9.672  18.121  0.00  0.00    +0.000 C 
BRANCH  14  15
ATOM     15  C   UNL     1       9.360  10.505  18.734  0.00  0.00    +0.000 A 
ATOM     16  C   UNL     1       9.344  10.818  20.101  0.00  0.00    +0.000 A 
ATOM     17  C   UNL     1      10.339  11.619  20.657  0.00  0.00    +0.000 A 
ATOM     18  C   UNL     1      11.364  12.126  19.854  0.00  0.00    +0.000 A 
ATOM     19  C   UNL     1      11.390  11.820  18.493  0.00  0.00    +0.000 A 
ATOM     20  C   UNL     1      10.391  11.014  17.938  0.00  0.00    +0.000 A 
ENDBRANCH  14  15
ENDBRANCH  13  14
ENDBRANCH  12  13
ENDBRANCH   1  12
TORSDOF 7
ENDMDL
MODEL 6
REMARK VINA RESULT:      -6.2      2.745      6.068
REMARK  Name = 
REMARK  9 active torsions:
REMARK  status: ('A' for Active; 'I' for Inactive)
REMARK    1  A    between atoms: C_1  and  C_2
REMARK    2  A    between atoms: C_4  and  C_5
REMARK    3  A    between atoms: N_6  and  C_7
REMARK    4  A    between atoms: C_7  and  C_8
REMARK    5  A    between atoms: C_8  and  O_9
REMARK    6  A    between atoms: C_8  and  C_10
REMARK    7  A    between atoms: C_10  and  O_11
REMARK    8  A    between atoms: O_11  and  C_12
REMARK    9  A    between atoms: C_12  and  C_13
REMARK                            x       y       z     vdW  Elec       q    Type
REMARK                         _______ _______ _______ _____ _____    ______ ____
ROOT
ATOM      1  C   UNL     1       7.212   5.192  19.124  0.00  0.00    +0.000 C 
ENDROOT
BRANCH   1   2
ATOM      2  O   UNL     1       7.871   5.627  20.320  0.00  0.00    +0.000 OA
ATOM      3  H   UNL     1       7.522   6.501  20.569  0.00  0.00    +0.000 HD
ENDBRANCH   1   2
BRANCH   1   4
ATOM      4  C   UNL     1       7.254   6.232  17.995  0.00  0.00    +0.000 C 
BRANCH   4  10
ATOM      5  C   UNL     1       6.884   4.249  13.612  0.00  0.00    +0.000 C 
ATOM      6  C   UNL     1       6.462   4.997  14.820  0.00  0.00    +0.000 A 
ATOM      7  C   UNL     1       5.261   5.707  15.033  0.00  0.00    +0.000 A 
ATOM      8  C   UNL     1       5.365   6.237  16.301  0.00  0.00    +0.000 A 
ATOM      9  C   UNL     1       4.430   7.092  17.071  0.00  0.00    +0.000 C 
ATOM     10  N   UNL     1       6.587   5.821  16.774  0.00  0.00    +0.000 N 
ATOM     11  N   UNL     1       7.274   5.076  15.882  0.00  0.00    +0.000 NA
ENDBRANCH   4  10
ENDBRANCH   1   4
BRANCH   1  12
ATOM     12  C   UNL     1       5.756   4.876  19.485  0.00  0.00    +0.000 C 
BRANCH  12  13
ATOM     13  O   UNL     1       5.363   3.636  18.899  0.00  0.00    +0.000 OA
BRANCH  13  14
ATOM     14  C   UNL     1       4.816   2.745  19.867  0.00  0.00    +0.000 C 
BRANCH  14  15
ATOM     15  C   UNL     1       3.319   2.906  19.852  0.00  0.00    +0.000 A 
ATOM     16  C   UNL     1       2.586   2.920  21.048  0.00  0.00    +0.000 A 
ATOM     17  C   UNL     1       1.197   3.032  21.028  0.00  0.00    +0.000 A 
ATOM     18  C   UNL     1       0.517   3.127  19.811  0.00  0.00    +0.000 A 
ATOM     19  C   UNL     1       1.236   3.116  18.616  0.00  0.00    +0.000 A 
ATOM     20  C   UNL     1       2.630   3.005  18.639  0.00  0.00    +0.000 A 
ENDBRANCH  14  15
ENDBRANCH  13  14
ENDBRANCH  12  13
ENDBRANCH   1  12
TORSDOF 7
ENDMDL
MODEL 7
REMARK VINA RESULT:      -6.1      3.024      6.185
REMARK  Name = 
REMARK  9 active torsions:
REMARK  status: ('A' for Active; 'I' for Inactive)
REMARK    1  A    between atoms: C_1  and  C_2
REMARK    2  A    between atoms: C_4  and  C_5
REMARK    3  A    between atoms: N_6  and  C_7
REMARK    4  A    between atoms: C_7  and  C_8
REMARK    5  A    between atoms: C_8  and  O_9
REMARK    6  A    between atoms: C_8  and  C_10
REMARK    7  A    between atoms: C_10  and  O_11
REMARK    8  A    between atoms: O_11  and  C_12
REMARK    9  A    between atoms: C_12  and  C_13
REMARK                            x       y       z     vdW  Elec       q    Type
REMARK                         _______ _______ _______ _____ _____    ______ ____
ROOT
ATOM      1  C   UNL     1       6.204   5.061  18.599  0.00  0.00    +0.000 C 
ENDROOT
BRANCH   1   2
ATOM      2  O   UNL     1       7.368   5.112  19.432  0.00  0.00    +0.000 OA
ATOM      3  H   UNL     1       7.175   5.668  20.207  0.00  0.00    +0.000 HD
ENDBRANCH   1   2
BRANCH   1   4
ATOM      4  C   UNL     1       6.305   5.959  17.357  0.00  0.00    +0.000 C 
BRANCH   4  10
ATOM      5  C   UNL     1       7.925   5.142  12.887  0.00  0.00    +0.000 C 
ATOM      6  C   UNL     1       7.123   4.932  14.116  0.00  0.00    +0.000 A 
ATOM      7  C   UNL     1       6.079   4.007  14.331  0.00  0.00    +0.000 A 
ATOM      8  C   UNL     1       5.652   4.227  15.623  0.00  0.00    +0.000 A 
ATOM      9  C   UNL     1       4.573   3.579  16.407  0.00  0.00    +0.000 C 
ATOM     10  N   UNL     1       6.445   5.240  16.105  0.00  0.00    +0.000 N 
ATOM     11  N   UNL     1       7.338   5.691  15.198  0.00  0.00    +0.000 NA
ENDBRANCH   4  10
ENDBRANCH   1   4
BRANCH   1  12
ATOM     12  C   UNL     1       5.004   5.489  19.453  0.00  0.00    +0.000 C 
BRANCH  12  13
ATOM     13  O   UNL     1       4.050   6.182  18.649  0.00  0.00    +0.000 OA
BRANCH  13  14
ATOM     14  C   UNL     1       2.833   6.410  19.352  0.00  0.00    +0.000 C 
BRANCH  14  15
ATOM     15  C   UNL     1       2.113   5.093  19.473  0.00  0.00    +0.000 A 
ATOM     16  C   UNL     1       1.814   4.551  20.731  0.00  0.00    +0.000 A 
ATOM     17  C   UNL     1       1.180   3.315  20.839  0.00  0.00    +0.000 A 
ATOM     18  C   UNL     1       0.840   2.597  19.690  0.00  0.00    +0.000 A 
ATOM     19  C   UNL     1       1.132   3.127  18.433  0.00  0.00    +0.000 A 
ATOM     20  C   UNL     1       1.766   4.369  18.328  0.00  0.00    +0.000 A 
ENDBRANCH  14  15
ENDBRANCH  13  14
ENDBRANCH  12  13
ENDBRANCH   1  12
TORSDOF 7
ENDMDL
MODEL 8
REMARK VINA RESULT:      -6.1      3.525      5.111
REMARK  Name = 
REMARK  9 active torsions:
REMARK  status: ('A' for Active; 'I' for Inactive)
REMARK    1  A    between atoms: C_1  and  C_2
REMARK    2  A    between atoms: C_4  and  C_5
REMARK    3  A    between atoms: N_6  and  C_7
REMARK    4  A    between atoms: C_7  and  C_8
REMARK    5  A    between atoms: C_8  and  O_9
REMARK    6  A    between atoms: C_8  and  C_10
REMARK    7  A    between atoms: C_10  and  O_11
REMARK    8  A    between atoms: O_11  and  C_12
REMARK    9  A    between atoms: C_12  and  C_13
REMARK                            x       y       z     vdW  Elec       q    Type
REMARK                         _______ _______ _______ _____ _____    ______ ____
ROOT
ATOM      1  C   UNL     1       7.056   5.848  18.410  0.00  0.00    +0.000 C 
ENDROOT
BRANCH   1   2
ATOM      2  O   UNL     1       8.113   6.617  18.995  0.00  0.00    +0.000 OA
ATOM      3  H   UNL     1       7.864   6.849  19.907  0.00  0.00    +0.000 HD
ENDBRANCH   1   2
BRANCH   1   4
ATOM      4  C   UNL     1       5.972   5.438  19.418  0.00  0.00    +0.000 C 
BRANCH   4  10
ATOM      5  C   UNL     1       3.065   1.853  18.015  0.00  0.00    +0.000 C 
ATOM      6  C   UNL     1       3.557   3.243  18.160  0.00  0.00    +0.000 A 
ATOM      7  C   UNL     1       3.053   4.416  17.558  0.00  0.00    +0.000 A 
ATOM      8  C   UNL     1       3.871   5.436  17.997  0.00  0.00    +0.000 A 
ATOM      9  C   UNL     1       3.854   6.887  17.691  0.00  0.00    +0.000 C 
ATOM     10  N   UNL     1       4.792   4.839  18.823  0.00  0.00    +0.000 N 
ATOM     11  N   UNL     1       4.625   3.503  18.925  0.00  0.00    +0.000 NA
ENDBRANCH   4  10
ENDBRANCH   1   4
BRANCH   1  12
ATOM     12  C   UNL     1       7.683   4.596  17.784  0.00  0.00    +0.000 C 
BRANCH  12  13
ATOM     13  O   UNL     1       7.769   4.744  16.368  0.00  0.00    +0.000 OA
BRANCH  13  14
ATOM     14  C   UNL     1       6.480   4.816  15.766  0.00  0.00    +0.000 C 
BRANCH  14  15
ATOM     15  C   UNL     1       6.634   4.508  14.300  0.00  0.00    +0.000 A 
ATOM     16  C   UNL     1       7.612   5.153  13.530  0.00  0.00    +0.000 A 
ATOM     17  C   UNL     1       7.727   4.893  12.166  0.00  0.00    +0.000 A 
ATOM     18  C   UNL     1       6.862   3.986  11.548  0.00  0.00    +0.000 A 
ATOM     19  C   UNL     1       5.886   3.338  12.305  0.00  0.00    +0.000 A 
ATOM     20  C   UNL     1       5.774   3.600  13.674  0.00  0.00    +0.000 A 
ENDBRANCH  14  15
ENDBRANCH  13  14
ENDBRANCH  12  13
ENDBRANCH   1  12
TORSDOF 7
ENDMDL
MODEL 9
REMARK VINA RESULT:      -6.1      3.946      7.115
REMARK  Name = 
REMARK  9 active torsions:
REMARK  status: ('A' for Active; 'I' for Inactive)
REMARK    1  A    between atoms: C_1  and  C_2
REMARK    2  A    between atoms: C_4  and  C_5
REMARK    3  A    between atoms: N_6  and  C_7
REMARK    4  A    between atoms: C_7  and  C_8
REMARK    5  A    between atoms: C_8  and  O_9
REMARK    6  A    between atoms: C_8  and  C_10
REMARK    7  A    between atoms: C_10  and  O_11
REMARK    8  A    between atoms: O_11  and  C_12
REMARK    9  A    between atoms: C_12  and  C_13
REMARK                            x       y       z     vdW  Elec       q    Type
REMARK                         _______ _______ _______ _____ _____    ______ ____
ROOT
ATOM      1  C   UNL     1       6.006   5.791  16.116  0.00  0.00    +0.000 C 
ENDROOT
BRANCH   1   2
ATOM      2  O   UNL     1       5.233   6.517  15.153  0.00  0.00    +0.000 OA
ATOM      3  H   UNL     1       4.910   7.338  15.565  0.00  0.00    +0.000 HD
ENDBRANCH   1   2
BRANCH   1   4
ATOM      4  C   UNL     1       7.050   4.862  15.481  0.00  0.00    +0.000 C 
BRANCH   4  10
ATOM      5  C   UNL     1       5.104   2.614  11.682  0.00  0.00    +0.000 C 
ATOM      6  C   UNL     1       6.003   3.532  12.421  0.00  0.00    +0.000 A 
ATOM      7  C   UNL     1       7.078   4.295  11.917  0.00  0.00    +0.000 A 
ATOM      8  C   UNL     1       7.601   4.959  13.006  0.00  0.00    +0.000 A 
ATOM      9  C   UNL     1       8.751   5.890  13.110  0.00  0.00    +0.000 C 
ATOM     10  N   UNL     1       6.828   4.576  14.076  0.00  0.00    +0.000 N 
ATOM     11  N   UNL     1       5.858   3.699  13.741  0.00  0.00    +0.000 NA
ENDBRANCH   4  10
ENDBRANCH   1   4
BRANCH   1  12
ATOM     12  C   UNL     1       5.031   4.970  16.969  0.00  0.00    +0.000 C 
BRANCH  12  13
ATOM     13  O   UNL     1       4.533   5.763  18.046  0.00  0.00    +0.000 OA
BRANCH  13  14
ATOM     14  C   UNL     1       3.128   5.971  17.941  0.00  0.00    +0.000 C 
BRANCH  14  15
ATOM     15  C   UNL     1       2.441   4.930  18.785  0.00  0.00    +0.000 A 
ATOM     16  C   UNL     1       1.661   3.926  18.194  0.00  0.00    +0.000 A 
ATOM     17  C   UNL     1       0.997   2.987  18.981  0.00  0.00    +0.000 A 
ATOM     18  C   UNL     1       1.098   3.040  20.373  0.00  0.00    +0.000 A 
ATOM     19  C   UNL     1       1.872   4.034  20.972  0.00  0.00    +0.000 A 
ATOM     20  C   UNL     1       2.538   4.974  20.180  0.00  0.00    +0.000 A 
ENDBRANCH  14  15
ENDBRANCH  13  14
ENDBRANCH  12  13
ENDBRANCH   1  12
TORSDOF 7
ENDMDL
