MODEL 1
REMARK VINA RESULT:      -7.5      0.000      0.000
REMARK  Name = 
REMARK  12 active torsions:
REMARK  status: ('A' for Active; 'I' for Inactive)
REMARK    1  A    between atoms: C_1  and  O_2
REMARK    2  A    between atoms: O_2  and  C_3
REMARK    3  A    between atoms: C_7  and  N_8
REMARK    4  A    between atoms: C_9  and  C_11
REMARK    5  A    between atoms: C_11  and  N_12
REMARK    6  A    between atoms: N_12  and  C_13
REMARK    7  A    between atoms: N_12  and  C_14
REMARK    8  A    between atoms: C_14  and  C_15
REMARK    9  A    between atoms: C_14  and  C_16
REMARK   10  A    between atoms: N_18  and  C_19
REMARK   11  A    between atoms: C_22  and  S_23
REMARK   12  A    between atoms: S_23  and  N_26
REMARK                            x       y       z     vdW  Elec       q    Type
REMARK                         _______ _______ _______ _____ _____    ______ ____
ROOT
ATOM      1  C   UNL     1       1.852   5.888  20.137  0.00  0.00    +0.000 C 
ATOM      2  O   UNL     1       2.727   6.172  19.322  0.00  0.00    +0.000 OA
ATOM      3  N   UNL     1       1.086   6.791  20.859  0.00  0.00    +0.000 N 
ATOM      4  H   UNL     1       0.568   6.386  21.632  0.00  0.00    +0.000 HD
ENDROOT
BRANCH   3   5
ATOM      5  C   UNL     1       1.083   8.195  20.728  0.00  0.00    +0.000 A 
ATOM      6  C   UNL     1       1.168   8.849  19.496  0.00  0.00    +0.000 A 
ATOM      7  C   UNL     1       1.120  10.251  19.418  0.00  0.00    +0.000 A 
ATOM      8  C   UNL     1       0.965  11.008  20.578  0.00  0.00    +0.000 A 
ATOM      9  C   UNL     1       0.942  10.369  21.823  0.00  0.00    +0.000 A 
ATOM     10  C   UNL     1       0.974   8.968  21.893  0.00  0.00    +0.000 A 
BRANCH   8  11
ATOM     11  S   UNL     1       0.960  12.792  20.483  0.00  0.00    +0.000 S 
ATOM     12  O   UNL     1       0.072  13.139  19.390  0.00  0.00    +0.000 OA
ATOM     13  O   UNL     1       0.706  13.290  21.822  0.00  0.00    +0.000 OA
BRANCH  11  14
ATOM     14  N   UNL     1       2.516  13.262  20.041  0.00  0.00    +0.000 NA
ATOM     15  C   UNL     1       3.337  14.105  20.941  0.00  0.00    +0.000 C 
ATOM     16  C   UNL     1       3.191  15.585  20.575  0.00  0.00    +0.000 C 
ATOM     17  O   UNL     1       3.452  15.841  19.187  0.00  0.00    +0.000 OA
ATOM     18  C   UNL     1       2.684  15.011  18.302  0.00  0.00    +0.000 C 
ATOM     19  C   UNL     1       2.853  13.526  18.624  0.00  0.00    +0.000 C 
ENDBRANCH  11  14
ENDBRANCH   8  11
ENDBRANCH   3   5
BRANCH   1  20
ATOM     20  C   UNL     1       1.511   4.407  20.437  0.00  0.00    +0.000 C 
ATOM     21  C   UNL     1       2.274   4.019  21.710  0.00  0.00    +0.000 C 
BRANCH  20  22
ATOM     22  N   UNL     1       1.841   3.530  19.262  0.00  0.00    +0.000 NA
ATOM     23  C   UNL     1       0.669   2.667  18.956  0.00  0.00    +0.000 C 
BRANCH  22  24
ATOM     24  C   UNL     1       2.979   2.625  19.623  0.00  0.00    +0.000 C 
BRANCH  24  26
ATOM     25  N   UNL     1       4.101   3.699  17.760  0.00  0.00    +0.000 N 
ATOM     26  C   UNL     1       4.291   3.108  19.000  0.00  0.00    +0.000 C 
ATOM     27  O   UNL     1       5.361   2.944  19.586  0.00  0.00    +0.000 OA
ATOM     28  H   UNL     1       3.168   3.589  17.378  0.00  0.00    +0.000 HD
BRANCH  25  33
ATOM     29  C   UNL     1       6.697   5.994  16.469  0.00  0.00    +0.000 A 
ATOM     30  C   UNL     1       7.077   5.351  15.291  0.00  0.00    +0.000 A 
ATOM     31  C   UNL     1       6.475   4.152  14.919  0.00  0.00    +0.000 A 
ATOM     32  C   UNL     1       5.486   3.592  15.731  0.00  0.00    +0.000 A 
ATOM     33  C   UNL     1       5.105   4.215  16.915  0.00  0.00    +0.000 A 
ATOM     34  C   UNL     1       5.729   5.413  17.294  0.00  0.00    +0.000 A 
BRANCH  29  36
ATOM     35  C   UNL     1       7.832   7.328  18.059  0.00  0.00    +0.000 C 
ATOM     36  O   UNL     1       7.362   7.161  16.726  0.00  0.00    +0.000 OA
ENDBRANCH  29  36
ENDBRANCH  25  33
ENDBRANCH  24  26
ENDBRANCH  22  24
ENDBRANCH  20  22
ENDBRANCH   1  20
TORSDOF 9
ENDMDL
MODEL 2
REMARK VINA RESULT:      -7.3      2.848      8.996
REMARK  Name = 
REMARK  12 active torsions:
REMARK  status: ('A' for Active; 'I' for Inactive)
REMARK    1  A    between atoms: C_1  and  O_2
REMARK    2  A    between atoms: O_2  and  C_3
REMARK    3  A    between atoms: C_7  and  N_8
REMARK    4  A    between atoms: C_9  and  C_11
REMARK    5  A    between atoms: C_11  and  N_12
REMARK    6  A    between atoms: N_12  and  C_13
REMARK    7  A    between atoms: N_12  and  C_14
REMARK    8  A    between atoms: C_14  and  C_15
REMARK    9  A    between atoms: C_14  and  C_16
REMARK   10  A    between atoms: N_18  and  C_19
REMARK   11  A    between atoms: C_22  and  S_23
REMARK   12  A    between atoms: S_23  and  N_26
REMARK                            x       y       z     vdW  Elec       q    Type
REMARK                         _______ _______ _______ _____ _____    ______ ____
ROOT
ATOM      1  C   UNL     1      -0.689  10.715  19.154  0.00  0.00    +0.000 C 
ATOM      2  O   UNL     1      -1.462   9.958  18.571  0.00  0.00    +0.000 OA
ATOM      3  N   UNL     1       0.627  10.435  19.493  0.00  0.00    +0.000 N 
ATOM      4  H   UNL     1       1.043  11.084  20.152  0.00  0.00    +0.000 HD
ENDROOT
BRANCH   3   5
ATOM      5  C   UNL     1       1.364   9.284  19.148  0.00  0.00    +0.000 A 
ATOM      6  C   UNL     1       1.978   9.111  17.905  0.00  0.00    +0.000 A 
ATOM      7  C   UNL     1       2.736   7.962  17.626  0.00  0.00    +0.000 A 
ATOM      8  C   UNL     1       2.901   6.983  18.605  0.00  0.00    +0.000 A 
ATOM      9  C   UNL     1       2.240   7.114  19.832  0.00  0.00    +0.000 A 
ATOM     10  C   UNL     1       1.498   8.271  20.109  0.00  0.00    +0.000 A 
BRANCH   8  11
ATOM     11  S   UNL     1       3.819   5.497  18.232  0.00  0.00    +0.000 S 
ATOM     12  O   UNL     1       4.351   5.019  19.494  0.00  0.00    +0.000 OA
ATOM     13  O   UNL     1       2.954   4.651  17.432  0.00  0.00    +0.000 OA
BRANCH  11  14
ATOM     14  N   UNL     1       5.126   5.958  17.273  0.00  0.00    +0.000 NA
ATOM     15  C   UNL     1       5.307   5.392  15.917  0.00  0.00    +0.000 C 
ATOM     16  C   UNL     1       6.247   4.183  15.957  0.00  0.00    +0.000 C 
ATOM     17  O   UNL     1       7.493   4.472  16.607  0.00  0.00    +0.000 OA
ATOM     18  C   UNL     1       7.333   5.047  17.913  0.00  0.00    +0.000 C 
ATOM     19  C   UNL     1       6.435   6.284  17.884  0.00  0.00    +0.000 C 
ENDBRANCH  11  14
ENDBRANCH   8  11
ENDBRANCH   3   5
BRANCH   1  20
ATOM     20  C   UNL     1      -1.151  12.131  19.579  0.00  0.00    +0.000 C 
ATOM     21  C   UNL     1      -0.807  13.081  18.424  0.00  0.00    +0.000 C 
BRANCH  20  22
ATOM     22  N   UNL     1      -0.521  12.535  20.882  0.00  0.00    +0.000 NA
ATOM     23  C   UNL     1      -1.590  12.742  21.895  0.00  0.00    +0.000 C 
BRANCH  22  24
ATOM     24  C   UNL     1       0.186  13.844  20.706  0.00  0.00    +0.000 C 
BRANCH  24  26
ATOM     25  N   UNL     1       2.297  14.649  19.825  0.00  0.00    +0.000 N 
ATOM     26  C   UNL     1       1.697  13.645  20.570  0.00  0.00    +0.000 C 
ATOM     27  O   UNL     1       2.250  12.670  21.078  0.00  0.00    +0.000 OA
ATOM     28  H   UNL     1       1.650  15.271  19.354  0.00  0.00    +0.000 HD
BRANCH  25  33
ATOM     29  C   UNL     1       5.943  15.099  20.249  0.00  0.00    +0.000 A 
ATOM     30  C   UNL     1       6.393  14.986  18.934  0.00  0.00    +0.000 A 
ATOM     31  C   UNL     1       5.490  14.757  17.899  0.00  0.00    +0.000 A 
ATOM     32  C   UNL     1       4.126  14.642  18.182  0.00  0.00    +0.000 A 
ATOM     33  C   UNL     1       3.664  14.742  19.490  0.00  0.00    +0.000 A 
ATOM     34  C   UNL     1       4.581  14.953  20.531  0.00  0.00    +0.000 A 
BRANCH  29  36
ATOM     35  C   UNL     1       8.046  14.447  21.113  0.00  0.00    +0.000 C 
ATOM     36  O   UNL     1       6.925  15.321  21.175  0.00  0.00    +0.000 OA
ENDBRANCH  29  36
ENDBRANCH  25  33
ENDBRANCH  24  26
ENDBRANCH  22  24
ENDBRANCH  20  22
ENDBRANCH   1  20
TORSDOF 9
ENDMDL
MODEL 3
REMARK VINA RESULT:      -7.2      3.747      9.572
REMARK  Name = 
REMARK  12 active torsions:
REMARK  status: ('A' for Active; 'I' for Inactive)
REMARK    1  A    between atoms: C_1  and  O_2
REMARK    2  A    between atoms: O_2  and  C_3
REMARK    3  A    between atoms: C_7  and  N_8
REMARK    4  A    between atoms: C_9  and  C_11
REMARK    5  A    between atoms: C_11  and  N_12
REMARK    6  A    between atoms: N_12  and  C_13
REMARK    7  A    between atoms: N_12  and  C_14
REMARK    8  A    between atoms: C_14  and  C_15
REMARK    9  A    between atoms: C_14  and  C_16
REMARK   10  A    between atoms: N_18  and  C_19
REMARK   11  A    between atoms: C_22  and  S_23
REMARK   12  A    between atoms: S_23  and  N_26
REMARK                            x       y       z     vdW  Elec       q    Type
REMARK                         _______ _______ _______ _____ _____    ______ ____
ROOT
ATOM      1  C   UNL     1       0.974   9.649  20.457  0.00  0.00    +0.000 C 
ATOM      2  O   UNL     1       0.490   9.745  19.332  0.00  0.00    +0.000 OA
ATOM      3  N   UNL     1       1.559   8.513  21.000  0.00  0.00    +0.000 N 
ATOM      4  H   UNL     1       1.709   8.551  22.002  0.00  0.00    +0.000 HD
ENDROOT
BRANCH   3   5
ATOM      5  C   UNL     1       1.806   7.291  20.342  0.00  0.00    +0.000 A 
ATOM      6  C   UNL     1       1.597   6.045  20.939  0.00  0.00    +0.000 A 
ATOM      7  C   UNL     1       1.820   4.856  20.225  0.00  0.00    +0.000 A 
ATOM      8  C   UNL     1       2.238   4.910  18.896  0.00  0.00    +0.000 A 
ATOM      9  C   UNL     1       2.512   6.149  18.307  0.00  0.00    +0.000 A 
ATOM     10  C   UNL     1       2.271   7.333  19.020  0.00  0.00    +0.000 A 
BRANCH   8  11
ATOM     11  S   UNL     1       2.575   3.397  18.006  0.00  0.00    +0.000 S 
ATOM     12  O   UNL     1       2.133   2.314  18.864  0.00  0.00    +0.000 OA
ATOM     13  O   UNL     1       2.021   3.553  16.675  0.00  0.00    +0.000 OA
BRANCH  11  14
ATOM     14  N   UNL     1       4.250   3.279  17.862  0.00  0.00    +0.000 NA
ATOM     15  C   UNL     1       5.128   3.506  19.032  0.00  0.00    +0.000 C 
ATOM     16  C   UNL     1       5.612   4.959  19.070  0.00  0.00    +0.000 C 
ATOM     17  O   UNL     1       6.216   5.374  17.836  0.00  0.00    +0.000 OA
ATOM     18  C   UNL     1       5.386   5.134  16.689  0.00  0.00    +0.000 C 
ATOM     19  C   UNL     1       4.931   3.677  16.609  0.00  0.00    +0.000 C 
ENDBRANCH  11  14
ENDBRANCH   8  11
ENDBRANCH   3   5
BRANCH   1  20
ATOM     20  C   UNL     1       0.975  10.865  21.416  0.00  0.00    +0.000 C 
ATOM     21  C   UNL     1      -0.163  10.646  22.422  0.00  0.00    +0.000 C 
BRANCH  20  22
ATOM     22  N   UNL     1       0.847  12.153  20.654  0.00  0.00    +0.000 NA
ATOM     23  C   UNL     1       1.997  13.033  20.990  0.00  0.00    +0.000 C 
BRANCH  22  24
ATOM     24  C   UNL     1      -0.399  12.863  21.085  0.00  0.00    +0.000 C 
BRANCH  24  26
ATOM     25  N   UNL     1      -1.892  11.723  19.550  0.00  0.00    +0.000 N 
ATOM     26  C   UNL     1      -1.406  12.963  19.936  0.00  0.00    +0.000 C 
ATOM     27  O   UNL     1      -1.694  14.056  19.448  0.00  0.00    +0.000 OA
ATOM     28  H   UNL     1      -1.410  10.933  19.962  0.00  0.00    +0.000 HD
BRANCH  25  33
ATOM     29  C   UNL     1      -3.244  10.370  16.385  0.00  0.00    +0.000 A 
ATOM     30  C   UNL     1      -4.520  10.934  16.364  0.00  0.00    +0.000 A 
ATOM     31  C   UNL     1      -4.940  11.764  17.400  0.00  0.00    +0.000 A 
ATOM     32  C   UNL     1      -4.076  12.033  18.465  0.00  0.00    +0.000 A 
ATOM     33  C   UNL     1      -2.805  11.469  18.506  0.00  0.00    +0.000 A 
ATOM     34  C   UNL     1      -2.396  10.618  17.469  0.00  0.00    +0.000 A 
BRANCH  29  36
ATOM     35  C   UNL     1      -3.161  10.152  14.032  0.00  0.00    +0.000 C 
ATOM     36  O   UNL     1      -2.951   9.573  15.314  0.00  0.00    +0.000 OA
ENDBRANCH  29  36
ENDBRANCH  25  33
ENDBRANCH  24  26
ENDBRANCH  22  24
ENDBRANCH  20  22
ENDBRANCH   1  20
TORSDOF 9
ENDMDL
MODEL 4
REMARK VINA RESULT:      -7.2      3.897      9.673
REMARK  Name = 
REMARK  12 active torsions:
REMARK  status: ('A' for Active; 'I' for Inactive)
REMARK    1  A    between atoms: C_1  and  O_2
REMARK    2  A    between atoms: O_2  and  C_3
REMARK    3  A    between atoms: C_7  and  N_8
REMARK    4  A    between atoms: C_9  and  C_11
REMARK    5  A    between atoms: C_11  and  N_12
REMARK    6  A    between atoms: N_12  and  C_13
REMARK    7  A    between atoms: N_12  and  C_14
REMARK    8  A    between atoms: C_14  and  C_15
REMARK    9  A    between atoms: C_14  and  C_16
REMARK   10  A    between atoms: N_18  and  C_19
REMARK   11  A    between atoms: C_22  and  S_23
REMARK   12  A    between atoms: S_23  and  N_26
REMARK                            x       y       z     vdW  Elec       q    Type
REMARK                         _______ _______ _______ _____ _____    ______ ____
ROOT
ATOM      1  C   UNL     1       0.657   9.896  20.535  0.00  0.00    +0.000 C 
ATOM      2  O   UNL     1       0.398  10.132  19.357  0.00  0.00    +0.000 OA
ATOM      3  N   UNL     1       1.284   8.759  21.021  0.00  0.00    +0.000 N 
ATOM      4  H   UNL     1       1.224   8.637  22.026  0.00  0.00    +0.000 HD
ENDROOT
BRANCH   3   5
ATOM      5  C   UNL     1       1.838   7.707  20.263  0.00  0.00    +0.000 A 
ATOM      6  C   UNL     1       1.933   6.393  20.731  0.00  0.00    +0.000 A 
ATOM      7  C   UNL     1       2.457   5.374  19.919  0.00  0.00    +0.000 A 
ATOM      8  C   UNL     1       2.870   5.662  18.619  0.00  0.00    +0.000 A 
ATOM      9  C   UNL     1       2.839   6.984  18.161  0.00  0.00    +0.000 A 
ATOM     10  C   UNL     1       2.301   7.995  18.971  0.00  0.00    +0.000 A 
BRANCH   8  11
ATOM     11  S   UNL     1       3.587   4.376  17.607  0.00  0.00    +0.000 S 
ATOM     12  O   UNL     1       4.325   3.513  18.508  0.00  0.00    +0.000 OA
ATOM     13  O   UNL     1       2.521   3.839  16.783  0.00  0.00    +0.000 OA
BRANCH  11  14
ATOM     14  N   UNL     1       4.705   5.121  16.590  0.00  0.00    +0.000 NA
ATOM     15  C   UNL     1       5.058   4.520  15.283  0.00  0.00    +0.000 C 
ATOM     16  C   UNL     1       6.314   3.653  15.409  0.00  0.00    +0.000 C 
ATOM     17  O   UNL     1       7.413   4.354  16.010  0.00  0.00    +0.000 OA
ATOM     18  C   UNL     1       7.078   4.967  17.265  0.00  0.00    +0.000 C 
ATOM     19  C   UNL     1       5.853   5.872  17.148  0.00  0.00    +0.000 C 
ENDBRANCH  11  14
ENDBRANCH   8  11
ENDBRANCH   3   5
BRANCH   1  20
ATOM     20  C   UNL     1       0.284  10.918  21.638  0.00  0.00    +0.000 C 
ATOM     21  C   UNL     1      -0.712  10.224  22.576  0.00  0.00    +0.000 C 
BRANCH  20  22
ATOM     22  N   UNL     1      -0.257  12.185  21.039  0.00  0.00    +0.000 NA
ATOM     23  C   UNL     1       0.628  13.319  21.419  0.00  0.00    +0.000 C 
BRANCH  22  24
ATOM     24  C   UNL     1      -1.612  12.465  21.611  0.00  0.00    +0.000 C 
BRANCH  24  26
ATOM     25  N   UNL     1      -2.304  11.666  19.428  0.00  0.00    +0.000 N 
ATOM     26  C   UNL     1      -2.693  12.415  20.528  0.00  0.00    +0.000 C 
ATOM     27  O   UNL     1      -3.760  13.009  20.679  0.00  0.00    +0.000 OA
ATOM     28  H   UNL     1      -1.327  11.396  19.424  0.00  0.00    +0.000 HD
BRANCH  25  33
ATOM     29  C   UNL     1      -3.093  10.647  15.961  0.00  0.00    +0.000 A 
ATOM     30  C   UNL     1      -4.433  11.019  15.860  0.00  0.00    +0.000 A 
ATOM     31  C   UNL     1      -5.083  11.607  16.941  0.00  0.00    +0.000 A 
ATOM     32  C   UNL     1      -4.387  11.827  18.133  0.00  0.00    +0.000 A 
ATOM     33  C   UNL     1      -3.053  11.451  18.253  0.00  0.00    +0.000 A 
ATOM     34  C   UNL     1      -2.409  10.840  17.166  0.00  0.00    +0.000 A 
BRANCH  29  36
ATOM     35  C   UNL     1      -3.429  10.032  13.703  0.00  0.00    +0.000 C 
ATOM     36  O   UNL     1      -2.568  10.078  14.835  0.00  0.00    +0.000 OA
ENDBRANCH  29  36
ENDBRANCH  25  33
ENDBRANCH  24  26
ENDBRANCH  22  24
ENDBRANCH  20  22
ENDBRANCH   1  20
TORSDOF 9
ENDMDL
MODEL 5
REMARK VINA RESULT:      -7.1      2.868      9.458
REMARK  Name = 
REMARK  12 active torsions:
REMARK  status: ('A' for Active; 'I' for Inactive)
REMARK    1  A    between atoms: C_1  and  O_2
REMARK    2  A    between atoms: O_2  and  C_3
REMARK    3  A    between atoms: C_7  and  N_8
REMARK    4  A    between atoms: C_9  and  C_11
REMARK    5  A    between atoms: C_11  and  N_12
REMARK    6  A    between atoms: N_12  and  C_13
REMARK    7  A    between atoms: N_12  and  C_14
REMARK    8  A    between atoms: C_14  and  C_15
REMARK    9  A    between atoms: C_14  and  C_16
REMARK   10  A    between atoms: N_18  and  C_19
REMARK   11  A    between atoms: C_22  and  S_23
REMARK   12  A    between atoms: S_23  and  N_26
REMARK                            x       y       z     vdW  Elec       q    Type
REMARK                         _______ _______ _______ _____ _____    ______ ____
ROOT
ATOM      1  C   UNL     1       0.356  11.561  20.378  0.00  0.00    +0.000 C 
ATOM      2  O   UNL     1       1.370  11.738  21.050  0.00  0.00    +0.000 OA
ATOM      3  N   UNL     1       0.150  10.534  19.467  0.00  0.00    +0.000 N 
ATOM      4  H   UNL     1      -0.648  10.664  18.855  0.00  0.00    +0.000 HD
ENDROOT
BRANCH   3   5
ATOM      5  C   UNL     1       1.007   9.444  19.211  0.00  0.00    +0.000 A 
ATOM      6  C   UNL     1       1.682   9.269  18.000  0.00  0.00    +0.000 A 
ATOM      7  C   UNL     1       2.556   8.187  17.810  0.00  0.00    +0.000 A 
ATOM      8  C   UNL     1       2.776   7.280  18.846  0.00  0.00    +0.000 A 
ATOM      9  C   UNL     1       2.058   7.407  20.040  0.00  0.00    +0.000 A 
ATOM     10  C   UNL     1       1.199   8.500  20.229  0.00  0.00    +0.000 A 
BRANCH   8  11
ATOM     11  S   UNL     1       3.845   5.872  18.584  0.00  0.00    +0.000 S 
ATOM     12  O   UNL     1       4.992   6.364  17.845  0.00  0.00    +0.000 OA
ATOM     13  O   UNL     1       4.022   5.226  19.871  0.00  0.00    +0.000 OA
BRANCH  11  14
ATOM     14  N   UNL     1       3.013   4.807  17.578  0.00  0.00    +0.000 NA
ATOM     15  C   UNL     1       1.576   4.523  17.798  0.00  0.00    +0.000 C 
ATOM     16  C   UNL     1       1.400   3.263  18.651  0.00  0.00    +0.000 C 
ATOM     17  O   UNL     1       2.112   2.134  18.125  0.00  0.00    +0.000 OA
ATOM     18  C   UNL     1       3.501   2.402  17.880  0.00  0.00    +0.000 C 
ATOM     19  C   UNL     1       3.695   3.631  16.991  0.00  0.00    +0.000 C 
ENDBRANCH  11  14
ENDBRANCH   8  11
ENDBRANCH   3   5
BRANCH   1  20
ATOM     20  C   UNL     1      -0.848  12.526  20.507  0.00  0.00    +0.000 C 
ATOM     21  C   UNL     1      -1.787  12.234  19.329  0.00  0.00    +0.000 C 
BRANCH  20  22
ATOM     22  N   UNL     1      -0.389  13.956  20.553  0.00  0.00    +0.000 NA
ATOM     23  C   UNL     1      -1.555  14.830  20.851  0.00  0.00    +0.000 C 
BRANCH  22  24
ATOM     24  C   UNL     1       0.134  14.354  19.208  0.00  0.00    +0.000 C 
BRANCH  24  26
ATOM     25  N   UNL     1       2.552  14.265  19.379  0.00  0.00    +0.000 N 
ATOM     26  C   UNL     1       1.456  15.115  19.328  0.00  0.00    +0.000 C 
ATOM     27  O   UNL     1       1.469  16.344  19.385  0.00  0.00    +0.000 OA
ATOM     28  H   UNL     1       2.321  13.284  19.486  0.00  0.00    +0.000 HD
BRANCH  25  33
ATOM     29  C   UNL     1       6.066  14.964  18.467  0.00  0.00    +0.000 A 
ATOM     30  C   UNL     1       6.604  15.342  19.697  0.00  0.00    +0.000 A 
ATOM     31  C   UNL     1       5.803  15.369  20.836  0.00  0.00    +0.000 A 
ATOM     32  C   UNL     1       4.454  15.015  20.743  0.00  0.00    +0.000 A 
ATOM     33  C   UNL     1       3.901  14.647  19.521  0.00  0.00    +0.000 A 
ATOM     34  C   UNL     1       4.709  14.641  18.373  0.00  0.00    +0.000 A 
BRANCH  29  36
ATOM     35  C   UNL     1       8.267  15.426  17.733  0.00  0.00    +0.000 C 
ATOM     36  O   UNL     1       6.951  14.980  17.425  0.00  0.00    +0.000 OA
ENDBRANCH  29  36
ENDBRANCH  25  33
ENDBRANCH  24  26
ENDBRANCH  22  24
ENDBRANCH  20  22
ENDBRANCH   1  20
TORSDOF 9
ENDMDL
MODEL 6
REMARK VINA RESULT:      -7.1      1.819      2.390
REMARK  Name = 
REMARK  12 active torsions:
REMARK  status: ('A' for Active; 'I' for Inactive)
REMARK    1  A    between atoms: C_1  and  O_2
REMARK    2  A    between atoms: O_2  and  C_3
REMARK    3  A    between atoms: C_7  and  N_8
REMARK    4  A    between atoms: C_9  and  C_11
REMARK    5  A    between atoms: C_11  and  N_12
REMARK    6  A    between atoms: N_12  and  C_13
REMARK    7  A    between atoms: N_12  and  C_14
REMARK    8  A    between atoms: C_14  and  C_15
REMARK    9  A    between atoms: C_14  and  C_16
REMARK   10  A    between atoms: N_18  and  C_19
REMARK   11  A    between atoms: C_22  and  S_23
REMARK   12  A    between atoms: S_23  and  N_26
REMARK                            x       y       z     vdW  Elec       q    Type
REMARK                         _______ _______ _______ _____ _____    ______ ____
ROOT
ATOM      1  C   UNL     1       1.617   5.940  20.422  0.00  0.00    +0.000 C 
ATOM      2  O   UNL     1       2.485   6.377  19.668  0.00  0.00    +0.000 OA
ATOM      3  N   UNL     1       0.786   6.697  21.235  0.00  0.00    +0.000 N 
ATOM      4  H   UNL     1       0.284   6.167  21.939  0.00  0.00    +0.000 HD
ENDROOT
BRANCH   3   5
ATOM      5  C   UNL     1       0.697   8.103  21.282  0.00  0.00    +0.000 A 
ATOM      6  C   UNL     1       1.213   8.936  20.285  0.00  0.00    +0.000 A 
ATOM      7  C   UNL     1       1.062  10.330  20.360  0.00  0.00    +0.000 A 
ATOM      8  C   UNL     1       0.372  10.899  21.430  0.00  0.00    +0.000 A 
ATOM      9  C   UNL     1      -0.094  10.082  22.466  0.00  0.00    +0.000 A 
ATOM     10  C   UNL     1       0.046   8.689  22.377  0.00  0.00    +0.000 A 
BRANCH   8  11
ATOM     11  S   UNL     1       0.229  12.676  21.553  0.00  0.00    +0.000 S 
ATOM     12  O   UNL     1      -0.232  12.955  22.899  0.00  0.00    +0.000 OA
ATOM     13  O   UNL     1       1.476  13.239  21.071  0.00  0.00    +0.000 OA
BRANCH  11  14
ATOM     14  N   UNL     1      -0.995  13.142  20.492  0.00  0.00    +0.000 NA
ATOM     15  C   UNL     1      -2.153  12.255  20.237  0.00  0.00    +0.000 C 
ATOM     16  C   UNL     1      -1.913  11.400  18.988  0.00  0.00    +0.000 C 
ATOM     17  O   UNL     1      -1.553  12.184  17.841  0.00  0.00    +0.000 OA
ATOM     18  C   UNL     1      -0.448  13.070  18.083  0.00  0.00    +0.000 C 
ATOM     19  C   UNL     1      -0.691  13.963  19.299  0.00  0.00    +0.000 C 
ENDBRANCH  11  14
ENDBRANCH   8  11
ENDBRANCH   3   5
BRANCH   1  20
ATOM     20  C   UNL     1       1.365   4.415  20.525  0.00  0.00    +0.000 C 
ATOM     21  C   UNL     1       2.119   3.917  21.766  0.00  0.00    +0.000 C 
BRANCH  20  22
ATOM     22  N   UNL     1       1.780   3.713  19.263  0.00  0.00    +0.000 NA
ATOM     23  C   UNL     1       0.617   2.963  18.719  0.00  0.00    +0.000 C 
BRANCH  22  24
ATOM     24  C   UNL     1       2.848   2.712  19.581  0.00  0.00    +0.000 C 
BRANCH  24  26
ATOM     25  N   UNL     1       4.159   4.137  18.120  0.00  0.00    +0.000 N 
ATOM     26  C   UNL     1       4.228   3.220  19.159  0.00  0.00    +0.000 C 
ATOM     27  O   UNL     1       5.246   2.806  19.714  0.00  0.00    +0.000 OA
ATOM     28  H   UNL     1       3.245   4.222  17.691  0.00  0.00    +0.000 HD
BRANCH  25  33
ATOM     29  C   UNL     1       7.106   6.322  17.652  0.00  0.00    +0.000 A 
ATOM     30  C   UNL     1       7.408   6.099  16.309  0.00  0.00    +0.000 A 
ATOM     31  C   UNL     1       6.638   5.221  15.552  0.00  0.00    +0.000 A 
ATOM     32  C   UNL     1       5.556   4.561  16.142  0.00  0.00    +0.000 A 
ATOM     33  C   UNL     1       5.249   4.765  17.484  0.00  0.00    +0.000 A 
ATOM     34  C   UNL     1       6.041   5.636  18.247  0.00  0.00    +0.000 A 
BRANCH  29  36
ATOM     35  C   UNL     1       7.923   8.537  17.794  0.00  0.00    +0.000 C 
ATOM     36  O   UNL     1       7.935   7.203  18.289  0.00  0.00    +0.000 OA
ENDBRANCH  29  36
ENDBRANCH  25  33
ENDBRANCH  24  26
ENDBRANCH  22  24
ENDBRANCH  20  22
ENDBRANCH   1  20
TORSDOF 9
ENDMDL
MODEL 7
REMARK VINA RESULT:      -7.1      3.898      9.585
REMARK  Name = 
REMARK  12 active torsions:
REMARK  status: ('A' for Active; 'I' for Inactive)
REMARK    1  A    between atoms: C_1  and  O_2
REMARK    2  A    between atoms: O_2  and  C_3
REMARK    3  A    between atoms: C_7  and  N_8
REMARK    4  A    between atoms: C_9  and  C_11
REMARK    5  A    between atoms: C_11  and  N_12
REMARK    6  A    between atoms: N_12  and  C_13
REMARK    7  A    between atoms: N_12  and  C_14
REMARK    8  A    between atoms: C_14  and  C_15
REMARK    9  A    between atoms: C_14  and  C_16
REMARK   10  A    between atoms: N_18  and  C_19
REMARK   11  A    between atoms: C_22  and  S_23
REMARK   12  A    between atoms: S_23  and  N_26
REMARK                            x       y       z     vdW  Elec       q    Type
REMARK                         _______ _______ _______ _____ _____    ______ ____
ROOT
ATOM      1  C   UNL     1       0.414   8.947  21.511  0.00  0.00    +0.000 C 
ATOM      2  O   UNL     1      -0.598   8.249  21.505  0.00  0.00    +0.000 OA
ATOM      3  N   UNL     1       1.645   8.605  20.970  0.00  0.00    +0.000 N 
ATOM      4  H   UNL     1       2.413   9.204  21.251  0.00  0.00    +0.000 HD
ENDROOT
BRANCH   3   5
ATOM      5  C   UNL     1       1.951   7.448  20.224  0.00  0.00    +0.000 A 
ATOM      6  C   UNL     1       2.224   7.471  18.854  0.00  0.00    +0.000 A 
ATOM      7  C   UNL     1       2.564   6.295  18.165  0.00  0.00    +0.000 A 
ATOM      8  C   UNL     1       2.651   5.086  18.854  0.00  0.00    +0.000 A 
ATOM      9  C   UNL     1       2.318   5.038  20.212  0.00  0.00    +0.000 A 
ATOM     10  C   UNL     1       1.995   6.219  20.897  0.00  0.00    +0.000 A 
BRANCH   8  11
ATOM     11  S   UNL     1       3.029   3.582  17.967  0.00  0.00    +0.000 S 
ATOM     12  O   UNL     1       2.931   2.505  18.932  0.00  0.00    +0.000 OA
ATOM     13  O   UNL     1       2.208   3.574  16.771  0.00  0.00    +0.000 OA
BRANCH  11  14
ATOM     14  N   UNL     1       4.641   3.689  17.488  0.00  0.00    +0.000 NA
ATOM     15  C   UNL     1       5.673   4.206  18.416  0.00  0.00    +0.000 C 
ATOM     16  C   UNL     1       5.899   5.705  18.190  0.00  0.00    +0.000 C 
ATOM     17  O   UNL     1       6.178   6.023  16.819  0.00  0.00    +0.000 OA
ATOM     18  C   UNL     1       5.200   5.503  15.905  0.00  0.00    +0.000 C 
ATOM     19  C   UNL     1       4.995   3.998  16.085  0.00  0.00    +0.000 C 
ENDBRANCH  11  14
ENDBRANCH   8  11
ENDBRANCH   3   5
BRANCH   1  20
ATOM     20  C   UNL     1       0.390  10.354  22.157  0.00  0.00    +0.000 C 
ATOM     21  C   UNL     1      -0.830  10.402  23.087  0.00  0.00    +0.000 C 
BRANCH  20  22
ATOM     22  N   UNL     1       0.372  11.430  21.108  0.00  0.00    +0.000 NA
ATOM     23  C   UNL     1       1.627  12.222  21.203  0.00  0.00    +0.000 C 
BRANCH  22  24
ATOM     24  C   UNL     1      -0.767  12.364  21.375  0.00  0.00    +0.000 C 
BRANCH  24  26
ATOM     25  N   UNL     1      -2.498  11.715  19.805  0.00  0.00    +0.000 N 
ATOM     26  C   UNL     1      -1.541  12.677  20.092  0.00  0.00    +0.000 C 
ATOM     27  O   UNL     1      -1.278  13.680  19.430  0.00  0.00    +0.000 OA
ATOM     28  H   UNL     1      -2.447  10.883  20.380  0.00  0.00    +0.000 HD
BRANCH  25  33
ATOM     29  C   UNL     1      -3.583  11.396  16.284  0.00  0.00    +0.000 A 
ATOM     30  C   UNL     1      -4.948  11.664  16.388  0.00  0.00    +0.000 A 
ATOM     31  C   UNL     1      -5.516  11.950  17.626  0.00  0.00    +0.000 A 
ATOM     32  C   UNL     1      -4.714  11.969  18.770  0.00  0.00    +0.000 A 
ATOM     33  C   UNL     1      -3.353  11.693  18.684  0.00  0.00    +0.000 A 
ATOM     34  C   UNL     1      -2.790  11.386  17.436  0.00  0.00    +0.000 A 
BRANCH  29  36
ATOM     35  C   UNL     1      -3.659   9.942  14.421  0.00  0.00    +0.000 C 
ATOM     36  O   UNL     1      -3.146  11.128  15.017  0.00  0.00    +0.000 OA
ENDBRANCH  29  36
ENDBRANCH  25  33
ENDBRANCH  24  26
ENDBRANCH  22  24
ENDBRANCH  20  22
ENDBRANCH   1  20
TORSDOF 9
ENDMDL
MODEL 8
REMARK VINA RESULT:      -7.1      3.665      9.411
REMARK  Name = 
REMARK  12 active torsions:
REMARK  status: ('A' for Active; 'I' for Inactive)
REMARK    1  A    between atoms: C_1  and  O_2
REMARK    2  A    between atoms: O_2  and  C_3
REMARK    3  A    between atoms: C_7  and  N_8
REMARK    4  A    between atoms: C_9  and  C_11
REMARK    5  A    between atoms: C_11  and  N_12
REMARK    6  A    between atoms: N_12  and  C_13
REMARK    7  A    between atoms: N_12  and  C_14
REMARK    8  A    between atoms: C_14  and  C_15
REMARK    9  A    between atoms: C_14  and  C_16
REMARK   10  A    between atoms: N_18  and  C_19
REMARK   11  A    between atoms: C_22  and  S_23
REMARK   12  A    between atoms: S_23  and  N_26
REMARK                            x       y       z     vdW  Elec       q    Type
REMARK                         _______ _______ _______ _____ _____    ______ ____
ROOT
ATOM      1  C   UNL     1       1.254   9.231  22.181  0.00  0.00    +0.000 C 
ATOM      2  O   UNL     1       2.432   9.393  22.491  0.00  0.00    +0.000 OA
ATOM      3  N   UNL     1       0.780   8.386  21.188  0.00  0.00    +0.000 N 
ATOM      4  H   UNL     1      -0.188   8.536  20.929  0.00  0.00    +0.000 HD
ENDROOT
BRANCH   3   5
ATOM      5  C   UNL     1       1.535   7.478  20.417  0.00  0.00    +0.000 A 
ATOM      6  C   UNL     1       2.232   7.847  19.264  0.00  0.00    +0.000 A 
ATOM      7  C   UNL     1       3.002   6.911  18.555  0.00  0.00    +0.000 A 
ATOM      8  C   UNL     1       3.096   5.598  19.011  0.00  0.00    +0.000 A 
ATOM      9  C   UNL     1       2.353   5.199  20.128  0.00  0.00    +0.000 A 
ATOM     10  C   UNL     1       1.598   6.143  20.842  0.00  0.00    +0.000 A 
BRANCH   8  11
ATOM     11  S   UNL     1       4.031   4.395  18.078  0.00  0.00    +0.000 S 
ATOM     12  O   UNL     1       4.749   3.594  19.051  0.00  0.00    +0.000 OA
ATOM     13  O   UNL     1       3.113   3.771  17.146  0.00  0.00    +0.000 OA
BRANCH  11  14
ATOM     14  N   UNL     1       5.175   5.252  17.185  0.00  0.00    +0.000 NA
ATOM     15  C   UNL     1       5.419   4.931  15.760  0.00  0.00    +0.000 C 
ATOM     16  C   UNL     1       6.593   3.956  15.621  0.00  0.00    +0.000 C 
ATOM     17  O   UNL     1       7.775   4.412  16.295  0.00  0.00    +0.000 OA
ATOM     18  C   UNL     1       7.547   4.755  17.671  0.00  0.00    +0.000 C 
ATOM     19  C   UNL     1       6.408   5.763  17.826  0.00  0.00    +0.000 C 
ENDBRANCH  11  14
ENDBRANCH   8  11
ENDBRANCH   3   5
BRANCH   1  20
ATOM     20  C   UNL     1       0.135  10.001  22.925  0.00  0.00    +0.000 C 
ATOM     21  C   UNL     1      -1.160   9.197  22.747  0.00  0.00    +0.000 C 
BRANCH  20  22
ATOM     22  N   UNL     1       0.025  11.412  22.422  0.00  0.00    +0.000 NA
ATOM     23  C   UNL     1      -1.388  11.861  22.537  0.00  0.00    +0.000 C 
BRANCH  22  24
ATOM     24  C   UNL     1       0.389  11.451  20.970  0.00  0.00    +0.000 C 
BRANCH  24  26
ATOM     25  N   UNL     1      -1.470  11.072  19.458  0.00  0.00    +0.000 N 
ATOM     26  C   UNL     1      -0.744  12.045  20.129  0.00  0.00    +0.000 C 
ATOM     27  O   UNL     1      -0.924  13.262  20.089  0.00  0.00    +0.000 OA
ATOM     28  H   UNL     1      -1.063  10.144  19.489  0.00  0.00    +0.000 HD
BRANCH  25  33
ATOM     29  C   UNL     1      -3.362  11.328  16.291  0.00  0.00    +0.000 A 
ATOM     30  C   UNL     1      -4.615  11.736  16.747  0.00  0.00    +0.000 A 
ATOM     31  C   UNL     1      -4.840  11.926  18.108  0.00  0.00    +0.000 A 
ATOM     32  C   UNL     1      -3.803  11.707  19.019  0.00  0.00    +0.000 A 
ATOM     33  C   UNL     1      -2.551  11.289  18.580  0.00  0.00    +0.000 A 
ATOM     34  C   UNL     1      -2.336  11.080  17.209  0.00  0.00    +0.000 A 
BRANCH  29  36
ATOM     35  C   UNL     1      -3.066   9.842  14.475  0.00  0.00    +0.000 C 
ATOM     36  O   UNL     1      -3.267  11.173  14.936  0.00  0.00    +0.000 OA
ENDBRANCH  29  36
ENDBRANCH  25  33
ENDBRANCH  24  26
ENDBRANCH  22  24
ENDBRANCH  20  22
ENDBRANCH   1  20
TORSDOF 9
ENDMDL
MODEL 9
REMARK VINA RESULT:      -7.0      1.907      2.634
REMARK  Name = 
REMARK  12 active torsions:
REMARK  status: ('A' for Active; 'I' for Inactive)
REMARK    1  A    between atoms: C_1  and  O_2
REMARK    2  A    between atoms: O_2  and  C_3
REMARK    3  A    between atoms: C_7  and  N_8
REMARK    4  A    between atoms: C_9  and  C_11
REMARK    5  A    between atoms: C_11  and  N_12
REMARK    6  A    between atoms: N_12  and  C_13
REMARK    7  A    between atoms: N_12  and  C_14
REMARK    8  A    between atoms: C_14  and  C_15
REMARK    9  A    between atoms: C_14  and  C_16
REMARK   10  A    between atoms: N_18  and  C_19
REMARK   11  A    between atoms: C_22  and  S_23
REMARK   12  A    between atoms: S_23  and  N_26
REMARK                            x       y       z     vdW  Elec       q    Type
REMARK                         _______ _______ _______ _____ _____    ______ ____
ROOT
ATOM      1  C   UNL     1       2.061   5.198  19.208  0.00  0.00    +0.000 C 
ATOM      2  O   UNL     1       1.645   5.446  18.078  0.00  0.00    +0.000 OA
ATOM      3  N   UNL     1       2.174   6.103  20.253  0.00  0.00    +0.000 N 
ATOM      4  H   UNL     1       2.730   5.779  21.037  0.00  0.00    +0.000 HD
ENDROOT
BRANCH   3   5
ATOM      5  C   UNL     1       1.744   7.446  20.261  0.00  0.00    +0.000 A 
ATOM      6  C   UNL     1       1.977   8.331  19.205  0.00  0.00    +0.000 A 
ATOM      7  C   UNL     1       1.491   9.648  19.246  0.00  0.00    +0.000 A 
ATOM      8  C   UNL     1       0.748  10.082  20.343  0.00  0.00    +0.000 A 
ATOM      9  C   UNL     1       0.562   9.226  21.435  0.00  0.00    +0.000 A 
ATOM     10  C   UNL     1       1.037   7.907  21.380  0.00  0.00    +0.000 A 
BRANCH   8  11
ATOM     11  S   UNL     1       0.178  11.773  20.420  0.00  0.00    +0.000 S 
ATOM     12  O   UNL     1      -1.064  11.818  19.673  0.00  0.00    +0.000 OA
ATOM     13  O   UNL     1       0.213  12.173  21.813  0.00  0.00    +0.000 OA
BRANCH  11  14
ATOM     14  N   UNL     1       1.305  12.707  19.583  0.00  0.00    +0.000 NA
ATOM     15  C   UNL     1       2.458  13.312  20.287  0.00  0.00    +0.000 C 
ATOM     16  C   UNL     1       2.140  14.750  20.708  0.00  0.00    +0.000 C 
ATOM     17  O   UNL     1       1.674  15.556  19.615  0.00  0.00    +0.000 OA
ATOM     18  C   UNL     1       0.573  14.968  18.905  0.00  0.00    +0.000 C 
ATOM     19  C   UNL     1       0.890  13.548  18.437  0.00  0.00    +0.000 C 
ENDBRANCH  11  14
ENDBRANCH   8  11
ENDBRANCH   3   5
BRANCH   1  20
ATOM     20  C   UNL     1       2.513   3.763  19.578  0.00  0.00    +0.000 C 
ATOM     21  C   UNL     1       2.750   3.744  21.094  0.00  0.00    +0.000 C 
BRANCH  20  22
ATOM     22  N   UNL     1       3.725   3.359  18.788  0.00  0.00    +0.000 NA
ATOM     23  C   UNL     1       4.110   1.973  19.164  0.00  0.00    +0.000 C 
BRANCH  22  24
ATOM     24  C   UNL     1       4.872   4.253  19.146  0.00  0.00    +0.000 C 
BRANCH  24  26
ATOM     25  N   UNL     1       5.246   4.426  16.756  0.00  0.00    +0.000 N 
ATOM     26  C   UNL     1       5.872   4.363  17.992  0.00  0.00    +0.000 C 
ATOM     27  O   UNL     1       7.083   4.373  18.211  0.00  0.00    +0.000 OA
ATOM     28  H   UNL     1       4.251   4.236  16.775  0.00  0.00    +0.000 HD
BRANCH  25  33
ATOM     29  C   UNL     1       6.036   3.658  13.226  0.00  0.00    +0.000 A 
ATOM     30  C   UNL     1       7.097   4.530  12.981  0.00  0.00    +0.000 A 
ATOM     31  C   UNL     1       7.555   5.379  13.985  0.00  0.00    +0.000 A 
ATOM     32  C   UNL     1       6.947   5.355  15.244  0.00  0.00    +0.000 A 
ATOM     33  C   UNL     1       5.881   4.499  15.499  0.00  0.00    +0.000 A 
ATOM     34  C   UNL     1       5.411   3.660  14.477  0.00  0.00    +0.000 A 
BRANCH  29  36
ATOM     35  C   UNL     1       4.439   3.205  11.541  0.00  0.00    +0.000 C 
ATOM     36  O   UNL     1       5.677   2.878  12.161  0.00  0.00    +0.000 OA
ENDBRANCH  29  36
ENDBRANCH  25  33
ENDBRANCH  24  26
ENDBRANCH  22  24
ENDBRANCH  20  22
ENDBRANCH   1  20
TORSDOF 9
ENDMDL
