MODEL 1
REMARK VINA RESULT:      -7.0      0.000      0.000
REMARK  Name = 
REMARK  3 active torsions:
REMARK  status: ('A' for Active; 'I' for Inactive)
REMARK    1  A    between atoms: C_1  and  C_2
REMARK    2  A    between atoms: N_4  and  C_5
REMARK    3  A    between atoms: C_20  and  C_21
REMARK                            x       y       z     vdW  Elec       q    Type
REMARK                         _______ _______ _______ _____ _____    ______ ____
ROOT
ATOM      1  C   UNL     1      -0.669   9.694  23.111  0.00  0.00    +0.000 C 
ATOM      2  C   UNL     1      -0.273  10.832  22.201  0.00  0.00    +0.000 C 
ATOM      3  N   UNL     1       0.955  11.124  21.778  0.00  0.00    +0.000 NA
ATOM      4  N   UNL     1       0.756  11.549  20.388  0.00  0.00    +0.000 N 
ATOM      5  C   UNL     1      -0.526  10.908  20.256  0.00  0.00    +0.000 C 
ATOM      6  O   UNL     1      -0.693   9.792  19.759  0.00  0.00    +0.000 OA
ATOM      7  C   UNL     1      -1.576  11.633  21.445  0.00  0.00    +0.000 C 
ATOM      8  C   UNL     1      -1.661  12.479  23.191  0.00  0.00    +0.000 C 
ATOM      9  C   UNL     1      -1.257  13.886  23.593  0.00  0.00    +0.000 C 
ATOM     10  C   UNL     1      -0.670  15.226  22.361  0.00  0.00    +0.000 C 
ATOM     11  O   UNL     1      -0.227  16.311  22.715  0.00  0.00    +0.000 OA
ATOM     12  C   UNL     1      -0.793  14.684  20.481  0.00  0.00    +0.000 C 
ATOM     13  C   UNL     1      -1.498  13.006  20.084  0.00  0.00    +0.000 C 
ENDROOT
BRANCH   4  14
ATOM     14  C   UNL     1       0.615  13.062  20.230  0.00  0.00    +0.000 A 
ATOM     15  C   UNL     1       1.139  13.143  18.551  0.00  0.00    +0.000 A 
ATOM     16  C   UNL     1       2.781  14.125  18.000  0.00  0.00    +0.000 A 
ATOM     17  C   UNL     1       3.576  15.226  19.211  0.00  0.00    +0.000 A 
ATOM     18 BR   UNL     1       4.772  16.534  18.581  0.00  0.00    +0.000 Br
ATOM     19  C   UNL     1       2.896  15.260  20.883  0.00  0.00    +0.000 A 
ATOM     20  C   UNL     1       1.476  14.195  21.371  0.00  0.00    +0.000 A 
ENDBRANCH   4  14
BRANCH  13  21
ATOM     21  C   UNL     1      -2.285  12.168  18.809  0.00  0.00    +0.000 A 
ATOM     22  C   UNL     1      -3.635  11.731  18.904  0.00  0.00    +0.000 A 
ATOM     23  C   UNL     1      -4.257  10.949  17.931  0.00  0.00    +0.000 A 
ATOM     24  C   UNL     1      -3.541  10.554  16.817  0.00  0.00    +0.000 A 
ATOM     25  C   UNL     1      -2.242  11.031  16.639  0.00  0.00    +0.000 A 
ATOM     26  C   UNL     1      -1.626  11.857  17.605  0.00  0.00    +0.000 A 
ENDBRANCH  13  21
TORSDOF 2
ENDMDL
MODEL 2
REMARK VINA RESULT:      -6.5      1.942      2.404
REMARK  Name = 
REMARK  3 active torsions:
REMARK  status: ('A' for Active; 'I' for Inactive)
REMARK    1  A    between atoms: C_1  and  C_2
REMARK    2  A    between atoms: N_4  and  C_5
REMARK    3  A    between atoms: C_20  and  C_21
REMARK                            x       y       z     vdW  Elec       q    Type
REMARK                         _______ _______ _______ _____ _____    ______ ____
ROOT
ATOM      1  C   UNL     1       1.498   8.405  20.659  0.00  0.00    +0.000 C 
ATOM      2  C   UNL     1       0.944   9.798  20.481  0.00  0.00    +0.000 C 
ATOM      3  N   UNL     1       1.644  10.916  20.294  0.00  0.00    +0.000 NA
ATOM      4  N   UNL     1       0.844  11.672  19.325  0.00  0.00    +0.000 N 
ATOM      5  C   UNL     1       0.117  10.522  18.855  0.00  0.00    +0.000 C 
ATOM      6  O   UNL     1       0.418   9.879  17.847  0.00  0.00    +0.000 OA
ATOM      7  C   UNL     1      -0.741   9.875  20.227  0.00  0.00    +0.000 C 
ATOM      8  C   UNL     1      -0.727   9.654  22.157  0.00  0.00    +0.000 C 
ATOM      9  C   UNL     1      -1.019  10.678  23.239  0.00  0.00    +0.000 C 
ATOM     10  C   UNL     1      -1.623  12.459  22.894  0.00  0.00    +0.000 C 
ATOM     11  O   UNL     1      -1.730  13.310  23.769  0.00  0.00    +0.000 OA
ATOM     12  C   UNL     1      -2.003  12.817  21.005  0.00  0.00    +0.000 C 
ATOM     13  C   UNL     1      -1.806  11.426  19.780  0.00  0.00    +0.000 C 
ENDROOT
BRANCH   4  14
ATOM     14  C   UNL     1      -0.107  12.677  19.973  0.00  0.00    +0.000 A 
ATOM     15  C   UNL     1      -0.304  13.714  18.564  0.00  0.00    +0.000 A 
ATOM     16  C   UNL     1       0.287  15.615  18.556  0.00  0.00    +0.000 A 
ATOM     17  C   UNL     1       0.746  16.382  20.141  0.00  0.00    +0.000 A 
ATOM     18 BR   UNL     1       0.792  18.260  20.245  0.00  0.00    +0.000 Br
ATOM     19  C   UNL     1       0.759  15.330  21.607  0.00  0.00    +0.000 A 
ATOM     20  C   UNL     1       0.363  13.535  21.512  0.00  0.00    +0.000 A 
ENDBRANCH   4  14
BRANCH  13  21
ATOM     21  C   UNL     1      -2.379  10.927  18.241  0.00  0.00    +0.000 A 
ATOM     22  C   UNL     1      -3.008   9.668  18.034  0.00  0.00    +0.000 A 
ATOM     23  C   UNL     1      -3.375   9.193  16.775  0.00  0.00    +0.000 A 
ATOM     24  C   UNL     1      -3.111   9.960  15.656  0.00  0.00    +0.000 A 
ATOM     25  C   UNL     1      -2.575  11.238  15.819  0.00  0.00    +0.000 A 
ATOM     26  C   UNL     1      -2.242  11.735  17.097  0.00  0.00    +0.000 A 
ENDBRANCH  13  21
TORSDOF 2
ENDMDL
MODEL 3
REMARK VINA RESULT:      -6.4      3.602      5.859
REMARK  Name = 
REMARK  3 active torsions:
REMARK  status: ('A' for Active; 'I' for Inactive)
REMARK    1  A    between atoms: C_1  and  C_2
REMARK    2  A    between atoms: N_4  and  C_5
REMARK    3  A    between atoms: C_20  and  C_21
REMARK                            x       y       z     vdW  Elec       q    Type
REMARK                         _______ _______ _______ _____ _____    ______ ____
ROOT
ATOM      1  C   UNL     1      -1.055  17.561  24.307  0.00  0.00    +0.000 C 
ATOM      2  C   UNL     1      -1.168  16.194  23.676  0.00  0.00    +0.000 C 
ATOM      3  N   UNL     1      -0.405  15.132  23.932  0.00  0.00    +0.000 NA
ATOM      4  N   UNL     1      -1.345  14.008  23.894  0.00  0.00    +0.000 N 
ATOM      5  C   UNL     1      -2.511  14.826  24.098  0.00  0.00    +0.000 C 
ATOM      6  O   UNL     1      -3.042  15.011  25.195  0.00  0.00    +0.000 OA
ATOM      7  C   UNL     1      -2.584  15.941  22.759  0.00  0.00    +0.000 C 
ATOM      8  C   UNL     1      -1.543  16.937  21.457  0.00  0.00    +0.000 C 
ATOM      9  C   UNL     1      -0.850  16.438  20.202  0.00  0.00    +0.000 C 
ATOM     10  C   UNL     1      -0.981  14.646  19.546  0.00  0.00    +0.000 C 
ATOM     11  O   UNL     1      -0.315  14.228  18.607  0.00  0.00    +0.000 OA
ATOM     12  C   UNL     1      -2.240  13.525  20.546  0.00  0.00    +0.000 C 
ATOM     13  C   UNL     1      -3.196  14.295  21.948  0.00  0.00    +0.000 C 
ENDROOT
BRANCH   4  14
ATOM     14  C   UNL     1      -1.410  13.316  22.533  0.00  0.00    +0.000 A 
ATOM     15  C   UNL     1      -2.011  11.768  23.117  0.00  0.00    +0.000 A 
ATOM     16  C   UNL     1      -0.961  10.087  22.934  0.00  0.00    +0.000 A 
ATOM     17  C   UNL     1       0.507  10.098  21.858  0.00  0.00    +0.000 A 
ATOM     18 BR   UNL     1       1.188   8.450  21.259  0.00  0.00    +0.000 Br
ATOM     19  C   UNL     1       0.991  11.673  21.122  0.00  0.00    +0.000 A 
ATOM     20  C   UNL     1       0.069  13.227  21.469  0.00  0.00    +0.000 A 
ENDBRANCH   4  14
BRANCH  13  21
ATOM     21  C   UNL     1      -4.658  14.089  22.825  0.00  0.00    +0.000 A 
ATOM     22  C   UNL     1      -4.975  12.879  23.502  0.00  0.00    +0.000 A 
ATOM     23  C   UNL     1      -6.203  12.647  24.120  0.00  0.00    +0.000 A 
ATOM     24  C   UNL     1      -7.182  13.622  24.072  0.00  0.00    +0.000 A 
ATOM     25  C   UNL     1      -6.885  14.856  23.495  0.00  0.00    +0.000 A 
ATOM     26  C   UNL     1      -5.627  15.105  22.905  0.00  0.00    +0.000 A 
ENDBRANCH  13  21
TORSDOF 2
ENDMDL
MODEL 4
REMARK VINA RESULT:      -6.3      6.870     10.555
REMARK  Name = 
REMARK  3 active torsions:
REMARK  status: ('A' for Active; 'I' for Inactive)
REMARK    1  A    between atoms: C_1  and  C_2
REMARK    2  A    between atoms: N_4  and  C_5
REMARK    3  A    between atoms: C_20  and  C_21
REMARK                            x       y       z     vdW  Elec       q    Type
REMARK                         _______ _______ _______ _____ _____    ______ ____
ROOT
ATOM      1  C   UNL     1      11.400  17.953  21.347  0.00  0.00    +0.000 C 
ATOM      2  C   UNL     1      10.189  17.115  21.012  0.00  0.00    +0.000 C 
ATOM      3  N   UNL     1       9.118  17.503  20.323  0.00  0.00    +0.000 NA
ATOM      4  N   UNL     1       8.776  16.327  19.516  0.00  0.00    +0.000 N 
ATOM      5  C   UNL     1      10.081  15.729  19.627  0.00  0.00    +0.000 C 
ATOM      6  O   UNL     1      10.968  15.842  18.778  0.00  0.00    +0.000 OA
ATOM      7  C   UNL     1      10.362  15.447  21.325  0.00  0.00    +0.000 C 
ATOM      8  C   UNL     1       9.982  16.063  23.127  0.00  0.00    +0.000 C 
ATOM      9  C   UNL     1       8.711  15.907  23.943  0.00  0.00    +0.000 C 
ATOM     10  C   UNL     1       7.189  14.899  23.374  0.00  0.00    +0.000 C 
ATOM     11  O   UNL     1       6.128  14.890  23.985  0.00  0.00    +0.000 OA
ATOM     12  C   UNL     1       7.464  13.925  21.695  0.00  0.00    +0.000 C 
ATOM     13  C   UNL     1       9.134  14.021  20.876  0.00  0.00    +0.000 C 
ENDROOT
BRANCH   4  14
ATOM     14  C   UNL     1       7.722  15.430  20.164  0.00  0.00    +0.000 A 
ATOM     15  C   UNL     1       7.209  14.617  18.689  0.00  0.00    +0.000 A 
ATOM     16  C   UNL     1       5.357  14.783  17.977  0.00  0.00    +0.000 A 
ATOM     17  C   UNL     1       4.086  15.529  19.043  0.00  0.00    +0.000 A 
ATOM     18 BR   UNL     1       2.277  15.224  18.626  0.00  0.00    +0.000 Br
ATOM     19  C   UNL     1       4.615  16.192  20.637  0.00  0.00    +0.000 A 
ATOM     20  C   UNL     1       6.378  16.155  21.161  0.00  0.00    +0.000 A 
ENDBRANCH   4  14
BRANCH  13  21
ATOM     21  C   UNL     1      10.134  13.133  19.799  0.00  0.00    +0.000 A 
ATOM     22  C   UNL     1       9.726  12.809  18.475  0.00  0.00    +0.000 A 
ATOM     23  C   UNL     1      10.470  11.991  17.624  0.00  0.00    +0.000 A 
ATOM     24  C   UNL     1      11.657  11.444  18.073  0.00  0.00    +0.000 A 
ATOM     25  C   UNL     1      12.138  11.804  19.332  0.00  0.00    +0.000 A 
ATOM     26  C   UNL     1      11.406  12.665  20.178  0.00  0.00    +0.000 A 
ENDBRANCH  13  21
TORSDOF 2
ENDMDL
MODEL 5
REMARK VINA RESULT:      -6.3      8.953     10.956
REMARK  Name = 
REMARK  3 active torsions:
REMARK  status: ('A' for Active; 'I' for Inactive)
REMARK    1  A    between atoms: C_1  and  C_2
REMARK    2  A    between atoms: N_4  and  C_5
REMARK    3  A    between atoms: C_20  and  C_21
REMARK                            x       y       z     vdW  Elec       q    Type
REMARK                         _______ _______ _______ _____ _____    ______ ____
ROOT
ATOM      1  C   UNL     1       7.009  16.916  18.657  0.00  0.00    +0.000 C 
ATOM      2  C   UNL     1       7.422  16.137  19.882  0.00  0.00    +0.000 C 
ATOM      3  N   UNL     1       6.632  15.405  20.666  0.00  0.00    +0.000 NA
ATOM      4  N   UNL     1       7.458  14.243  21.009  0.00  0.00    +0.000 N 
ATOM      5  C   UNL     1       8.361  14.413  19.902  0.00  0.00    +0.000 C 
ATOM      6  O   UNL     1       8.262  13.811  18.830  0.00  0.00    +0.000 OA
ATOM      7  C   UNL     1       9.107  15.977  20.097  0.00  0.00    +0.000 C 
ATOM      8  C   UNL     1       8.875  17.779  20.784  0.00  0.00    +0.000 C 
ATOM      9  C   UNL     1       8.914  18.267  22.221  0.00  0.00    +0.000 C 
ATOM     10  C   UNL     1       9.355  17.161  23.717  0.00  0.00    +0.000 C 
ATOM     11  O   UNL     1       9.257  17.537  24.878  0.00  0.00    +0.000 OA
ATOM     12  C   UNL     1       9.928  15.352  23.225  0.00  0.00    +0.000 C 
ATOM     13  C   UNL     1      10.041  14.916  21.417  0.00  0.00    +0.000 C 
ENDROOT
BRANCH   4  14
ATOM     14  C   UNL     1       8.203  14.398  22.334  0.00  0.00    +0.000 A 
ATOM     15  C   UNL     1       8.527  12.686  22.590  0.00  0.00    +0.000 A 
ATOM     16  C   UNL     1       7.779  11.686  24.140  0.00  0.00    +0.000 A 
ATOM     17  C   UNL     1       7.010  12.635  25.490  0.00  0.00    +0.000 A 
ATOM     18 BR   UNL     1       6.784  11.795  27.157  0.00  0.00    +0.000 Br
ATOM     19  C   UNL     1       6.860  14.421  25.276  0.00  0.00    +0.000 A 
ATOM     20  C   UNL     1       7.424  15.261  23.738  0.00  0.00    +0.000 A 
ENDBRANCH   4  14
BRANCH  13  21
ATOM     21  C   UNL     1      10.855  13.830  20.365  0.00  0.00    +0.000 A 
ATOM     22  C   UNL     1      11.600  14.276  19.239  0.00  0.00    +0.000 A 
ATOM     23  C   UNL     1      12.171  13.408  18.307  0.00  0.00    +0.000 A 
ATOM     24  C   UNL     1      12.003  12.044  18.457  0.00  0.00    +0.000 A 
ATOM     25  C   UNL     1      11.354  11.560  19.592  0.00  0.00    +0.000 A 
ATOM     26  C   UNL     1      10.812  12.437  20.557  0.00  0.00    +0.000 A 
ENDBRANCH  13  21
TORSDOF 2
ENDMDL
MODEL 6
REMARK VINA RESULT:      -6.2      3.191      5.472
REMARK  Name = 
REMARK  3 active torsions:
REMARK  status: ('A' for Active; 'I' for Inactive)
REMARK    1  A    between atoms: C_1  and  C_2
REMARK    2  A    between atoms: N_4  and  C_5
REMARK    3  A    between atoms: C_20  and  C_21
REMARK                            x       y       z     vdW  Elec       q    Type
REMARK                         _______ _______ _______ _____ _____    ______ ____
ROOT
ATOM      1  C   UNL     1      -3.695  12.473  19.378  0.00  0.00    +0.000 C 
ATOM      2  C   UNL     1      -2.344  11.815  19.521  0.00  0.00    +0.000 C 
ATOM      3  N   UNL     1      -1.958  10.662  18.977  0.00  0.00    +0.000 NA
ATOM      4  N   UNL     1      -0.563  10.906  18.593  0.00  0.00    +0.000 N 
ATOM      5  C   UNL     1      -0.692  12.339  18.600  0.00  0.00    +0.000 C 
ATOM      6  O   UNL     1      -0.909  13.019  17.595  0.00  0.00    +0.000 OA
ATOM      7  C   UNL     1      -1.138  12.796  20.223  0.00  0.00    +0.000 C 
ATOM      8  C   UNL     1      -2.066  12.242  21.836  0.00  0.00    +0.000 C 
ATOM      9  C   UNL     1      -1.629  11.248  22.898  0.00  0.00    +0.000 C 
ATOM     10  C   UNL     1       0.080  10.392  22.925  0.00  0.00    +0.000 C 
ATOM     11  O   UNL     1       0.368   9.499  23.712  0.00  0.00    +0.000 OA
ATOM     12  C   UNL     1       1.313  11.035  21.543  0.00  0.00    +0.000 C 
ATOM     13  C   UNL     1       0.747  12.406  20.416  0.00  0.00    +0.000 C 
ENDROOT
BRANCH   4  14
ATOM     14  C   UNL     1       0.445  10.455  19.648  0.00  0.00    +0.000 A 
ATOM     15  C   UNL     1       1.811  10.253  18.555  0.00  0.00    +0.000 A 
ATOM     16  C   UNL     1       2.671   8.484  18.249  0.00  0.00    +0.000 A 
ATOM     17  C   UNL     1       2.241   7.111  19.364  0.00  0.00    +0.000 A 
ATOM     18 BR   UNL     1       3.394   5.626  19.438  0.00  0.00    +0.000 Br
ATOM     19  C   UNL     1       0.962   7.408  20.602  0.00  0.00    +0.000 A 
ATOM     20  C   UNL     1       0.087   9.023  20.719  0.00  0.00    +0.000 A 
ENDBRANCH   4  14
BRANCH  13  21
ATOM     21  C   UNL     1       1.385  13.665  19.438  0.00  0.00    +0.000 A 
ATOM     22  C   UNL     1       2.431  13.443  18.499  0.00  0.00    +0.000 A 
ATOM     23  C   UNL     1       3.044  14.469  17.779  0.00  0.00    +0.000 A 
ATOM     24  C   UNL     1       2.642  15.775  17.983  0.00  0.00    +0.000 A 
ATOM     25  C   UNL     1       1.562  16.031  18.829  0.00  0.00    +0.000 A 
ATOM     26  C   UNL     1       0.914  14.988  19.526  0.00  0.00    +0.000 A 
ENDBRANCH  13  21
TORSDOF 2
ENDMDL
MODEL 7
REMARK VINA RESULT:      -6.2      6.770      9.987
REMARK  Name = 
REMARK  3 active torsions:
REMARK  status: ('A' for Active; 'I' for Inactive)
REMARK    1  A    between atoms: C_1  and  C_2
REMARK    2  A    between atoms: N_4  and  C_5
REMARK    3  A    between atoms: C_20  and  C_21
REMARK                            x       y       z     vdW  Elec       q    Type
REMARK                         _______ _______ _______ _____ _____    ______ ____
ROOT
ATOM      1  C   UNL     1      11.017  16.895  22.884  0.00  0.00    +0.000 C 
ATOM      2  C   UNL     1       9.778  16.337  22.226  0.00  0.00    +0.000 C 
ATOM      3  N   UNL     1       8.872  17.016  21.525  0.00  0.00    +0.000 NA
ATOM      4  N   UNL     1       8.517  16.103  20.433  0.00  0.00    +0.000 N 
ATOM      5  C   UNL     1       9.711  15.310  20.555  0.00  0.00    +0.000 C 
ATOM      6  O   UNL     1      10.720  15.469  19.864  0.00  0.00    +0.000 OA
ATOM      7  C   UNL     1       9.705  14.633  22.162  0.00  0.00    +0.000 C 
ATOM      8  C   UNL     1       9.140  14.899  24.000  0.00  0.00    +0.000 C 
ATOM      9  C   UNL     1       7.754  14.762  24.605  0.00  0.00    +0.000 C 
ATOM     10  C   UNL     1       6.224  14.136  23.645  0.00  0.00    +0.000 C 
ATOM     11  O   UNL     1       5.091  14.153  24.110  0.00  0.00    +0.000 OA
ATOM     12  C   UNL     1       6.625  13.513  21.830  0.00  0.00    +0.000 C 
ATOM     13  C   UNL     1       8.397  13.534  21.255  0.00  0.00    +0.000 C 
ENDROOT
BRANCH   4  14
ATOM     14  C   UNL     1       7.280  15.256  20.729  0.00  0.00    +0.000 A 
ATOM     15  C   UNL     1       6.886  14.875  19.056  0.00  0.00    +0.000 A 
ATOM     16  C   UNL     1       5.188  15.471  18.205  0.00  0.00    +0.000 A 
ATOM     17  C   UNL     1       3.879  16.147  19.273  0.00  0.00    +0.000 A 
ATOM     18 BR   UNL     1       2.124  16.218  18.599  0.00  0.00    +0.000 Br
ATOM     19  C   UNL     1       4.253  16.353  21.026  0.00  0.00    +0.000 A 
ATOM     20  C   UNL     1       5.907  15.936  21.717  0.00  0.00    +0.000 A 
ENDBRANCH   4  14
BRANCH  13  21
ATOM     21  C   UNL     1       9.431  12.758  20.125  0.00  0.00    +0.000 A 
ATOM     22  C   UNL     1      10.648  12.131  20.513  0.00  0.00    +0.000 A 
ATOM     23  C   UNL     1      11.559  11.598  19.600  0.00  0.00    +0.000 A 
ATOM     24  C   UNL     1      11.294  11.686  18.246  0.00  0.00    +0.000 A 
ATOM     25  C   UNL     1      10.074  12.215  17.825  0.00  0.00    +0.000 A 
ATOM     26  C   UNL     1       9.133  12.716  18.751  0.00  0.00    +0.000 A 
ENDBRANCH  13  21
TORSDOF 2
ENDMDL
MODEL 8
REMARK VINA RESULT:      -6.1      3.415      5.740
REMARK  Name = 
REMARK  3 active torsions:
REMARK  status: ('A' for Active; 'I' for Inactive)
REMARK    1  A    between atoms: C_1  and  C_2
REMARK    2  A    between atoms: N_4  and  C_5
REMARK    3  A    between atoms: C_20  and  C_21
REMARK                            x       y       z     vdW  Elec       q    Type
REMARK                         _______ _______ _______ _____ _____    ______ ____
ROOT
ATOM      1  C   UNL     1      -0.663  17.546  23.332  0.00  0.00    +0.000 C 
ATOM      2  C   UNL     1      -0.828  16.116  22.876  0.00  0.00    +0.000 C 
ATOM      3  N   UNL     1      -0.095  15.070  23.254  0.00  0.00    +0.000 NA
ATOM      4  N   UNL     1      -1.071  13.980  23.364  0.00  0.00    +0.000 N 
ATOM      5  C   UNL     1      -2.207  14.855  23.476  0.00  0.00    +0.000 C 
ATOM      6  O   UNL     1      -2.717  15.191  24.547  0.00  0.00    +0.000 OA
ATOM      7  C   UNL     1      -2.263  15.798  22.011  0.00  0.00    +0.000 C 
ATOM      8  C   UNL     1      -1.210  16.592  20.585  0.00  0.00    +0.000 C 
ATOM      9  C   UNL     1      -0.550  15.920  19.395  0.00  0.00    +0.000 C 
ATOM     10  C   UNL     1      -0.746  14.066  18.966  0.00  0.00    +0.000 C 
ATOM     11  O   UNL     1      -0.107  13.514  18.080  0.00  0.00    +0.000 OA
ATOM     12  C   UNL     1      -2.026  13.118  20.110  0.00  0.00    +0.000 C 
ATOM     13  C   UNL     1      -2.937  14.086  21.415  0.00  0.00    +0.000 C 
ENDROOT
BRANCH   4  14
ATOM     14  C   UNL     1      -1.176  13.129  22.099  0.00  0.00    +0.000 A 
ATOM     15  C   UNL     1      -1.779  11.671  22.881  0.00  0.00    +0.000 A 
ATOM     16  C   UNL     1      -0.751   9.967  22.882  0.00  0.00    +0.000 A 
ATOM     17  C   UNL     1       0.690   9.827  21.779  0.00  0.00    +0.000 A 
ATOM     18 BR   UNL     1       1.340   8.109  21.370  0.00  0.00    +0.000 Br
ATOM     19  C   UNL     1       1.173  11.293  20.845  0.00  0.00    +0.000 A 
ATOM     20  C   UNL     1       0.276  12.891  21.021  0.00  0.00    +0.000 A 
ENDBRANCH   4  14
BRANCH  13  21
ATOM     21  C   UNL     1      -4.393  14.037  22.325  0.00  0.00    +0.000 A 
ATOM     22  C   UNL     1      -5.298  15.133  22.372  0.00  0.00    +0.000 A 
ATOM     23  C   UNL     1      -6.425  15.160  23.194  0.00  0.00    +0.000 A 
ATOM     24  C   UNL     1      -6.687  14.086  24.023  0.00  0.00    +0.000 A 
ATOM     25  C   UNL     1      -5.875  12.954  23.947  0.00  0.00    +0.000 A 
ATOM     26  C   UNL     1      -4.758  12.911  23.085  0.00  0.00    +0.000 A 
ENDBRANCH  13  21
TORSDOF 2
ENDMDL
MODEL 9
REMARK VINA RESULT:      -5.9      3.696      5.921
REMARK  Name = 
REMARK  3 active torsions:
REMARK  status: ('A' for Active; 'I' for Inactive)
REMARK    1  A    between atoms: C_1  and  C_2
REMARK    2  A    between atoms: N_4  and  C_5
REMARK    3  A    between atoms: C_20  and  C_21
REMARK                            x       y       z     vdW  Elec       q    Type
REMARK                         _______ _______ _______ _____ _____    ______ ____
ROOT
ATOM      1  C   UNL     1      -1.359  17.606  24.891  0.00  0.00    +0.000 C 
ATOM      2  C   UNL     1      -1.401  16.306  24.125  0.00  0.00    +0.000 C 
ATOM      3  N   UNL     1      -0.632  15.237  24.324  0.00  0.00    +0.000 NA
ATOM      4  N   UNL     1      -1.542  14.106  24.116  0.00  0.00    +0.000 N 
ATOM      5  C   UNL     1      -2.737  14.881  24.324  0.00  0.00    +0.000 C 
ATOM      6  O   UNL     1      -3.339  14.948  25.397  0.00  0.00    +0.000 OA
ATOM      7  C   UNL     1      -2.751  16.121  23.098  0.00  0.00    +0.000 C 
ATOM      8  C   UNL     1      -1.655  17.258  21.968  0.00  0.00    +0.000 C 
ATOM      9  C   UNL     1      -0.874  16.897  20.718  0.00  0.00    +0.000 C 
ATOM     10  C   UNL     1      -0.923  15.177  19.883  0.00  0.00    +0.000 C 
ATOM     11  O   UNL     1      -0.191  14.864  18.953  0.00  0.00    +0.000 OA
ATOM     12  C   UNL     1      -2.215  13.941  20.687  0.00  0.00    +0.000 C 
ATOM     13  C   UNL     1      -3.274  14.553  22.093  0.00  0.00    +0.000 C 
ENDROOT
BRANCH   4  14
ATOM     14  C   UNL     1      -1.506  13.551  22.693  0.00  0.00    +0.000 A 
ATOM     15  C   UNL     1      -2.180  11.969  23.071  0.00  0.00    +0.000 A 
ATOM     16  C   UNL     1      -1.147  10.288  22.810  0.00  0.00    +0.000 A 
ATOM     17  C   UNL     1       0.404  10.366  21.861  0.00  0.00    +0.000 A 
ATOM     18 BR   UNL     1       1.104   8.767  21.159  0.00  0.00    +0.000 Br
ATOM     19  C   UNL     1       0.975  11.992  21.325  0.00  0.00    +0.000 A 
ATOM     20  C   UNL     1       0.054  13.528  21.748  0.00  0.00    +0.000 A 
ENDBRANCH   4  14
BRANCH  13  21
ATOM     21  C   UNL     1      -4.783  14.237  22.850  0.00  0.00    +0.000 A 
ATOM     22  C   UNL     1      -5.753  15.254  23.067  0.00  0.00    +0.000 A 
ATOM     23  C   UNL     1      -6.933  15.045  23.782  0.00  0.00    +0.000 A 
ATOM     24  C   UNL     1      -7.185  13.801  24.329  0.00  0.00    +0.000 A 
ATOM     25  C   UNL     1      -6.304  12.752  24.067  0.00  0.00    +0.000 A 
ATOM     26  C   UNL     1      -5.130  12.953  23.309  0.00  0.00    +0.000 A 
ENDBRANCH  13  21
TORSDOF 2
ENDMDL
