MODEL 1
REMARK VINA RESULT:      -6.4      0.000      0.000
REMARK  Name = 
REMARK  17 active torsions:
REMARK  status: ('A' for Active; 'I' for Inactive)
REMARK    1  A    between atoms: C_1  and  C_2
REMARK    2  A    between atoms: C_2  and  O_3
REMARK    3  A    between atoms: O_3  and  C_4
REMARK    4  A    between atoms: C_4  and  C_6
REMARK    5  A    between atoms: C_6  and  N_7
REMARK    6  A    between atoms: C_6  and  C_17
REMARK    7  A    between atoms: C_6  and  P_21
REMARK    8  A    between atoms: N_7  and  S_8
REMARK    9  A    between atoms: S_8  and  C_11
REMARK   10  A    between atoms: P_21  and  O_23
REMARK   11  A    between atoms: P_21  and  O_27
REMARK   12  A    between atoms: O_23  and  C_24
REMARK   13  A    between atoms: C_24  and  C_25
REMARK   14  A    between atoms: C_24  and  C_26
REMARK   15  A    between atoms: O_27  and  C_28
REMARK   16  A    between atoms: C_28  and  C_29
REMARK   17  A    between atoms: C_28  and  C_30
REMARK                            x       y       z     vdW  Elec       q    Type
REMARK                         _______ _______ _______ _____ _____    ______ ____
ROOT
ATOM      1  C   UNL     1       4.220   4.208  17.921  0.00  0.00    +0.000 C 
ENDROOT
BRANCH   1   2
ATOM      2  C   UNL     1       3.587   2.826  18.304  0.00  0.00    +0.000 C 
ATOM      3  F   UNL     1       2.237   2.760  18.290  0.00  0.00    +0.000 F 
ATOM      4  F   UNL     1       4.040   1.776  17.596  0.00  0.00    +0.000 F 
ATOM      5  F   UNL     1       3.928   2.542  19.603  0.00  0.00    +0.000 F 
ENDBRANCH   1   2
BRANCH   1   6
ATOM      6  C   UNL     1       5.385   4.228  18.851  0.00  0.00    +0.000 C 
ATOM      7  O   UNL     1       5.763   3.228  19.459  0.00  0.00    +0.000 OA
BRANCH   6   8
ATOM      8  O   UNL     1       5.828   5.486  19.112  0.00  0.00    +0.000 OA
BRANCH   8  10
ATOM      9  C   UNL     1       7.932   6.617  18.735  0.00  0.00    +0.000 C 
ATOM     10  C   UNL     1       7.181   5.619  19.579  0.00  0.00    +0.000 C 
ENDBRANCH   8  10
ENDBRANCH   6   8
ENDBRANCH   1   6
BRANCH   1  11
ATOM     11  N   UNL     1       4.708   4.034  16.407  0.00  0.00    +0.000 NA
ATOM     12  H   UNL     1       3.929   4.123  15.745  0.00  0.00    +0.000 HD
BRANCH  11  13
ATOM     13  S   UNL     1       6.125   4.799  15.864  0.00  0.00    +0.000 S 
ATOM     14  O   UNL     1       5.885   6.229  15.962  0.00  0.00    +0.000 OA
ATOM     15  O   UNL     1       7.219   4.166  16.571  0.00  0.00    +0.000 OA
BRANCH  13  16
ATOM     16  C   UNL     1       6.312   4.415  14.140  0.00  0.00    +0.000 A 
ATOM     17  C   UNL     1       5.386   3.589  13.490  0.00  0.00    +0.000 A 
ATOM     18  C   UNL     1       5.621   3.193  12.169  0.00  0.00    +0.000 A 
ATOM     19  C   UNL     1       6.732   3.683  11.483  0.00  0.00    +0.000 A 
ATOM     20  C   UNL     1       7.589   4.597  12.100  0.00  0.00    +0.000 A 
ATOM     21  C   UNL     1       7.377   4.974  13.427  0.00  0.00    +0.000 A 
ENDBRANCH  13  16
ENDBRANCH  11  13
ENDBRANCH   1  11
BRANCH   1  22
ATOM     22  P   UNL     1       2.940   5.516  17.930  0.00  0.00    +0.000 P 
ATOM     23  O   UNL     1       1.958   4.473  17.383  0.00  0.00    +0.000 OA
BRANCH  22  24
ATOM     24  O   UNL     1       2.890   5.429  19.587  0.00  0.00    +0.000 OA
BRANCH  24  25
ATOM     25  C   UNL     1       1.701   5.274  20.359  0.00  0.00    +0.000 C 
ATOM     26  C   UNL     1       2.006   4.174  21.382  0.00  0.00    +0.000 C 
ATOM     27  C   UNL     1       1.316   6.519  21.153  0.00  0.00    +0.000 C 
ENDBRANCH  24  25
ENDBRANCH  22  24
BRANCH  22  28
ATOM     28  O   UNL     1       1.730   6.753  17.939  0.00  0.00    +0.000 OA
BRANCH  28  29
ATOM     29  C   UNL     1       2.118   8.104  17.613  0.00  0.00    +0.000 C 
ATOM     30  C   UNL     1       1.570   9.159  18.584  0.00  0.00    +0.000 C 
ATOM     31  C   UNL     1       3.636   8.201  17.592  0.00  0.00    +0.000 C 
ENDBRANCH  28  29
ENDBRANCH  22  28
ENDBRANCH   1  22
TORSDOF 12
ENDMDL
MODEL 2
REMARK VINA RESULT:      -6.4      1.781      3.779
REMARK  Name = 
REMARK  17 active torsions:
REMARK  status: ('A' for Active; 'I' for Inactive)
REMARK    1  A    between atoms: C_1  and  C_2
REMARK    2  A    between atoms: C_2  and  O_3
REMARK    3  A    between atoms: O_3  and  C_4
REMARK    4  A    between atoms: C_4  and  C_6
REMARK    5  A    between atoms: C_6  and  N_7
REMARK    6  A    between atoms: C_6  and  C_17
REMARK    7  A    between atoms: C_6  and  P_21
REMARK    8  A    between atoms: N_7  and  S_8
REMARK    9  A    between atoms: S_8  and  C_11
REMARK   10  A    between atoms: P_21  and  O_23
REMARK   11  A    between atoms: P_21  and  O_27
REMARK   12  A    between atoms: O_23  and  C_24
REMARK   13  A    between atoms: C_24  and  C_25
REMARK   14  A    between atoms: C_24  and  C_26
REMARK   15  A    between atoms: O_27  and  C_28
REMARK   16  A    between atoms: C_28  and  C_29
REMARK   17  A    between atoms: C_28  and  C_30
REMARK                            x       y       z     vdW  Elec       q    Type
REMARK                         _______ _______ _______ _____ _____    ______ ____
ROOT
ATOM      1  C   UNL     1       4.306   5.407  17.654  0.00  0.00    +0.000 C 
ENDROOT
BRANCH   1   2
ATOM      2  C   UNL     1       5.402   5.694  18.738  0.00  0.00    +0.000 C 
ATOM      3  F   UNL     1       6.256   4.681  19.010  0.00  0.00    +0.000 F 
ATOM      4  F   UNL     1       6.150   6.789  18.517  0.00  0.00    +0.000 F 
ATOM      5  F   UNL     1       4.772   5.937  19.933  0.00  0.00    +0.000 F 
ENDBRANCH   1   2
BRANCH   1   6
ATOM      6  C   UNL     1       4.026   6.797  17.194  0.00  0.00    +0.000 C 
ATOM      7  O   UNL     1       4.443   7.236  16.123  0.00  0.00    +0.000 OA
BRANCH   6   8
ATOM      8  O   UNL     1       3.466   7.569  18.162  0.00  0.00    +0.000 OA
BRANCH   8  10
ATOM      9  C   UNL     1       2.073   9.515  17.812  0.00  0.00    +0.000 C 
ATOM     10  C   UNL     1       2.116   8.014  17.944  0.00  0.00    +0.000 C 
ENDBRANCH   8  10
ENDBRANCH   6   8
ENDBRANCH   1   6
BRANCH   1  11
ATOM     11  N   UNL     1       5.060   4.576  16.513  0.00  0.00    +0.000 NA
ATOM     12  H   UNL     1       4.432   4.343  15.736  0.00  0.00    +0.000 HD
BRANCH  11  13
ATOM     13  S   UNL     1       6.611   5.036  15.991  0.00  0.00    +0.000 S 
ATOM     14  O   UNL     1       6.658   6.487  16.067  0.00  0.00    +0.000 OA
ATOM     15  O   UNL     1       7.543   4.210  16.730  0.00  0.00    +0.000 OA
BRANCH  13  16
ATOM     16  C   UNL     1       6.750   4.594  14.277  0.00  0.00    +0.000 A 
ATOM     17  C   UNL     1       7.695   5.222  13.455  0.00  0.00    +0.000 A 
ATOM     18  C   UNL     1       7.701   4.955  12.081  0.00  0.00    +0.000 A 
ATOM     19  C   UNL     1       6.822   4.013  11.552  0.00  0.00    +0.000 A 
ATOM     20  C   UNL     1       5.961   3.307  12.394  0.00  0.00    +0.000 A 
ATOM     21  C   UNL     1       5.928   3.588  13.761  0.00  0.00    +0.000 A 
ENDBRANCH  13  16
ENDBRANCH  11  13
ENDBRANCH   1  11
BRANCH   1  22
ATOM     22  P   UNL     1       3.001   4.324  18.341  0.00  0.00    +0.000 P 
ATOM     23  O   UNL     1       2.669   3.916  16.901  0.00  0.00    +0.000 OA
BRANCH  22  24
ATOM     24  O   UNL     1       4.177   3.291  18.895  0.00  0.00    +0.000 OA
BRANCH  24  25
ATOM     25  C   UNL     1       3.930   2.020  19.492  0.00  0.00    +0.000 C 
ATOM     26  C   UNL     1       4.056   0.994  18.361  0.00  0.00    +0.000 C 
ATOM     27  C   UNL     1       4.951   1.630  20.557  0.00  0.00    +0.000 C 
ENDBRANCH  24  25
ENDBRANCH  22  24
BRANCH  22  28
ATOM     28  O   UNL     1       1.768   3.300  18.991  0.00  0.00    +0.000 OA
BRANCH  28  29
ATOM     29  C   UNL     1       1.055   3.734  20.168  0.00  0.00    +0.000 C 
ATOM     30  C   UNL     1       1.209   2.792  21.370  0.00  0.00    +0.000 C 
ATOM     31  C   UNL     1       1.541   5.120  20.568  0.00  0.00    +0.000 C 
ENDBRANCH  28  29
ENDBRANCH  22  28
ENDBRANCH   1  22
TORSDOF 12
ENDMDL
MODEL 3
REMARK VINA RESULT:      -6.4      2.030      6.495
REMARK  Name = 
REMARK  17 active torsions:
REMARK  status: ('A' for Active; 'I' for Inactive)
REMARK    1  A    between atoms: C_1  and  C_2
REMARK    2  A    between atoms: C_2  and  O_3
REMARK    3  A    between atoms: O_3  and  C_4
REMARK    4  A    between atoms: C_4  and  C_6
REMARK    5  A    between atoms: C_6  and  N_7
REMARK    6  A    between atoms: C_6  and  C_17
REMARK    7  A    between atoms: C_6  and  P_21
REMARK    8  A    between atoms: N_7  and  S_8
REMARK    9  A    between atoms: S_8  and  C_11
REMARK   10  A    between atoms: P_21  and  O_23
REMARK   11  A    between atoms: P_21  and  O_27
REMARK   12  A    between atoms: O_23  and  C_24
REMARK   13  A    between atoms: C_24  and  C_25
REMARK   14  A    between atoms: C_24  and  C_26
REMARK   15  A    between atoms: O_27  and  C_28
REMARK   16  A    between atoms: C_28  and  C_29
REMARK   17  A    between atoms: C_28  and  C_30
REMARK                            x       y       z     vdW  Elec       q    Type
REMARK                         _______ _______ _______ _____ _____    ______ ____
ROOT
ATOM      1  C   UNL     1       4.681   4.876  17.736  0.00  0.00    +0.000 C 
ENDROOT
BRANCH   1   2
ATOM      2  C   UNL     1       5.506   4.278  18.928  0.00  0.00    +0.000 C 
ATOM      3  F   UNL     1       5.716   5.097  19.982  0.00  0.00    +0.000 F 
ATOM      4  F   UNL     1       5.038   3.117  19.418  0.00  0.00    +0.000 F 
ATOM      5  F   UNL     1       6.766   3.981  18.472  0.00  0.00    +0.000 F 
ENDBRANCH   1   2
BRANCH   1   6
ATOM      6  C   UNL     1       3.648   3.814  17.576  0.00  0.00    +0.000 C 
ATOM      7  O   UNL     1       3.120   3.562  16.494  0.00  0.00    +0.000 OA
BRANCH   6   8
ATOM      8  O   UNL     1       3.210   3.323  18.766  0.00  0.00    +0.000 OA
BRANCH   8  10
ATOM      9  C   UNL     1       1.011   2.637  19.506  0.00  0.00    +0.000 C 
ATOM     10  C   UNL     1       2.241   2.262  18.719  0.00  0.00    +0.000 C 
ENDBRANCH   8  10
ENDBRANCH   6   8
ENDBRANCH   1   6
BRANCH   1  11
ATOM     11  N   UNL     1       4.028   6.216  18.317  0.00  0.00    +0.000 NA
ATOM     12  H   UNL     1       4.242   7.029  17.728  0.00  0.00    +0.000 HD
BRANCH  11  13
ATOM     13  S   UNL     1       2.427   6.220  18.887  0.00  0.00    +0.000 S 
ATOM     14  O   UNL     1       1.609   5.660  17.823  0.00  0.00    +0.000 OA
ATOM     15  O   UNL     1       2.469   5.619  20.204  0.00  0.00    +0.000 OA
BRANCH  13  16
ATOM     16  C   UNL     1       1.936   7.914  19.090  0.00  0.00    +0.000 A 
ATOM     17  C   UNL     1       1.429   8.367  20.315  0.00  0.00    +0.000 A 
ATOM     18  C   UNL     1       0.927   9.669  20.417  0.00  0.00    +0.000 A 
ATOM     19  C   UNL     1       1.003  10.531  19.324  0.00  0.00    +0.000 A 
ATOM     20  C   UNL     1       1.613  10.109  18.141  0.00  0.00    +0.000 A 
ATOM     21  C   UNL     1       2.090   8.803  18.022  0.00  0.00    +0.000 A 
ENDBRANCH  13  16
ENDBRANCH  11  13
ENDBRANCH   1  11
BRANCH   1  22
ATOM     22  P   UNL     1       5.799   5.365  16.373  0.00  0.00    +0.000 P 
ATOM     23  O   UNL     1       4.554   5.798  15.590  0.00  0.00    +0.000 OA
BRANCH  22  24
ATOM     24  O   UNL     1       6.300   6.666  17.275  0.00  0.00    +0.000 OA
BRANCH  24  25
ATOM     25  C   UNL     1       7.661   7.024  17.503  0.00  0.00    +0.000 C 
ATOM     26  C   UNL     1       7.701   8.555  17.485  0.00  0.00    +0.000 C 
ATOM     27  C   UNL     1       8.193   6.585  18.864  0.00  0.00    +0.000 C 
ENDBRANCH  24  25
ENDBRANCH  22  24
BRANCH  22  28
ATOM     28  O   UNL     1       6.856   5.828  15.083  0.00  0.00    +0.000 OA
BRANCH  28  29
ATOM     29  C   UNL     1       7.328   4.811  14.175  0.00  0.00    +0.000 C 
ATOM     30  C   UNL     1       6.221   3.885  13.651  0.00  0.00    +0.000 C 
ATOM     31  C   UNL     1       8.013   5.474  12.989  0.00  0.00    +0.000 C 
ENDBRANCH  28  29
ENDBRANCH  22  28
ENDBRANCH   1  22
TORSDOF 12
ENDMDL
MODEL 4
REMARK VINA RESULT:      -6.4      1.787      3.636
REMARK  Name = 
REMARK  17 active torsions:
REMARK  status: ('A' for Active; 'I' for Inactive)
REMARK    1  A    between atoms: C_1  and  C_2
REMARK    2  A    between atoms: C_2  and  O_3
REMARK    3  A    between atoms: O_3  and  C_4
REMARK    4  A    between atoms: C_4  and  C_6
REMARK    5  A    between atoms: C_6  and  N_7
REMARK    6  A    between atoms: C_6  and  C_17
REMARK    7  A    between atoms: C_6  and  P_21
REMARK    8  A    between atoms: N_7  and  S_8
REMARK    9  A    between atoms: S_8  and  C_11
REMARK   10  A    between atoms: P_21  and  O_23
REMARK   11  A    between atoms: P_21  and  O_27
REMARK   12  A    between atoms: O_23  and  C_24
REMARK   13  A    between atoms: C_24  and  C_25
REMARK   14  A    between atoms: C_24  and  C_26
REMARK   15  A    between atoms: O_27  and  C_28
REMARK   16  A    between atoms: C_28  and  C_29
REMARK   17  A    between atoms: C_28  and  C_30
REMARK                            x       y       z     vdW  Elec       q    Type
REMARK                         _______ _______ _______ _____ _____    ______ ____
ROOT
ATOM      1  C   UNL     1       4.570   5.376  17.645  0.00  0.00    +0.000 C 
ENDROOT
BRANCH   1   2
ATOM      2  C   UNL     1       5.810   5.339  18.603  0.00  0.00    +0.000 C 
ATOM      3  F   UNL     1       6.729   6.316  18.431  0.00  0.00    +0.000 F 
ATOM      4  F   UNL     1       5.516   5.302  19.915  0.00  0.00    +0.000 F 
ATOM      5  F   UNL     1       6.501   4.177  18.368  0.00  0.00    +0.000 F 
ENDBRANCH   1   2
BRANCH   1   6
ATOM      6  C   UNL     1       4.463   6.845  17.414  0.00  0.00    +0.000 C 
ATOM      7  O   UNL     1       5.420   7.606  17.545  0.00  0.00    +0.000 OA
BRANCH   6   8
ATOM      8  O   UNL     1       3.177   7.262  17.266  0.00  0.00    +0.000 OA
BRANCH   8  10
ATOM      9  C   UNL     1       1.814   8.538  18.803  0.00  0.00    +0.000 C 
ATOM     10  C   UNL     1       2.863   8.589  17.722  0.00  0.00    +0.000 C 
ENDBRANCH   8  10
ENDBRANCH   6   8
ENDBRANCH   1   6
BRANCH   1  11
ATOM     11  N   UNL     1       5.053   4.629  16.315  0.00  0.00    +0.000 NA
ATOM     12  H   UNL     1       4.302   4.060  15.906  0.00  0.00    +0.000 HD
BRANCH  11  13
ATOM     13  S   UNL     1       5.965   5.455  15.143  0.00  0.00    +0.000 S 
ATOM     14  O   UNL     1       5.215   6.655  14.807  0.00  0.00    +0.000 OA
ATOM     15  O   UNL     1       7.314   5.529  15.664  0.00  0.00    +0.000 OA
BRANCH  13  16
ATOM     16  C   UNL     1       6.011   4.439  13.688  0.00  0.00    +0.000 A 
ATOM     17  C   UNL     1       4.844   3.830  13.208  0.00  0.00    +0.000 A 
ATOM     18  C   UNL     1       4.924   2.931  12.139  0.00  0.00    +0.000 A 
ATOM     19  C   UNL     1       6.147   2.705  11.509  0.00  0.00    +0.000 A 
ATOM     20  C   UNL     1       7.285   3.403  11.919  0.00  0.00    +0.000 A 
ATOM     21  C   UNL     1       7.219   4.280  13.003  0.00  0.00    +0.000 A 
ENDBRANCH  13  16
ENDBRANCH  11  13
ENDBRANCH   1  11
BRANCH   1  22
ATOM     22  P   UNL     1       3.194   4.395  18.349  0.00  0.00    +0.000 P 
ATOM     23  O   UNL     1       2.743   4.112  16.911  0.00  0.00    +0.000 OA
BRANCH  22  24
ATOM     24  O   UNL     1       4.280   3.213  18.774  0.00  0.00    +0.000 OA
BRANCH  24  25
ATOM     25  C   UNL     1       3.948   2.013  19.468  0.00  0.00    +0.000 C 
ATOM     26  C   UNL     1       4.056   0.887  18.435  0.00  0.00    +0.000 C 
ATOM     27  C   UNL     1       4.913   1.669  20.599  0.00  0.00    +0.000 C 
ENDBRANCH  24  25
ENDBRANCH  22  24
BRANCH  22  28
ATOM     28  O   UNL     1       1.894   3.468  19.014  0.00  0.00    +0.000 OA
BRANCH  28  29
ATOM     29  C   UNL     1       1.227   3.958  20.196  0.00  0.00    +0.000 C 
ATOM     30  C   UNL     1       1.236   2.967  21.369  0.00  0.00    +0.000 C 
ATOM     31  C   UNL     1       1.887   5.253  20.645  0.00  0.00    +0.000 C 
ENDBRANCH  28  29
ENDBRANCH  22  28
ENDBRANCH   1  22
TORSDOF 12
ENDMDL
MODEL 5
REMARK VINA RESULT:      -6.4      1.931      6.468
REMARK  Name = 
REMARK  17 active torsions:
REMARK  status: ('A' for Active; 'I' for Inactive)
REMARK    1  A    between atoms: C_1  and  C_2
REMARK    2  A    between atoms: C_2  and  O_3
REMARK    3  A    between atoms: O_3  and  C_4
REMARK    4  A    between atoms: C_4  and  C_6
REMARK    5  A    between atoms: C_6  and  N_7
REMARK    6  A    between atoms: C_6  and  C_17
REMARK    7  A    between atoms: C_6  and  P_21
REMARK    8  A    between atoms: N_7  and  S_8
REMARK    9  A    between atoms: S_8  and  C_11
REMARK   10  A    between atoms: P_21  and  O_23
REMARK   11  A    between atoms: P_21  and  O_27
REMARK   12  A    between atoms: O_23  and  C_24
REMARK   13  A    between atoms: C_24  and  C_25
REMARK   14  A    between atoms: C_24  and  C_26
REMARK   15  A    between atoms: O_27  and  C_28
REMARK   16  A    between atoms: C_28  and  C_29
REMARK   17  A    between atoms: C_28  and  C_30
REMARK                            x       y       z     vdW  Elec       q    Type
REMARK                         _______ _______ _______ _____ _____    ______ ____
ROOT
ATOM      1  C   UNL     1       3.878   4.242  18.294  0.00  0.00    +0.000 C 
ENDROOT
BRANCH   1   2
ATOM      2  C   UNL     1       4.225   3.328  19.519  0.00  0.00    +0.000 C 
ATOM      3  F   UNL     1       3.499   3.528  20.642  0.00  0.00    +0.000 F 
ATOM      4  F   UNL     1       4.206   2.007  19.268  0.00  0.00    +0.000 F 
ATOM      5  F   UNL     1       5.518   3.592  19.900  0.00  0.00    +0.000 F 
ENDBRANCH   1   2
BRANCH   1   6
ATOM      6  C   UNL     1       2.540   3.692  17.931  0.00  0.00    +0.000 C 
ATOM      7  O   UNL     1       2.319   3.151  16.849  0.00  0.00    +0.000 OA
BRANCH   6   8
ATOM      8  O   UNL     1       1.569   4.045  18.814  0.00  0.00    +0.000 OA
BRANCH   8  10
ATOM      9  C   UNL     1       1.021   1.775  19.443  0.00  0.00    +0.000 C 
ATOM     10  C   UNL     1       0.489   3.116  19.005  0.00  0.00    +0.000 C 
ENDBRANCH   8  10
ENDBRANCH   6   8
ENDBRANCH   1   6
BRANCH   1  11
ATOM     11  N   UNL     1       3.736   5.715  18.903  0.00  0.00    +0.000 NA
ATOM     12  H   UNL     1       4.625   6.052  19.289  0.00  0.00    +0.000 HD
BRANCH  11  13
ATOM     13  S   UNL     1       2.885   6.920  18.061  0.00  0.00    +0.000 S 
ATOM     14  O   UNL     1       3.884   7.764  17.427  0.00  0.00    +0.000 OA
ATOM     15  O   UNL     1       1.876   6.229  17.284  0.00  0.00    +0.000 OA
BRANCH  13  16
ATOM     16  C   UNL     1       2.041   7.917  19.263  0.00  0.00    +0.000 A 
ATOM     17  C   UNL     1       1.884   7.465  20.580  0.00  0.00    +0.000 A 
ATOM     18  C   UNL     1       1.105   8.205  21.476  0.00  0.00    +0.000 A 
ATOM     19  C   UNL     1       0.553   9.422  21.079  0.00  0.00    +0.000 A 
ATOM     20  C   UNL     1       0.808   9.922  19.800  0.00  0.00    +0.000 A 
ATOM     21  C   UNL     1       1.560   9.176  18.891  0.00  0.00    +0.000 A 
ENDBRANCH  13  16
ENDBRANCH  11  13
ENDBRANCH   1  11
BRANCH   1  22
ATOM     22  P   UNL     1       5.274   4.277  17.111  0.00  0.00    +0.000 P 
ATOM     23  O   UNL     1       4.316   4.909  16.095  0.00  0.00    +0.000 OA
BRANCH  22  24
ATOM     24  O   UNL     1       5.960   5.510  17.986  0.00  0.00    +0.000 OA
BRANCH  24  25
ATOM     25  C   UNL     1       7.349   5.829  17.993  0.00  0.00    +0.000 C 
ATOM     26  C   UNL     1       7.447   7.281  17.513  0.00  0.00    +0.000 C 
ATOM     27  C   UNL     1       7.986   5.778  19.378  0.00  0.00    +0.000 C 
ENDBRANCH  24  25
ENDBRANCH  22  24
BRANCH  22  28
ATOM     28  O   UNL     1       6.594   4.310  15.993  0.00  0.00    +0.000 OA
BRANCH  28  29
ATOM     29  C   UNL     1       6.346   4.747  14.641  0.00  0.00    +0.000 C 
ATOM     30  C   UNL     1       7.540   5.460  13.990  0.00  0.00    +0.000 C 
ATOM     31  C   UNL     1       5.967   3.547  13.785  0.00  0.00    +0.000 C 
ENDBRANCH  28  29
ENDBRANCH  22  28
ENDBRANCH   1  22
TORSDOF 12
ENDMDL
MODEL 6
REMARK VINA RESULT:      -6.3      2.261      6.746
REMARK  Name = 
REMARK  17 active torsions:
REMARK  status: ('A' for Active; 'I' for Inactive)
REMARK    1  A    between atoms: C_1  and  C_2
REMARK    2  A    between atoms: C_2  and  O_3
REMARK    3  A    between atoms: O_3  and  C_4
REMARK    4  A    between atoms: C_4  and  C_6
REMARK    5  A    between atoms: C_6  and  N_7
REMARK    6  A    between atoms: C_6  and  C_17
REMARK    7  A    between atoms: C_6  and  P_21
REMARK    8  A    between atoms: N_7  and  S_8
REMARK    9  A    between atoms: S_8  and  C_11
REMARK   10  A    between atoms: P_21  and  O_23
REMARK   11  A    between atoms: P_21  and  O_27
REMARK   12  A    between atoms: O_23  and  C_24
REMARK   13  A    between atoms: C_24  and  C_25
REMARK   14  A    between atoms: C_24  and  C_26
REMARK   15  A    between atoms: O_27  and  C_28
REMARK   16  A    between atoms: C_28  and  C_29
REMARK   17  A    between atoms: C_28  and  C_30
REMARK                            x       y       z     vdW  Elec       q    Type
REMARK                         _______ _______ _______ _____ _____    ______ ____
ROOT
ATOM      1  C   UNL     1       4.223   5.543  18.043  0.00  0.00    +0.000 C 
ENDROOT
BRANCH   1   2
ATOM      2  C   UNL     1       4.934   4.797  19.225  0.00  0.00    +0.000 C 
ATOM      3  F   UNL     1       5.690   5.560  20.046  0.00  0.00    +0.000 F 
ATOM      4  F   UNL     1       4.122   4.063  20.006  0.00  0.00    +0.000 F 
ATOM      5  F   UNL     1       5.818   3.892  18.692  0.00  0.00    +0.000 F 
ENDBRANCH   1   2
BRANCH   1   6
ATOM      6  C   UNL     1       2.992   4.712  17.915  0.00  0.00    +0.000 C 
ATOM      7  O   UNL     1       2.029   4.836  18.670  0.00  0.00    +0.000 OA
BRANCH   6   8
ATOM      8  O   UNL     1       3.140   3.684  17.038  0.00  0.00    +0.000 OA
BRANCH   8  10
ATOM      9  C   UNL     1       3.500   1.573  18.163  0.00  0.00    +0.000 C 
ATOM     10  C   UNL     1       2.530   2.431  17.391  0.00  0.00    +0.000 C 
ENDBRANCH   8  10
ENDBRANCH   6   8
ENDBRANCH   1   6
BRANCH   1  11
ATOM     11  N   UNL     1       3.869   6.992  18.622  0.00  0.00    +0.000 NA
ATOM     12  H   UNL     1       4.712   7.564  18.753  0.00  0.00    +0.000 HD
BRANCH  11  13
ATOM     13  S   UNL     1       2.564   7.879  17.992  0.00  0.00    +0.000 S 
ATOM     14  O   UNL     1       3.139   8.990  17.252  0.00  0.00    +0.000 OA
ATOM     15  O   UNL     1       1.696   6.913  17.350  0.00  0.00    +0.000 OA
BRANCH  13  16
ATOM     16  C   UNL     1       1.672   8.566  19.365  0.00  0.00    +0.000 A 
ATOM     17  C   UNL     1       1.642   7.903  20.598  0.00  0.00    +0.000 A 
ATOM     18  C   UNL     1       0.830   8.393  21.627  0.00  0.00    +0.000 A 
ATOM     19  C   UNL     1       0.116   9.576  21.445  0.00  0.00    +0.000 A 
ATOM     20  C   UNL     1       0.240  10.293  20.254  0.00  0.00    +0.000 A 
ATOM     21  C   UNL     1       1.026   9.796  19.213  0.00  0.00    +0.000 A 
ENDBRANCH  13  16
ENDBRANCH  11  13
ENDBRANCH   1  11
BRANCH   1  22
ATOM     22  P   UNL     1       5.388   5.784  16.652  0.00  0.00    +0.000 P 
ATOM     23  O   UNL     1       4.234   6.437  15.881  0.00  0.00    +0.000 OA
BRANCH  22  24
ATOM     24  O   UNL     1       6.148   6.978  17.521  0.00  0.00    +0.000 OA
BRANCH  24  25
ATOM     25  C   UNL     1       7.560   7.149  17.607  0.00  0.00    +0.000 C 
ATOM     26  C   UNL     1       7.795   8.660  17.702  0.00  0.00    +0.000 C 
ATOM     27  C   UNL     1       8.181   6.527  18.855  0.00  0.00    +0.000 C 
ENDBRANCH  24  25
ENDBRANCH  22  24
BRANCH  22  28
ATOM     28  O   UNL     1       6.488   6.013  15.337  0.00  0.00    +0.000 OA
BRANCH  28  29
ATOM     29  C   UNL     1       7.020   4.850  14.669  0.00  0.00    +0.000 C 
ATOM     30  C   UNL     1       5.988   3.735  14.447  0.00  0.00    +0.000 C 
ATOM     31  C   UNL     1       7.592   5.262  13.320  0.00  0.00    +0.000 C 
ENDBRANCH  28  29
ENDBRANCH  22  28
ENDBRANCH   1  22
TORSDOF 12
ENDMDL
MODEL 7
REMARK VINA RESULT:      -6.2      8.058     11.939
REMARK  Name = 
REMARK  17 active torsions:
REMARK  status: ('A' for Active; 'I' for Inactive)
REMARK    1  A    between atoms: C_1  and  C_2
REMARK    2  A    between atoms: C_2  and  O_3
REMARK    3  A    between atoms: O_3  and  C_4
REMARK    4  A    between atoms: C_4  and  C_6
REMARK    5  A    between atoms: C_6  and  N_7
REMARK    6  A    between atoms: C_6  and  C_17
REMARK    7  A    between atoms: C_6  and  P_21
REMARK    8  A    between atoms: N_7  and  S_8
REMARK    9  A    between atoms: S_8  and  C_11
REMARK   10  A    between atoms: P_21  and  O_23
REMARK   11  A    between atoms: P_21  and  O_27
REMARK   12  A    between atoms: O_23  and  C_24
REMARK   13  A    between atoms: C_24  and  C_25
REMARK   14  A    between atoms: C_24  and  C_26
REMARK   15  A    between atoms: O_27  and  C_28
REMARK   16  A    between atoms: C_28  and  C_29
REMARK   17  A    between atoms: C_28  and  C_30
REMARK                            x       y       z     vdW  Elec       q    Type
REMARK                         _______ _______ _______ _____ _____    ______ ____
ROOT
ATOM      1  C   UNL     1       0.095  13.289  20.262  0.00  0.00    +0.000 C 
ENDROOT
BRANCH   1   2
ATOM      2  C   UNL     1       0.078  13.597  18.725  0.00  0.00    +0.000 C 
ATOM      3  F   UNL     1       1.261  13.490  18.079  0.00  0.00    +0.000 F 
ATOM      4  F   UNL     1      -0.824  12.897  18.014  0.00  0.00    +0.000 F 
ATOM      5  F   UNL     1      -0.286  14.910  18.554  0.00  0.00    +0.000 F 
ENDBRANCH   1   2
BRANCH   1   6
ATOM      6  C   UNL     1       1.410  13.885  20.632  0.00  0.00    +0.000 C 
ATOM      7  O   UNL     1       2.339  13.214  21.079  0.00  0.00    +0.000 OA
BRANCH   6   8
ATOM      8  O   UNL     1       1.391  15.245  20.630  0.00  0.00    +0.000 OA
BRANCH   8  10
ATOM      9  C   UNL     1       2.650  16.452  18.954  0.00  0.00    +0.000 C 
ATOM     10  C   UNL     1       2.633  15.917  20.363  0.00  0.00    +0.000 C 
ENDBRANCH   8  10
ENDBRANCH   6   8
ENDBRANCH   1   6
BRANCH   1  11
ATOM     11  N   UNL     1      -1.107  14.152  20.871  0.00  0.00    +0.000 NA
ATOM     12  H   UNL     1      -2.000  13.932  20.415  0.00  0.00    +0.000 HD
BRANCH  11  13
ATOM     13  S   UNL     1      -1.259  14.358  22.550  0.00  0.00    +0.000 S 
ATOM     14  O   UNL     1      -0.321  13.433  23.166  0.00  0.00    +0.000 OA
ATOM     15  O   UNL     1      -1.179  15.784  22.788  0.00  0.00    +0.000 OA
BRANCH  13  16
ATOM     16  C   UNL     1      -2.892  13.833  23.008  0.00  0.00    +0.000 A 
ATOM     17  C   UNL     1      -3.109  13.148  24.211  0.00  0.00    +0.000 A 
ATOM     18  C   UNL     1      -4.377  12.629  24.492  0.00  0.00    +0.000 A 
ATOM     19  C   UNL     1      -5.434  12.861  23.612  0.00  0.00    +0.000 A 
ATOM     20  C   UNL     1      -5.237  13.641  22.472  0.00  0.00    +0.000 A 
ATOM     21  C   UNL     1      -3.968  14.138  22.170  0.00  0.00    +0.000 A 
ENDBRANCH  13  16
ENDBRANCH  11  13
ENDBRANCH   1  11
BRANCH   1  22
ATOM     22  P   UNL     1      -0.297  11.527  20.561  0.00  0.00    +0.000 P 
ATOM     23  O   UNL     1      -1.742  11.844  20.154  0.00  0.00    +0.000 OA
BRANCH  22  24
ATOM     24  O   UNL     1       0.535  11.127  19.181  0.00  0.00    +0.000 OA
BRANCH  24  25
ATOM     25  C   UNL     1       0.580   9.824  18.606  0.00  0.00    +0.000 C 
ATOM     26  C   UNL     1      -0.556   9.779  17.579  0.00  0.00    +0.000 C 
ATOM     27  C   UNL     1       1.872   9.529  17.848  0.00  0.00    +0.000 C 
ENDBRANCH  24  25
ENDBRANCH  22  24
BRANCH  22  28
ATOM     28  O   UNL     1      -0.668   9.861  20.844  0.00  0.00    +0.000 OA
BRANCH  28  29
ATOM     29  C   UNL     1      -0.261   9.262  22.092  0.00  0.00    +0.000 C 
ATOM     30  C   UNL     1       1.259   9.104  22.237  0.00  0.00    +0.000 C 
ATOM     31  C   UNL     1      -0.777  10.107  23.248  0.00  0.00    +0.000 C 
ENDBRANCH  28  29
ENDBRANCH  22  28
ENDBRANCH   1  22
TORSDOF 12
ENDMDL
MODEL 8
REMARK VINA RESULT:      -6.2      1.059      1.852
REMARK  Name = 
REMARK  17 active torsions:
REMARK  status: ('A' for Active; 'I' for Inactive)
REMARK    1  A    between atoms: C_1  and  C_2
REMARK    2  A    between atoms: C_2  and  O_3
REMARK    3  A    between atoms: O_3  and  C_4
REMARK    4  A    between atoms: C_4  and  C_6
REMARK    5  A    between atoms: C_6  and  N_7
REMARK    6  A    between atoms: C_6  and  C_17
REMARK    7  A    between atoms: C_6  and  P_21
REMARK    8  A    between atoms: N_7  and  S_8
REMARK    9  A    between atoms: S_8  and  C_11
REMARK   10  A    between atoms: P_21  and  O_23
REMARK   11  A    between atoms: P_21  and  O_27
REMARK   12  A    between atoms: O_23  and  C_24
REMARK   13  A    between atoms: C_24  and  C_25
REMARK   14  A    between atoms: C_24  and  C_26
REMARK   15  A    between atoms: O_27  and  C_28
REMARK   16  A    between atoms: C_28  and  C_29
REMARK   17  A    between atoms: C_28  and  C_30
REMARK                            x       y       z     vdW  Elec       q    Type
REMARK                         _______ _______ _______ _____ _____    ______ ____
ROOT
ATOM      1  C   UNL     1       4.555   4.623  18.018  0.00  0.00    +0.000 C 
ENDROOT
BRANCH   1   2
ATOM      2  C   UNL     1       4.211   3.099  18.148  0.00  0.00    +0.000 C 
ATOM      3  F   UNL     1       4.690   2.467  19.243  0.00  0.00    +0.000 F 
ATOM      4  F   UNL     1       2.903   2.800  18.062  0.00  0.00    +0.000 F 
ATOM      5  F   UNL     1       4.790   2.436  17.094  0.00  0.00    +0.000 F 
ENDBRANCH   1   2
BRANCH   1   6
ATOM      6  C   UNL     1       5.997   4.597  18.398  0.00  0.00    +0.000 C 
ATOM      7  O   UNL     1       6.815   3.870  17.838  0.00  0.00    +0.000 OA
BRANCH   6   8
ATOM      8  O   UNL     1       6.251   5.283  19.543  0.00  0.00    +0.000 OA
BRANCH   8  10
ATOM      9  C   UNL     1       8.160   6.682  19.046  0.00  0.00    +0.000 C 
ATOM     10  C   UNL     1       7.630   5.533  19.864  0.00  0.00    +0.000 C 
ENDBRANCH   8  10
ENDBRANCH   6   8
ENDBRANCH   1   6
BRANCH   1  11
ATOM     11  N   UNL     1       4.387   4.954  16.462  0.00  0.00    +0.000 NA
ATOM     12  H   UNL     1       3.410   5.161  16.222  0.00  0.00    +0.000 HD
BRANCH  11  13
ATOM     13  S   UNL     1       5.489   5.977  15.672  0.00  0.00    +0.000 S 
ATOM     14  O   UNL     1       4.716   7.089  15.145  0.00  0.00    +0.000 OA
ATOM     15  O   UNL     1       6.578   6.189  16.604  0.00  0.00    +0.000 OA
BRANCH  13  16
ATOM     16  C   UNL     1       6.144   5.087  14.282  0.00  0.00    +0.000 A 
ATOM     17  C   UNL     1       7.389   5.429  13.739  0.00  0.00    +0.000 A 
ATOM     18  C   UNL     1       7.827   4.804  12.567  0.00  0.00    +0.000 A 
ATOM     19  C   UNL     1       7.061   3.793  11.989  0.00  0.00    +0.000 A 
ATOM     20  C   UNL     1       5.876   3.378  12.599  0.00  0.00    +0.000 A 
ATOM     21  C   UNL     1       5.418   4.016  13.753  0.00  0.00    +0.000 A 
ENDBRANCH  13  16
ENDBRANCH  11  13
ENDBRANCH   1  11
BRANCH   1  22
ATOM     22  P   UNL     1       3.324   5.630  18.923  0.00  0.00    +0.000 P 
ATOM     23  O   UNL     1       2.402   5.483  17.707  0.00  0.00    +0.000 OA
BRANCH  22  24
ATOM     24  O   UNL     1       3.035   4.341  19.928  0.00  0.00    +0.000 OA
BRANCH  24  25
ATOM     25  C   UNL     1       1.966   4.263  20.867  0.00  0.00    +0.000 C 
ATOM     26  C   UNL     1       0.750   3.767  20.078  0.00  0.00    +0.000 C 
ATOM     27  C   UNL     1       2.203   3.258  21.990  0.00  0.00    +0.000 C 
ENDBRANCH  24  25
ENDBRANCH  22  24
BRANCH  22  28
ATOM     28  O   UNL     1       2.161   6.583  19.778  0.00  0.00    +0.000 OA
BRANCH  28  29
ATOM     29  C   UNL     1       2.204   8.018  19.640  0.00  0.00    +0.000 C 
ATOM     30  C   UNL     1       1.894   8.515  18.221  0.00  0.00    +0.000 C 
ATOM     31  C   UNL     1       1.210   8.647  20.606  0.00  0.00    +0.000 C 
ENDBRANCH  28  29
ENDBRANCH  22  28
ENDBRANCH   1  22
TORSDOF 12
ENDMDL
MODEL 9
REMARK VINA RESULT:      -6.1      2.005      6.626
REMARK  Name = 
REMARK  17 active torsions:
REMARK  status: ('A' for Active; 'I' for Inactive)
REMARK    1  A    between atoms: C_1  and  C_2
REMARK    2  A    between atoms: C_2  and  O_3
REMARK    3  A    between atoms: O_3  and  C_4
REMARK    4  A    between atoms: C_4  and  C_6
REMARK    5  A    between atoms: C_6  and  N_7
REMARK    6  A    between atoms: C_6  and  C_17
REMARK    7  A    between atoms: C_6  and  P_21
REMARK    8  A    between atoms: N_7  and  S_8
REMARK    9  A    between atoms: S_8  and  C_11
REMARK   10  A    between atoms: P_21  and  O_23
REMARK   11  A    between atoms: P_21  and  O_27
REMARK   12  A    between atoms: O_23  and  C_24
REMARK   13  A    between atoms: C_24  and  C_25
REMARK   14  A    between atoms: C_24  and  C_26
REMARK   15  A    between atoms: O_27  and  C_28
REMARK   16  A    between atoms: C_28  and  C_29
REMARK   17  A    between atoms: C_28  and  C_30
REMARK                            x       y       z     vdW  Elec       q    Type
REMARK                         _______ _______ _______ _____ _____    ______ ____
ROOT
ATOM      1  C   UNL     1       4.204   4.985  18.093  0.00  0.00    +0.000 C 
ENDROOT
BRANCH   1   2
ATOM      2  C   UNL     1       4.785   4.147  19.284  0.00  0.00    +0.000 C 
ATOM      3  F   UNL     1       4.514   2.822  19.273  0.00  0.00    +0.000 F 
ATOM      4  F   UNL     1       6.109   4.277  19.479  0.00  0.00    +0.000 F 
ATOM      5  F   UNL     1       4.215   4.600  20.447  0.00  0.00    +0.000 F 
ENDBRANCH   1   2
BRANCH   1   6
ATOM      6  C   UNL     1       2.967   4.205  17.805  0.00  0.00    +0.000 C 
ATOM      7  O   UNL     1       2.796   3.602  16.747  0.00  0.00    +0.000 OA
BRANCH   6   8
ATOM      8  O   UNL     1       1.988   4.414  18.725  0.00  0.00    +0.000 OA
BRANCH   8  10
ATOM      9  C   UNL     1       1.255   2.914  20.475  0.00  0.00    +0.000 C 
ATOM     10  C   UNL     1       1.124   3.304  19.025  0.00  0.00    +0.000 C 
ENDBRANCH   8  10
ENDBRANCH   6   8
ENDBRANCH   1   6
BRANCH   1  11
ATOM     11  N   UNL     1       3.840   6.408  18.728  0.00  0.00    +0.000 NA
ATOM     12  H   UNL     1       4.681   6.919  19.020  0.00  0.00    +0.000 HD
BRANCH  11  13
ATOM     13  S   UNL     1       2.683   7.411  17.991  0.00  0.00    +0.000 S 
ATOM     14  O   UNL     1       3.422   8.388  17.208  0.00  0.00    +0.000 OA
ATOM     15  O   UNL     1       1.717   6.525  17.376  0.00  0.00    +0.000 OA
BRANCH  13  16
ATOM     16  C   UNL     1       1.846   8.298  19.282  0.00  0.00    +0.000 A 
ATOM     17  C   UNL     1       1.765   7.765  20.575  0.00  0.00    +0.000 A 
ATOM     18  C   UNL     1       0.991   8.415  21.543  0.00  0.00    +0.000 A 
ATOM     19  C   UNL     1       0.369   9.625  21.239  0.00  0.00    +0.000 A 
ATOM     20  C   UNL     1       0.548  10.208  19.983  0.00  0.00    +0.000 A 
ATOM     21  C   UNL     1       1.294   9.551  19.003  0.00  0.00    +0.000 A 
ENDBRANCH  13  16
ENDBRANCH  11  13
ENDBRANCH   1  11
BRANCH   1  22
ATOM     22  P   UNL     1       5.496   5.270  16.828  0.00  0.00    +0.000 P 
ATOM     23  O   UNL     1       4.416   5.936  15.966  0.00  0.00    +0.000 OA
BRANCH  22  24
ATOM     24  O   UNL     1       6.157   6.446  17.796  0.00  0.00    +0.000 OA
BRANCH  24  25
ATOM     25  C   UNL     1       7.545   6.767  17.855  0.00  0.00    +0.000 C 
ATOM     26  C   UNL     1       7.630   8.290  17.707  0.00  0.00    +0.000 C 
ATOM     27  C   UNL     1       8.203   6.415  19.186  0.00  0.00    +0.000 C 
ENDBRANCH  24  25
ENDBRANCH  22  24
BRANCH  22  28
ATOM     28  O   UNL     1       6.716   5.540  15.632  0.00  0.00    +0.000 OA
BRANCH  28  29
ATOM     29  C   UNL     1       6.488   5.064  14.289  0.00  0.00    +0.000 C 
ATOM     30  C   UNL     1       7.696   5.233  13.357  0.00  0.00    +0.000 C 
ATOM     31  C   UNL     1       6.108   3.591  14.335  0.00  0.00    +0.000 C 
ENDBRANCH  28  29
ENDBRANCH  22  28
ENDBRANCH   1  22
TORSDOF 12
ENDMDL
