MODEL 1
REMARK VINA RESULT:      -7.3      0.000      0.000
REMARK  Name = 
REMARK  6 active torsions:
REMARK  status: ('A' for Active; 'I' for Inactive)
REMARK    1  A    between atoms: C_1  and  C_2
REMARK    2  A    between atoms: C_2  and  C_4
REMARK    3  A    between atoms: C_7  and  O_8
REMARK    4  A    between atoms: O_8  and  C_9
REMARK    5  A    between atoms: C_12  and  N_13
REMARK    6  A    between atoms: C_17  and  C_18
REMARK                            x       y       z     vdW  Elec       q    Type
REMARK                         _______ _______ _______ _____ _____    ______ ____
ROOT
ATOM      1  C   UNL     1       5.439   4.569  16.781  0.00  0.00    +0.000 A 
ATOM      2  C   UNL     1       4.881   4.228  15.539  0.00  0.00    +0.000 A 
ATOM      3  C   UNL     1       5.613   4.389  14.366  0.00  0.00    +0.000 A 
ATOM      4  C   UNL     1       6.940   4.821  14.441  0.00  0.00    +0.000 A 
ATOM      5  C   UNL     1       7.547   5.054  15.686  0.00  0.00    +0.000 A 
ATOM      6  C   UNL     1       6.793   4.924  16.862  0.00  0.00    +0.000 A 
ENDROOT
BRANCH   4   7
ATOM      7  N   UNL     1       7.695   5.039  13.201  0.00  0.00    +0.000 N 
ATOM      8  O   UNL     1       7.335   4.417  12.192  0.00  0.00    +0.000 OA
ATOM      9  O   UNL     1       8.639   5.839  13.239  0.00  0.00    +0.000 OA
ENDBRANCH   4   7
BRANCH   6  10
ATOM     10  C   UNL     1       7.428   5.156  18.131  0.00  0.00    +0.000 C 
ATOM     11  N   UNL     1       7.954   5.311  19.152  0.00  0.00    +0.000 NA
ENDBRANCH   6  10
BRANCH   1  12
ATOM     12  O   UNL     1       4.696   4.541  17.944  0.00  0.00    +0.000 OA
BRANCH  12  16
ATOM     13  C   UNL     1       2.238   7.736  19.061  0.00  0.00    +0.000 A 
ATOM     14  C   UNL     1       2.361   6.588  19.854  0.00  0.00    +0.000 A 
ATOM     15  C   UNL     1       3.200   5.543  19.457  0.00  0.00    +0.000 A 
ATOM     16  C   UNL     1       3.918   5.635  18.265  0.00  0.00    +0.000 A 
ATOM     17  C   UNL     1       3.837   6.801  17.497  0.00  0.00    +0.000 A 
ATOM     18  C   UNL     1       2.976   7.833  17.875  0.00  0.00    +0.000 A 
BRANCH  13  20
ATOM     19  C   UNL     1       0.843   9.787  18.363  0.00  0.00    +0.000 C 
ATOM     20  C   UNL     1       1.353   8.876  19.447  0.00  0.00    +0.000 C 
ATOM     21  O   UNL     1       1.054   9.048  20.626  0.00  0.00    +0.000 OA
ENDBRANCH  13  20
ENDBRANCH  12  16
ENDBRANCH   1  12
TORSDOF 5
ENDMDL
MODEL 2
REMARK VINA RESULT:      -7.3      0.577      1.022
REMARK  Name = 
REMARK  6 active torsions:
REMARK  status: ('A' for Active; 'I' for Inactive)
REMARK    1  A    between atoms: C_1  and  C_2
REMARK    2  A    between atoms: C_2  and  C_4
REMARK    3  A    between atoms: C_7  and  O_8
REMARK    4  A    between atoms: O_8  and  C_9
REMARK    5  A    between atoms: C_12  and  N_13
REMARK    6  A    between atoms: C_17  and  C_18
REMARK                            x       y       z     vdW  Elec       q    Type
REMARK                         _______ _______ _______ _____ _____    ______ ____
ROOT
ATOM      1  C   UNL     1       5.436   4.469  16.792  0.00  0.00    +0.000 A 
ATOM      2  C   UNL     1       4.872   4.144  15.548  0.00  0.00    +0.000 A 
ATOM      3  C   UNL     1       5.592   4.340  14.372  0.00  0.00    +0.000 A 
ATOM      4  C   UNL     1       6.912   4.791  14.445  0.00  0.00    +0.000 A 
ATOM      5  C   UNL     1       7.526   5.009  15.689  0.00  0.00    +0.000 A 
ATOM      6  C   UNL     1       6.784   4.844  16.869  0.00  0.00    +0.000 A 
ENDROOT
BRANCH   4   7
ATOM      7  N   UNL     1       7.653   5.046  13.203  0.00  0.00    +0.000 N 
ATOM      8  O   UNL     1       8.581   5.866  13.245  0.00  0.00    +0.000 OA
ATOM      9  O   UNL     1       7.309   4.418  12.193  0.00  0.00    +0.000 OA
ENDBRANCH   4   7
BRANCH   6  10
ATOM     10  C   UNL     1       7.427   5.060  18.137  0.00  0.00    +0.000 C 
ATOM     11  N   UNL     1       7.959   5.204  19.156  0.00  0.00    +0.000 NA
ENDBRANCH   6  10
BRANCH   1  12
ATOM     12  O   UNL     1       4.704   4.406  17.961  0.00  0.00    +0.000 OA
BRANCH  12  16
ATOM     13  C   UNL     1       2.267   7.571  19.203  0.00  0.00    +0.000 A 
ATOM     14  C   UNL     1       2.397   6.399  19.960  0.00  0.00    +0.000 A 
ATOM     15  C   UNL     1       3.228   5.365  19.521  0.00  0.00    +0.000 A 
ATOM     16  C   UNL     1       3.932   5.491  18.324  0.00  0.00    +0.000 A 
ATOM     17  C   UNL     1       3.845   6.680  17.592  0.00  0.00    +0.000 A 
ATOM     18  C   UNL     1       2.992   7.702  18.012  0.00  0.00    +0.000 A 
BRANCH  13  20
ATOM     19  C   UNL     1       1.002   8.793  21.085  0.00  0.00    +0.000 C 
ATOM     20  C   UNL     1       1.390   8.701  19.634  0.00  0.00    +0.000 C 
ATOM     21  O   UNL     1       1.007   9.528  18.811  0.00  0.00    +0.000 OA
ENDBRANCH  13  20
ENDBRANCH  12  16
ENDBRANCH   1  12
TORSDOF 5
ENDMDL
MODEL 3
REMARK VINA RESULT:      -7.2      0.265      1.277
REMARK  Name = 
REMARK  6 active torsions:
REMARK  status: ('A' for Active; 'I' for Inactive)
REMARK    1  A    between atoms: C_1  and  C_2
REMARK    2  A    between atoms: C_2  and  C_4
REMARK    3  A    between atoms: C_7  and  O_8
REMARK    4  A    between atoms: O_8  and  C_9
REMARK    5  A    between atoms: C_12  and  N_13
REMARK    6  A    between atoms: C_17  and  C_18
REMARK                            x       y       z     vdW  Elec       q    Type
REMARK                         _______ _______ _______ _____ _____    ______ ____
ROOT
ATOM      1  C   UNL     1       5.421   4.502  17.071  0.00  0.00    +0.000 A 
ATOM      2  C   UNL     1       4.830   4.122  15.856  0.00  0.00    +0.000 A 
ATOM      3  C   UNL     1       5.511   4.294  14.654  0.00  0.00    +0.000 A 
ATOM      4  C   UNL     1       6.823   4.776  14.674  0.00  0.00    +0.000 A 
ATOM      5  C   UNL     1       7.466   5.050  15.891  0.00  0.00    +0.000 A 
ATOM      6  C   UNL     1       6.762   4.909  17.097  0.00  0.00    +0.000 A 
ENDROOT
BRANCH   4   7
ATOM      7  N   UNL     1       7.522   5.004  13.403  0.00  0.00    +0.000 N 
ATOM      8  O   UNL     1       8.475   5.795  13.406  0.00  0.00    +0.000 OA
ATOM      9  O   UNL     1       7.120   4.384  12.409  0.00  0.00    +0.000 OA
ENDBRANCH   4   7
BRANCH   6  10
ATOM     10  C   UNL     1       7.435   5.183  18.338  0.00  0.00    +0.000 C 
ATOM     11  N   UNL     1       7.993   5.374  19.335  0.00  0.00    +0.000 NA
ENDBRANCH   6  10
BRANCH   1  12
ATOM     12  O   UNL     1       4.723   4.463  18.262  0.00  0.00    +0.000 OA
BRANCH  12  16
ATOM     13  C   UNL     1       2.250   7.742  19.057  0.00  0.00    +0.000 A 
ATOM     14  C   UNL     1       3.018   7.664  17.887  0.00  0.00    +0.000 A 
ATOM     15  C   UNL     1       3.826   6.548  17.648  0.00  0.00    +0.000 A 
ATOM     16  C   UNL     1       3.876   5.507  18.574  0.00  0.00    +0.000 A 
ATOM     17  C   UNL     1       3.072   5.559  19.717  0.00  0.00    +0.000 A 
ATOM     18  C   UNL     1       2.287   6.685  19.974  0.00  0.00    +0.000 A 
BRANCH  13  20
ATOM     19  C   UNL     1       1.172   9.949  18.278  0.00  0.00    +0.000 C 
ATOM     20  C   UNL     1       1.374   8.915  19.353  0.00  0.00    +0.000 C 
ATOM     21  O   UNL     1       0.836   9.017  20.453  0.00  0.00    +0.000 OA
ENDBRANCH  13  20
ENDBRANCH  12  16
ENDBRANCH   1  12
TORSDOF 5
ENDMDL
MODEL 4
REMARK VINA RESULT:      -7.2      2.187      3.037
REMARK  Name = 
REMARK  6 active torsions:
REMARK  status: ('A' for Active; 'I' for Inactive)
REMARK    1  A    between atoms: C_1  and  C_2
REMARK    2  A    between atoms: C_2  and  C_4
REMARK    3  A    between atoms: C_7  and  O_8
REMARK    4  A    between atoms: O_8  and  C_9
REMARK    5  A    between atoms: C_12  and  N_13
REMARK    6  A    between atoms: C_17  and  C_18
REMARK                            x       y       z     vdW  Elec       q    Type
REMARK                         _______ _______ _______ _____ _____    ______ ____
ROOT
ATOM      1  C   UNL     1       3.977   5.867  18.000  0.00  0.00    +0.000 A 
ATOM      2  C   UNL     1       5.035   6.715  17.635  0.00  0.00    +0.000 A 
ATOM      3  C   UNL     1       5.932   6.337  16.639  0.00  0.00    +0.000 A 
ATOM      4  C   UNL     1       5.725   5.140  15.949  0.00  0.00    +0.000 A 
ATOM      5  C   UNL     1       4.605   4.339  16.225  0.00  0.00    +0.000 A 
ATOM      6  C   UNL     1       3.724   4.707  17.254  0.00  0.00    +0.000 A 
ENDROOT
BRANCH   4   7
ATOM      7  N   UNL     1       6.700   4.719  14.935  0.00  0.00    +0.000 N 
ATOM      8  O   UNL     1       6.425   3.723  14.252  0.00  0.00    +0.000 OA
ATOM      9  O   UNL     1       7.732   5.392  14.820  0.00  0.00    +0.000 OA
ENDBRANCH   4   7
BRANCH   6  10
ATOM     10  C   UNL     1       2.575   3.884  17.520  0.00  0.00    +0.000 C 
ATOM     11  N   UNL     1       1.669   3.193  17.733  0.00  0.00    +0.000 NA
ENDBRANCH   6  10
BRANCH   1  12
ATOM     12  O   UNL     1       3.149   6.155  19.067  0.00  0.00    +0.000 OA
BRANCH  12  16
ATOM     13  C   UNL     1       0.830   9.635  19.181  0.00  0.00    +0.000 A 
ATOM     14  C   UNL     1       1.104   8.893  20.338  0.00  0.00    +0.000 A 
ATOM     15  C   UNL     1       1.892   7.740  20.265  0.00  0.00    +0.000 A 
ATOM     16  C   UNL     1       2.408   7.319  19.041  0.00  0.00    +0.000 A 
ATOM     17  C   UNL     1       2.179   8.085  17.893  0.00  0.00    +0.000 A 
ATOM     18  C   UNL     1       1.367   9.219  17.956  0.00  0.00    +0.000 A 
BRANCH  13  20
ATOM     19  C   UNL     1      -1.235  10.928  18.343  0.00  0.00    +0.000 C 
ATOM     20  C   UNL     1      -0.007  10.871  19.212  0.00  0.00    +0.000 C 
ATOM     21  O   UNL     1       0.311  11.809  19.939  0.00  0.00    +0.000 OA
ENDBRANCH  13  20
ENDBRANCH  12  16
ENDBRANCH   1  12
TORSDOF 5
ENDMDL
MODEL 5
REMARK VINA RESULT:      -7.2      0.694      1.319
REMARK  Name = 
REMARK  6 active torsions:
REMARK  status: ('A' for Active; 'I' for Inactive)
REMARK    1  A    between atoms: C_1  and  C_2
REMARK    2  A    between atoms: C_2  and  C_4
REMARK    3  A    between atoms: C_7  and  O_8
REMARK    4  A    between atoms: O_8  and  C_9
REMARK    5  A    between atoms: C_12  and  N_13
REMARK    6  A    between atoms: C_17  and  C_18
REMARK                            x       y       z     vdW  Elec       q    Type
REMARK                         _______ _______ _______ _____ _____    ______ ____
ROOT
ATOM      1  C   UNL     1       5.391   4.616  17.161  0.00  0.00    +0.000 A 
ATOM      2  C   UNL     1       4.762   4.256  15.959  0.00  0.00    +0.000 A 
ATOM      3  C   UNL     1       5.438   4.366  14.747  0.00  0.00    +0.000 A 
ATOM      4  C   UNL     1       6.778   4.763  14.744  0.00  0.00    +0.000 A 
ATOM      5  C   UNL     1       7.453   5.014  15.949  0.00  0.00    +0.000 A 
ATOM      6  C   UNL     1       6.756   4.936  17.165  0.00  0.00    +0.000 A 
ENDROOT
BRANCH   4   7
ATOM      7  N   UNL     1       7.475   4.927  13.461  0.00  0.00    +0.000 N 
ATOM      8  O   UNL     1       7.107   4.220  12.513  0.00  0.00    +0.000 OA
ATOM      9  O   UNL     1       8.380   5.769  13.406  0.00  0.00    +0.000 OA
ENDBRANCH   4   7
BRANCH   6  10
ATOM     10  C   UNL     1       7.460   5.186  18.394  0.00  0.00    +0.000 C 
ATOM     11  N   UNL     1       8.044   5.413  19.368  0.00  0.00    +0.000 NA
ENDBRANCH   6  10
BRANCH   1  12
ATOM     12  O   UNL     1       4.708   4.640  18.361  0.00  0.00    +0.000 OA
BRANCH  12  16
ATOM     13  C   UNL     1       2.179   7.914  18.983  0.00  0.00    +0.000 A 
ATOM     14  C   UNL     1       3.032   7.841  17.874  0.00  0.00    +0.000 A 
ATOM     15  C   UNL     1       3.857   6.728  17.691  0.00  0.00    +0.000 A 
ATOM     16  C   UNL     1       3.838   5.682  18.612  0.00  0.00    +0.000 A 
ATOM     17  C   UNL     1       2.950   5.727  19.692  0.00  0.00    +0.000 A 
ATOM     18  C   UNL     1       2.148   6.852  19.895  0.00  0.00    +0.000 A 
BRANCH  13  20
ATOM     19  C   UNL     1       0.718   9.290  20.597  0.00  0.00    +0.000 C 
ATOM     20  C   UNL     1       1.282   9.085  19.218  0.00  0.00    +0.000 C 
ATOM     21  O   UNL     1       1.025   9.856  18.296  0.00  0.00    +0.000 OA
ENDBRANCH  13  20
ENDBRANCH  12  16
ENDBRANCH   1  12
TORSDOF 5
ENDMDL
MODEL 6
REMARK VINA RESULT:      -7.1      2.151      3.170
REMARK  Name = 
REMARK  6 active torsions:
REMARK  status: ('A' for Active; 'I' for Inactive)
REMARK    1  A    between atoms: C_1  and  C_2
REMARK    2  A    between atoms: C_2  and  C_4
REMARK    3  A    between atoms: C_7  and  O_8
REMARK    4  A    between atoms: O_8  and  C_9
REMARK    5  A    between atoms: C_12  and  N_13
REMARK    6  A    between atoms: C_17  and  C_18
REMARK                            x       y       z     vdW  Elec       q    Type
REMARK                         _______ _______ _______ _____ _____    ______ ____
ROOT
ATOM      1  C   UNL     1       4.101   5.731  18.036  0.00  0.00    +0.000 A 
ATOM      2  C   UNL     1       5.159   6.587  17.692  0.00  0.00    +0.000 A 
ATOM      3  C   UNL     1       6.030   6.255  16.659  0.00  0.00    +0.000 A 
ATOM      4  C   UNL     1       5.796   5.097  15.912  0.00  0.00    +0.000 A 
ATOM      5  C   UNL     1       4.674   4.293  16.170  0.00  0.00    +0.000 A 
ATOM      6  C   UNL     1       3.820   4.614  17.237  0.00  0.00    +0.000 A 
ENDROOT
BRANCH   4   7
ATOM      7  N   UNL     1       6.744   4.722  14.855  0.00  0.00    +0.000 N 
ATOM      8  O   UNL     1       7.766   5.410  14.729  0.00  0.00    +0.000 OA
ATOM      9  O   UNL     1       6.467   3.734  14.163  0.00  0.00    +0.000 OA
ENDBRANCH   4   7
BRANCH   6  10
ATOM     10  C   UNL     1       2.669   3.789  17.485  0.00  0.00    +0.000 C 
ATOM     11  N   UNL     1       1.756   3.113  17.715  0.00  0.00    +0.000 NA
ENDBRANCH   6  10
BRANCH   1  12
ATOM     12  O   UNL     1       3.300   5.970  19.135  0.00  0.00    +0.000 OA
BRANCH  12  16
ATOM     13  C   UNL     1       1.040   9.488  19.027  0.00  0.00    +0.000 A 
ATOM     14  C   UNL     1       1.622   8.950  17.872  0.00  0.00    +0.000 A 
ATOM     15  C   UNL     1       2.362   7.766  17.942  0.00  0.00    +0.000 A 
ATOM     16  C   UNL     1       2.530   7.114  19.163  0.00  0.00    +0.000 A 
ATOM     17  C   UNL     1       1.907   7.621  20.309  0.00  0.00    +0.000 A 
ATOM     18  C   UNL     1       1.193   8.820  20.248  0.00  0.00    +0.000 A 
BRANCH  13  20
ATOM     19  C   UNL     1      -1.160  10.700  18.455  0.00  0.00    +0.000 C 
ATOM     20  C   UNL     1       0.242  10.750  18.999  0.00  0.00    +0.000 C 
ATOM     21  O   UNL     1       0.733  11.796  19.417  0.00  0.00    +0.000 OA
ENDBRANCH  13  20
ENDBRANCH  12  16
ENDBRANCH   1  12
TORSDOF 5
ENDMDL
MODEL 7
REMARK VINA RESULT:      -7.1      0.820      1.101
REMARK  Name = 
REMARK  6 active torsions:
REMARK  status: ('A' for Active; 'I' for Inactive)
REMARK    1  A    between atoms: C_1  and  C_2
REMARK    2  A    between atoms: C_2  and  C_4
REMARK    3  A    between atoms: C_7  and  O_8
REMARK    4  A    between atoms: O_8  and  C_9
REMARK    5  A    between atoms: C_12  and  N_13
REMARK    6  A    between atoms: C_17  and  C_18
REMARK                            x       y       z     vdW  Elec       q    Type
REMARK                         _______ _______ _______ _____ _____    ______ ____
ROOT
ATOM      1  C   UNL     1       4.918   4.727  17.531  0.00  0.00    +0.000 A 
ATOM      2  C   UNL     1       4.373   4.322  16.302  0.00  0.00    +0.000 A 
ATOM      3  C   UNL     1       5.139   4.368  15.140  0.00  0.00    +0.000 A 
ATOM      4  C   UNL     1       6.481   4.746  15.220  0.00  0.00    +0.000 A 
ATOM      5  C   UNL     1       7.070   5.041  16.460  0.00  0.00    +0.000 A 
ATOM      6  C   UNL     1       6.284   5.028  17.623  0.00  0.00    +0.000 A 
ENDROOT
BRANCH   4   7
ATOM      7  N   UNL     1       7.273   4.843  13.987  0.00  0.00    +0.000 N 
ATOM      8  O   UNL     1       8.248   5.607  13.988  0.00  0.00    +0.000 OA
ATOM      9  O   UNL     1       6.922   4.146  13.026  0.00  0.00    +0.000 OA
ENDBRANCH   4   7
BRANCH   6  10
ATOM     10  C   UNL     1       6.900   5.323  18.888  0.00  0.00    +0.000 C 
ATOM     11  N   UNL     1       7.416   5.533  19.904  0.00  0.00    +0.000 NA
ENDBRANCH   6  10
BRANCH   1  12
ATOM     12  O   UNL     1       4.148   4.814  18.674  0.00  0.00    +0.000 OA
BRANCH  12  16
ATOM     13  C   UNL     1       1.767   8.159  19.476  0.00  0.00    +0.000 A 
ATOM     14  C   UNL     1       1.906   7.114  20.400  0.00  0.00    +0.000 A 
ATOM     15  C   UNL     1       2.719   6.016  20.104  0.00  0.00    +0.000 A 
ATOM     16  C   UNL     1       3.394   5.950  18.886  0.00  0.00    +0.000 A 
ATOM     17  C   UNL     1       3.297   7.014  17.983  0.00  0.00    +0.000 A 
ATOM     18  C   UNL     1       2.462   8.099  18.262  0.00  0.00    +0.000 A 
BRANCH  13  20
ATOM     19  C   UNL     1       0.352  10.117  18.581  0.00  0.00    +0.000 C 
ATOM     20  C   UNL     1       0.909   9.350  19.750  0.00  0.00    +0.000 C 
ATOM     21  O   UNL     1       0.669   9.680  20.909  0.00  0.00    +0.000 OA
ENDBRANCH  13  20
ENDBRANCH  12  16
ENDBRANCH   1  12
TORSDOF 5
ENDMDL
MODEL 8
REMARK VINA RESULT:      -7.1      2.867      7.307
REMARK  Name = 
REMARK  6 active torsions:
REMARK  status: ('A' for Active; 'I' for Inactive)
REMARK    1  A    between atoms: C_1  and  C_2
REMARK    2  A    between atoms: C_2  and  C_4
REMARK    3  A    between atoms: C_7  and  O_8
REMARK    4  A    between atoms: O_8  and  C_9
REMARK    5  A    between atoms: C_12  and  N_13
REMARK    6  A    between atoms: C_17  and  C_18
REMARK                            x       y       z     vdW  Elec       q    Type
REMARK                         _______ _______ _______ _____ _____    ______ ____
ROOT
ATOM      1  C   UNL     1       4.709   4.872  18.575  0.00  0.00    +0.000 A 
ATOM      2  C   UNL     1       4.872   3.574  19.084  0.00  0.00    +0.000 A 
ATOM      3  C   UNL     1       3.946   3.043  19.978  0.00  0.00    +0.000 A 
ATOM      4  C   UNL     1       2.807   3.784  20.305  0.00  0.00    +0.000 A 
ATOM      5  C   UNL     1       2.573   5.035  19.712  0.00  0.00    +0.000 A 
ATOM      6  C   UNL     1       3.528   5.580  18.840  0.00  0.00    +0.000 A 
ENDROOT
BRANCH   4   7
ATOM      7  N   UNL     1       1.858   3.244  21.286  0.00  0.00    +0.000 N 
ATOM      8  O   UNL     1       0.707   3.000  20.898  0.00  0.00    +0.000 OA
ATOM      9  O   UNL     1       2.270   3.057  22.438  0.00  0.00    +0.000 OA
ENDBRANCH   4   7
BRANCH   6  10
ATOM     10  C   UNL     1       3.273   6.858  18.232  0.00  0.00    +0.000 C 
ATOM     11  N   UNL     1       3.050   7.872  17.717  0.00  0.00    +0.000 NA
ENDBRANCH   6  10
BRANCH   1  12
ATOM     12  O   UNL     1       5.673   5.472  17.790  0.00  0.00    +0.000 OA
BRANCH  12  16
ATOM     13  C   UNL     1       6.363   4.269  13.843  0.00  0.00    +0.000 A 
ATOM     14  C   UNL     1       7.305   5.018  14.562  0.00  0.00    +0.000 A 
ATOM     15  C   UNL     1       7.046   5.394  15.883  0.00  0.00    +0.000 A 
ATOM     16  C   UNL     1       5.848   5.030  16.495  0.00  0.00    +0.000 A 
ATOM     17  C   UNL     1       4.928   4.239  15.798  0.00  0.00    +0.000 A 
ATOM     18  C   UNL     1       5.169   3.888  14.468  0.00  0.00    +0.000 A 
BRANCH  13  20
ATOM     19  C   UNL     1       5.714   2.778  11.845  0.00  0.00    +0.000 C 
ATOM     20  C   UNL     1       6.598   3.847  12.430  0.00  0.00    +0.000 C 
ATOM     21  O   UNL     1       7.493   4.373  11.773  0.00  0.00    +0.000 OA
ENDBRANCH  13  20
ENDBRANCH  12  16
ENDBRANCH   1  12
TORSDOF 5
ENDMDL
MODEL 9
REMARK VINA RESULT:      -7.0      2.575      3.824
REMARK  Name = 
REMARK  6 active torsions:
REMARK  status: ('A' for Active; 'I' for Inactive)
REMARK    1  A    between atoms: C_1  and  C_2
REMARK    2  A    between atoms: C_2  and  C_4
REMARK    3  A    between atoms: C_7  and  O_8
REMARK    4  A    between atoms: O_8  and  C_9
REMARK    5  A    between atoms: C_12  and  N_13
REMARK    6  A    between atoms: C_17  and  C_18
REMARK                            x       y       z     vdW  Elec       q    Type
REMARK                         _______ _______ _______ _____ _____    ______ ____
ROOT
ATOM      1  C   UNL     1       3.659   6.070  17.714  0.00  0.00    +0.000 A 
ATOM      2  C   UNL     1       4.722   6.918  17.365  0.00  0.00    +0.000 A 
ATOM      3  C   UNL     1       6.040   6.494  17.507  0.00  0.00    +0.000 A 
ATOM      4  C   UNL     1       6.297   5.186  17.927  0.00  0.00    +0.000 A 
ATOM      5  C   UNL     1       5.242   4.291  18.167  0.00  0.00    +0.000 A 
ATOM      6  C   UNL     1       3.915   4.735  18.057  0.00  0.00    +0.000 A 
ENDROOT
BRANCH   4   7
ATOM      7  N   UNL     1       7.687   4.756  18.125  0.00  0.00    +0.000 N 
ATOM      8  O   UNL     1       8.212   4.995  19.221  0.00  0.00    +0.000 OA
ATOM      9  O   UNL     1       8.245   4.173  17.186  0.00  0.00    +0.000 OA
ENDBRANCH   4   7
BRANCH   6  10
ATOM     10  C   UNL     1       2.843   3.807  18.297  0.00  0.00    +0.000 C 
ATOM     11  N   UNL     1       1.982   3.050  18.457  0.00  0.00    +0.000 NA
ENDBRANCH   6  10
BRANCH   1  12
ATOM     12  O   UNL     1       2.349   6.506  17.705  0.00  0.00    +0.000 OA
BRANCH  12  16
ATOM     13  C   UNL     1       1.112   9.179  20.677  0.00  0.00    +0.000 A 
ATOM     14  C   UNL     1       1.488   7.863  20.978  0.00  0.00    +0.000 A 
ATOM     15  C   UNL     1       1.906   6.999  19.962  0.00  0.00    +0.000 A 
ATOM     16  C   UNL     1       1.950   7.440  18.640  0.00  0.00    +0.000 A 
ATOM     17  C   UNL     1       1.625   8.767  18.343  0.00  0.00    +0.000 A 
ATOM     18  C   UNL     1       1.177   9.624  19.351  0.00  0.00    +0.000 A 
BRANCH  13  20
ATOM     19  C   UNL     1      -0.064   9.588  22.932  0.00  0.00    +0.000 C 
ATOM     20  C   UNL     1       0.658  10.135  21.730  0.00  0.00    +0.000 C 
ATOM     21  O   UNL     1       0.881  11.337  21.605  0.00  0.00    +0.000 OA
ENDBRANCH  13  20
ENDBRANCH  12  16
ENDBRANCH   1  12
TORSDOF 5
ENDMDL
