MODEL 1
REMARK VINA RESULT:      -7.8      0.000      0.000
REMARK  Name = 
REMARK  11 active torsions:
REMARK  status: ('A' for Active; 'I' for Inactive)
REMARK    1  A    between atoms: C_1  and  C_2
REMARK    2  A    between atoms: C_2  and  C_3
REMARK    3  A    between atoms: C_2  and  N_4
REMARK    4  A    between atoms: C_5  and  C_7
REMARK    5  A    between atoms: C_10  and  C_11
REMARK    6  A    between atoms: C_11  and  O_12
REMARK    7  A    between atoms: O_12  and  C_13
REMARK    8  A    between atoms: C_16  and  C_17
REMARK    9  A    between atoms: C_17  and  C_18
REMARK   10  A    between atoms: C_17  and  C_19
REMARK   11  A    between atoms: C_17  and  C_20
REMARK                            x       y       z     vdW  Elec       q    Type
REMARK                         _______ _______ _______ _____ _____    ______ ____
ROOT
ATOM      1  C   UNL     1       7.953   7.722  18.010  0.00  0.00    +0.000 A 
ATOM      2  C   UNL     1       8.112   6.706  18.929  0.00  0.00    +0.000 A 
ATOM      3  C   UNL     1       7.712   5.507  18.291  0.00  0.00    +0.000 A 
ATOM      4  C   UNL     1       7.329   5.854  17.012  0.00  0.00    +0.000 A 
ATOM      5  O   UNL     1       7.476   7.202  16.833  0.00  0.00    +0.000 OA
ENDROOT
BRANCH   1   7
ATOM      6  N   UNL     1       9.022   9.492  19.176  0.00  0.00    +0.000 N 
ATOM      7  C   UNL     1       8.215   9.145  18.111  0.00  0.00    +0.000 C 
ATOM      8  O   UNL     1       7.753   9.975  17.333  0.00  0.00    +0.000 OA
ATOM      9  H   UNL     1       9.442   8.726  19.690  0.00  0.00    +0.000 HD
BRANCH   6  11
ATOM     10  C   UNL     1       9.412  11.101  20.966  0.00  0.00    +0.000 C 
ATOM     11  C   UNL     1       9.418  10.861  19.459  0.00  0.00    +0.000 C 
ATOM     12  C   UNL     1      10.792  11.171  18.871  0.00  0.00    +0.000 C 
ENDBRANCH   6  11
ENDBRANCH   1   7
BRANCH   4  13
ATOM     13  C   UNL     1       6.808   5.077  15.855  0.00  0.00    +0.000 C 
BRANCH  13  14
ATOM     14  O   UNL     1       5.468   5.520  15.657  0.00  0.00    +0.000 OA
BRANCH  14  15
ATOM     15  C   UNL     1       4.561   5.178  16.618  0.00  0.00    +0.000 A 
ATOM     16  C   UNL     1       4.413   3.808  16.817  0.00  0.00    +0.000 A 
ATOM     17  C   UNL     1       3.555   3.314  17.802  0.00  0.00    +0.000 A 
ATOM     18  C   UNL     1       2.831   4.176  18.643  0.00  0.00    +0.000 A 
ATOM     19  C   UNL     1       2.985   5.559  18.419  0.00  0.00    +0.000 A 
ATOM     20  C   UNL     1       3.840   6.056  17.422  0.00  0.00    +0.000 A 
BRANCH  18  21
ATOM     21  C   UNL     1       1.944   3.650  19.787  0.00  0.00    +0.000 C 
ATOM     22  C   UNL     1       0.747   2.805  19.290  0.00  0.00    +0.000 C 
ATOM     23  C   UNL     1       2.783   2.749  20.718  0.00  0.00    +0.000 C 
ATOM     24  C   UNL     1       1.365   4.817  20.613  0.00  0.00    +0.000 C 
ENDBRANCH  18  21
ENDBRANCH  14  15
ENDBRANCH  13  14
ENDBRANCH   4  13
TORSDOF 6
ENDMDL
MODEL 2
REMARK VINA RESULT:      -7.5      0.611      1.153
REMARK  Name = 
REMARK  11 active torsions:
REMARK  status: ('A' for Active; 'I' for Inactive)
REMARK    1  A    between atoms: C_1  and  C_2
REMARK    2  A    between atoms: C_2  and  C_3
REMARK    3  A    between atoms: C_2  and  N_4
REMARK    4  A    between atoms: C_5  and  C_7
REMARK    5  A    between atoms: C_10  and  C_11
REMARK    6  A    between atoms: C_11  and  O_12
REMARK    7  A    between atoms: O_12  and  C_13
REMARK    8  A    between atoms: C_16  and  C_17
REMARK    9  A    between atoms: C_17  and  C_18
REMARK   10  A    between atoms: C_17  and  C_19
REMARK   11  A    between atoms: C_17  and  C_20
REMARK                            x       y       z     vdW  Elec       q    Type
REMARK                         _______ _______ _______ _____ _____    ______ ____
ROOT
ATOM      1  C   UNL     1       8.173   8.346  18.139  0.00  0.00    +0.000 A 
ATOM      2  C   UNL     1       8.291   7.298  19.028  0.00  0.00    +0.000 A 
ATOM      3  C   UNL     1       7.743   6.157  18.394  0.00  0.00    +0.000 A 
ATOM      4  C   UNL     1       7.318   6.568  17.148  0.00  0.00    +0.000 A 
ATOM      5  O   UNL     1       7.580   7.901  16.984  0.00  0.00    +0.000 OA
ENDROOT
BRANCH   1   7
ATOM      6  N   UNL     1       9.391  10.000  19.331  0.00  0.00    +0.000 N 
ATOM      7  C   UNL     1       8.574   9.736  18.250  0.00  0.00    +0.000 C 
ATOM      8  O   UNL     1       8.212  10.609  17.465  0.00  0.00    +0.000 OA
ATOM      9  H   UNL     1       9.722   9.195  19.850  0.00  0.00    +0.000 HD
BRANCH   6  11
ATOM     10  C   UNL     1       9.799  11.604  21.121  0.00  0.00    +0.000 C 
ATOM     11  C   UNL     1       9.915  11.322  19.625  0.00  0.00    +0.000 C 
ATOM     12  C   UNL     1      11.364  11.457  19.164  0.00  0.00    +0.000 C 
ENDBRANCH   6  11
ENDBRANCH   1   7
BRANCH   4  13
ATOM     13  C   UNL     1       6.659   5.871  16.011  0.00  0.00    +0.000 C 
BRANCH  13  14
ATOM     14  O   UNL     1       5.276   6.205  16.097  0.00  0.00    +0.000 OA
BRANCH  14  15
ATOM     15  C   UNL     1       4.506   5.426  16.911  0.00  0.00    +0.000 A 
ATOM     16  C   UNL     1       3.910   6.104  17.970  0.00  0.00    +0.000 A 
ATOM     17  C   UNL     1       3.055   5.444  18.856  0.00  0.00    +0.000 A 
ATOM     18  C   UNL     1       2.747   4.082  18.699  0.00  0.00    +0.000 A 
ATOM     19  C   UNL     1       3.368   3.410  17.627  0.00  0.00    +0.000 A 
ATOM     20  C   UNL     1       4.235   4.071  16.742  0.00  0.00    +0.000 A 
BRANCH  18  21
ATOM     21  C   UNL     1       1.744   3.358  19.616  0.00  0.00    +0.000 C 
ATOM     22  C   UNL     1       0.693   2.532  18.837  0.00  0.00    +0.000 C 
ATOM     23  C   UNL     1       2.502   2.378  20.538  0.00  0.00    +0.000 C 
ATOM     24  C   UNL     1       0.971   4.367  20.491  0.00  0.00    +0.000 C 
ENDBRANCH  18  21
ENDBRANCH  14  15
ENDBRANCH  13  14
ENDBRANCH   4  13
TORSDOF 6
ENDMDL
MODEL 3
REMARK VINA RESULT:      -7.2      3.787      6.214
REMARK  Name = 
REMARK  11 active torsions:
REMARK  status: ('A' for Active; 'I' for Inactive)
REMARK    1  A    between atoms: C_1  and  C_2
REMARK    2  A    between atoms: C_2  and  C_3
REMARK    3  A    between atoms: C_2  and  N_4
REMARK    4  A    between atoms: C_5  and  C_7
REMARK    5  A    between atoms: C_10  and  C_11
REMARK    6  A    between atoms: C_11  and  O_12
REMARK    7  A    between atoms: O_12  and  C_13
REMARK    8  A    between atoms: C_16  and  C_17
REMARK    9  A    between atoms: C_17  and  C_18
REMARK   10  A    between atoms: C_17  and  C_19
REMARK   11  A    between atoms: C_17  and  C_20
REMARK                            x       y       z     vdW  Elec       q    Type
REMARK                         _______ _______ _______ _____ _____    ______ ____
ROOT
ATOM      1  C   UNL     1       6.428   4.847  15.617  0.00  0.00    +0.000 A 
ATOM      2  C   UNL     1       7.111   5.581  16.564  0.00  0.00    +0.000 A 
ATOM      3  C   UNL     1       6.481   5.338  17.808  0.00  0.00    +0.000 A 
ATOM      4  C   UNL     1       5.443   4.464  17.556  0.00  0.00    +0.000 A 
ATOM      5  O   UNL     1       5.407   4.159  16.224  0.00  0.00    +0.000 OA
ENDROOT
BRANCH   1   7
ATOM      6  N   UNL     1       5.750   3.848  13.572  0.00  0.00    +0.000 N 
ATOM      7  C   UNL     1       6.638   4.707  14.189  0.00  0.00    +0.000 C 
ATOM      8  O   UNL     1       7.532   5.286  13.577  0.00  0.00    +0.000 OA
ATOM      9  H   UNL     1       4.983   3.510  14.143  0.00  0.00    +0.000 HD
BRANCH   6  11
ATOM     10  C   UNL     1       6.691   2.382  11.867  0.00  0.00    +0.000 C 
ATOM     11  C   UNL     1       5.775   3.570  12.147  0.00  0.00    +0.000 C 
ATOM     12  C   UNL     1       4.370   3.303  11.612  0.00  0.00    +0.000 C 
ENDBRANCH   6  11
ENDBRANCH   1   7
BRANCH   4  13
ATOM     13  C   UNL     1       4.408   3.832  18.417  0.00  0.00    +0.000 C 
BRANCH  13  14
ATOM     14  O   UNL     1       3.167   4.421  18.035  0.00  0.00    +0.000 OA
BRANCH  14  15
ATOM     15  C   UNL     1       2.670   5.390  18.858  0.00  0.00    +0.000 A 
ATOM     16  C   UNL     1       2.702   6.676  18.326  0.00  0.00    +0.000 A 
ATOM     17  C   UNL     1       2.180   7.760  19.036  0.00  0.00    +0.000 A 
ATOM     18  C   UNL     1       1.584   7.591  20.296  0.00  0.00    +0.000 A 
ATOM     19  C   UNL     1       1.571   6.284  20.823  0.00  0.00    +0.000 A 
ATOM     20  C   UNL     1       2.103   5.195  20.114  0.00  0.00    +0.000 A 
BRANCH  18  21
ATOM     21  C   UNL     1       0.931   8.760  21.058  0.00  0.00    +0.000 C 
ATOM     22  C   UNL     1       0.794  10.042  20.202  0.00  0.00    +0.000 C 
ATOM     23  C   UNL     1      -0.490   8.356  21.504  0.00  0.00    +0.000 C 
ATOM     24  C   UNL     1       1.759   9.134  22.305  0.00  0.00    +0.000 C 
ENDBRANCH  18  21
ENDBRANCH  14  15
ENDBRANCH  13  14
ENDBRANCH   4  13
TORSDOF 6
ENDMDL
MODEL 4
REMARK VINA RESULT:      -7.1      0.764      1.213
REMARK  Name = 
REMARK  11 active torsions:
REMARK  status: ('A' for Active; 'I' for Inactive)
REMARK    1  A    between atoms: C_1  and  C_2
REMARK    2  A    between atoms: C_2  and  C_3
REMARK    3  A    between atoms: C_2  and  N_4
REMARK    4  A    between atoms: C_5  and  C_7
REMARK    5  A    between atoms: C_10  and  C_11
REMARK    6  A    between atoms: C_11  and  O_12
REMARK    7  A    between atoms: O_12  and  C_13
REMARK    8  A    between atoms: C_16  and  C_17
REMARK    9  A    between atoms: C_17  and  C_18
REMARK   10  A    between atoms: C_17  and  C_19
REMARK   11  A    between atoms: C_17  and  C_20
REMARK                            x       y       z     vdW  Elec       q    Type
REMARK                         _______ _______ _______ _____ _____    ______ ____
ROOT
ATOM      1  C   UNL     1       8.013   8.056  18.017  0.00  0.00    +0.000 A 
ATOM      2  C   UNL     1       8.265   6.975  18.835  0.00  0.00    +0.000 A 
ATOM      3  C   UNL     1       7.711   5.838  18.198  0.00  0.00    +0.000 A 
ATOM      4  C   UNL     1       7.149   6.285  17.020  0.00  0.00    +0.000 A 
ATOM      5  O   UNL     1       7.332   7.635  16.902  0.00  0.00    +0.000 OA
ENDROOT
BRANCH   1   7
ATOM      6  N   UNL     1       9.163   9.729  19.248  0.00  0.00    +0.000 N 
ATOM      7  C   UNL     1       8.357   9.458  18.161  0.00  0.00    +0.000 C 
ATOM      8  O   UNL     1       7.960  10.334  17.397  0.00  0.00    +0.000 OA
ATOM      9  H   UNL     1       9.527   8.925  19.748  0.00  0.00    +0.000 HD
BRANCH   6  11
ATOM     10  C   UNL     1       9.588  11.275  21.085  0.00  0.00    +0.000 C 
ATOM     11  C   UNL     1       9.635  11.063  19.574  0.00  0.00    +0.000 C 
ATOM     12  C   UNL     1      11.046  11.296  19.042  0.00  0.00    +0.000 C 
ENDBRANCH   6  11
ENDBRANCH   1   7
BRANCH   4  13
ATOM     13  C   UNL     1       6.415   5.609  15.917  0.00  0.00    +0.000 C 
BRANCH  13  14
ATOM     14  O   UNL     1       6.016   4.341  16.432  0.00  0.00    +0.000 OA
BRANCH  14  15
ATOM     15  C   UNL     1       4.943   4.332  17.276  0.00  0.00    +0.000 A 
ATOM     16  C   UNL     1       4.942   3.293  18.202  0.00  0.00    +0.000 A 
ATOM     17  C   UNL     1       3.931   3.188  19.161  0.00  0.00    +0.000 A 
ATOM     18  C   UNL     1       2.896   4.134  19.242  0.00  0.00    +0.000 A 
ATOM     19  C   UNL     1       2.909   5.173  18.289  0.00  0.00    +0.000 A 
ATOM     20  C   UNL     1       3.920   5.274  17.319  0.00  0.00    +0.000 A 
BRANCH  18  21
ATOM     21  C   UNL     1       1.820   4.080  20.342  0.00  0.00    +0.000 C 
ATOM     22  C   UNL     1       2.346   3.509  21.680  0.00  0.00    +0.000 C 
ATOM     23  C   UNL     1       1.300   5.506  20.627  0.00  0.00    +0.000 C 
ATOM     24  C   UNL     1       0.633   3.195  19.906  0.00  0.00    +0.000 C 
ENDBRANCH  18  21
ENDBRANCH  14  15
ENDBRANCH  13  14
ENDBRANCH   4  13
TORSDOF 6
ENDMDL
MODEL 5
REMARK VINA RESULT:      -6.9      0.928      1.603
REMARK  Name = 
REMARK  11 active torsions:
REMARK  status: ('A' for Active; 'I' for Inactive)
REMARK    1  A    between atoms: C_1  and  C_2
REMARK    2  A    between atoms: C_2  and  C_3
REMARK    3  A    between atoms: C_2  and  N_4
REMARK    4  A    between atoms: C_5  and  C_7
REMARK    5  A    between atoms: C_10  and  C_11
REMARK    6  A    between atoms: C_11  and  O_12
REMARK    7  A    between atoms: O_12  and  C_13
REMARK    8  A    between atoms: C_16  and  C_17
REMARK    9  A    between atoms: C_17  and  C_18
REMARK   10  A    between atoms: C_17  and  C_19
REMARK   11  A    between atoms: C_17  and  C_20
REMARK                            x       y       z     vdW  Elec       q    Type
REMARK                         _______ _______ _______ _____ _____    ______ ____
ROOT
ATOM      1  C   UNL     1       8.337   8.638  18.275  0.00  0.00    +0.000 A 
ATOM      2  C   UNL     1       8.506   7.521  19.067  0.00  0.00    +0.000 A 
ATOM      3  C   UNL     1       7.865   6.446  18.405  0.00  0.00    +0.000 A 
ATOM      4  C   UNL     1       7.337   6.963  17.240  0.00  0.00    +0.000 A 
ATOM      5  O   UNL     1       7.623   8.297  17.153  0.00  0.00    +0.000 OA
ENDROOT
BRANCH   1   7
ATOM      6  N   UNL     1       9.148  10.314  19.747  0.00  0.00    +0.000 N 
ATOM      7  C   UNL     1       8.788  10.005  18.451  0.00  0.00    +0.000 C 
ATOM      8  O   UNL     1       8.837  10.824  17.537  0.00  0.00    +0.000 OA
ATOM      9  H   UNL     1       9.179   9.541  20.402  0.00  0.00    +0.000 HD
BRANCH   6  11
ATOM     10  C   UNL     1       9.214  11.921  21.580  0.00  0.00    +0.000 C 
ATOM     11  C   UNL     1       9.637  11.623  20.145  0.00  0.00    +0.000 C 
ATOM     12  C   UNL     1      11.154  11.712  20.002  0.00  0.00    +0.000 C 
ENDBRANCH   6  11
ENDBRANCH   1   7
BRANCH   4  13
ATOM     13  C   UNL     1       6.552   6.372  16.124  0.00  0.00    +0.000 C 
BRANCH  13  14
ATOM     14  O   UNL     1       5.191   6.708  16.381  0.00  0.00    +0.000 OA
BRANCH  14  15
ATOM     15  C   UNL     1       4.487   5.853  17.179  0.00  0.00    +0.000 A 
ATOM     16  C   UNL     1       3.468   6.450  17.915  0.00  0.00    +0.000 A 
ATOM     17  C   UNL     1       2.634   5.688  18.737  0.00  0.00    +0.000 A 
ATOM     18  C   UNL     1       2.776   4.294  18.833  0.00  0.00    +0.000 A 
ATOM     19  C   UNL     1       3.820   3.708  18.089  0.00  0.00    +0.000 A 
ATOM     20  C   UNL     1       4.665   4.475  17.269  0.00  0.00    +0.000 A 
BRANCH  18  21
ATOM     21  C   UNL     1       1.816   3.428  19.669  0.00  0.00    +0.000 C 
ATOM     22  C   UNL     1       0.773   4.260  20.453  0.00  0.00    +0.000 C 
ATOM     23  C   UNL     1       1.034   2.477  18.738  0.00  0.00    +0.000 C 
ATOM     24  C   UNL     1       2.593   2.586  20.702  0.00  0.00    +0.000 C 
ENDBRANCH  18  21
ENDBRANCH  14  15
ENDBRANCH  13  14
ENDBRANCH   4  13
TORSDOF 6
ENDMDL
MODEL 6
REMARK VINA RESULT:      -6.9      2.484      9.406
REMARK  Name = 
REMARK  11 active torsions:
REMARK  status: ('A' for Active; 'I' for Inactive)
REMARK    1  A    between atoms: C_1  and  C_2
REMARK    2  A    between atoms: C_2  and  C_3
REMARK    3  A    between atoms: C_2  and  N_4
REMARK    4  A    between atoms: C_5  and  C_7
REMARK    5  A    between atoms: C_10  and  C_11
REMARK    6  A    between atoms: C_11  and  O_12
REMARK    7  A    between atoms: O_12  and  C_13
REMARK    8  A    between atoms: C_16  and  C_17
REMARK    9  A    between atoms: C_17  and  C_18
REMARK   10  A    between atoms: C_17  and  C_19
REMARK   11  A    between atoms: C_17  and  C_20
REMARK                            x       y       z     vdW  Elec       q    Type
REMARK                         _______ _______ _______ _____ _____    ______ ____
ROOT
ATOM      1  C   UNL     1       6.383   5.796  17.466  0.00  0.00    +0.000 A 
ATOM      2  C   UNL     1       7.224   5.503  18.520  0.00  0.00    +0.000 A 
ATOM      3  C   UNL     1       8.029   6.648  18.736  0.00  0.00    +0.000 A 
ATOM      4  C   UNL     1       7.636   7.584  17.801  0.00  0.00    +0.000 A 
ATOM      5  O   UNL     1       6.631   7.072  17.026  0.00  0.00    +0.000 OA
ENDROOT
BRANCH   1   7
ATOM      6  N   UNL     1       4.527   4.335  17.711  0.00  0.00    +0.000 N 
ATOM      7  C   UNL     1       5.349   5.005  16.827  0.00  0.00    +0.000 C 
ATOM      8  O   UNL     1       5.217   4.922  15.608  0.00  0.00    +0.000 OA
ATOM      9  H   UNL     1       4.647   4.559  18.693  0.00  0.00    +0.000 HD
BRANCH   6  11
ATOM     10  C   UNL     1       3.544   2.115  17.930  0.00  0.00    +0.000 C 
ATOM     11  C   UNL     1       3.422   3.494  17.287  0.00  0.00    +0.000 C 
ATOM     12  C   UNL     1       2.079   4.132  17.632  0.00  0.00    +0.000 C 
ENDBRANCH   6  11
ENDBRANCH   1   7
BRANCH   4  13
ATOM     13  C   UNL     1       8.082   8.968  17.492  0.00  0.00    +0.000 C 
BRANCH  13  14
ATOM     14  O   UNL     1       8.492   9.534  18.735  0.00  0.00    +0.000 OA
BRANCH  14  15
ATOM     15  C   UNL     1       9.245  10.671  18.673  0.00  0.00    +0.000 A 
ATOM     16  C   UNL     1       8.737  11.659  17.834  0.00  0.00    +0.000 A 
ATOM     17  C   UNL     1       9.377  12.894  17.710  0.00  0.00    +0.000 A 
ATOM     18  C   UNL     1      10.537  13.195  18.443  0.00  0.00    +0.000 A 
ATOM     19  C   UNL     1      11.042  12.178  19.278  0.00  0.00    +0.000 A 
ATOM     20  C   UNL     1      10.404  10.932  19.396  0.00  0.00    +0.000 A 
BRANCH  18  21
ATOM     21  C   UNL     1      11.209  14.579  18.381  0.00  0.00    +0.000 C 
ATOM     22  C   UNL     1      11.852  15.003  19.723  0.00  0.00    +0.000 C 
ATOM     23  C   UNL     1      12.333  14.560  17.323  0.00  0.00    +0.000 C 
ATOM     24  C   UNL     1      10.187  15.670  18.003  0.00  0.00    +0.000 C 
ENDBRANCH  18  21
ENDBRANCH  14  15
ENDBRANCH  13  14
ENDBRANCH   4  13
TORSDOF 6
ENDMDL
MODEL 7
REMARK VINA RESULT:      -6.9      4.085      6.327
REMARK  Name = 
REMARK  11 active torsions:
REMARK  status: ('A' for Active; 'I' for Inactive)
REMARK    1  A    between atoms: C_1  and  C_2
REMARK    2  A    between atoms: C_2  and  C_3
REMARK    3  A    between atoms: C_2  and  N_4
REMARK    4  A    between atoms: C_5  and  C_7
REMARK    5  A    between atoms: C_10  and  C_11
REMARK    6  A    between atoms: C_11  and  O_12
REMARK    7  A    between atoms: O_12  and  C_13
REMARK    8  A    between atoms: C_16  and  C_17
REMARK    9  A    between atoms: C_17  and  C_18
REMARK   10  A    between atoms: C_17  and  C_19
REMARK   11  A    between atoms: C_17  and  C_20
REMARK                            x       y       z     vdW  Elec       q    Type
REMARK                         _______ _______ _______ _____ _____    ______ ____
ROOT
ATOM      1  C   UNL     1       6.256   4.382  15.551  0.00  0.00    +0.000 A 
ATOM      2  C   UNL     1       7.054   4.784  16.603  0.00  0.00    +0.000 A 
ATOM      3  C   UNL     1       6.337   4.507  17.792  0.00  0.00    +0.000 A 
ATOM      4  C   UNL     1       5.137   3.949  17.405  0.00  0.00    +0.000 A 
ATOM      5  O   UNL     1       5.082   3.867  16.040  0.00  0.00    +0.000 OA
ENDROOT
BRANCH   1   7
ATOM      6  N   UNL     1       5.766   3.471  13.414  0.00  0.00    +0.000 N 
ATOM      7  C   UNL     1       6.483   4.417  14.119  0.00  0.00    +0.000 C 
ATOM      8  O   UNL     1       7.253   5.204  13.574  0.00  0.00    +0.000 OA
ATOM      9  H   UNL     1       5.076   2.947  13.941  0.00  0.00    +0.000 HD
BRANCH   6  11
ATOM     10  C   UNL     1       6.754   2.174  11.602  0.00  0.00    +0.000 C 
ATOM     11  C   UNL     1       5.836   3.335  11.970  0.00  0.00    +0.000 C 
ATOM     12  C   UNL     1       4.448   3.135  11.366  0.00  0.00    +0.000 C 
ENDBRANCH   6  11
ENDBRANCH   1   7
BRANCH   4  13
ATOM     13  C   UNL     1       3.952   3.452  18.154  0.00  0.00    +0.000 C 
BRANCH  13  14
ATOM     14  O   UNL     1       4.041   4.028  19.454  0.00  0.00    +0.000 OA
BRANCH  14  15
ATOM     15  C   UNL     1       3.281   5.139  19.686  0.00  0.00    +0.000 A 
ATOM     16  C   UNL     1       2.322   4.989  20.683  0.00  0.00    +0.000 A 
ATOM     17  C   UNL     1       1.506   6.058  21.061  0.00  0.00    +0.000 A 
ATOM     18  C   UNL     1       1.638   7.325  20.470  0.00  0.00    +0.000 A 
ATOM     19  C   UNL     1       2.607   7.454  19.454  0.00  0.00    +0.000 A 
ATOM     20  C   UNL     1       3.422   6.377  19.067  0.00  0.00    +0.000 A 
BRANCH  18  21
ATOM     21  C   UNL     1       0.804   8.535  20.930  0.00  0.00    +0.000 C 
ATOM     22  C   UNL     1      -0.634   8.155  21.358  0.00  0.00    +0.000 C 
ATOM     23  C   UNL     1       1.483   9.197  22.148  0.00  0.00    +0.000 C 
ATOM     24  C   UNL     1       0.680   9.578  19.800  0.00  0.00    +0.000 C 
ENDBRANCH  18  21
ENDBRANCH  14  15
ENDBRANCH  13  14
ENDBRANCH   4  13
TORSDOF 6
ENDMDL
MODEL 8
REMARK VINA RESULT:      -6.8      4.399      7.090
REMARK  Name = 
REMARK  11 active torsions:
REMARK  status: ('A' for Active; 'I' for Inactive)
REMARK    1  A    between atoms: C_1  and  C_2
REMARK    2  A    between atoms: C_2  and  C_3
REMARK    3  A    between atoms: C_2  and  N_4
REMARK    4  A    between atoms: C_5  and  C_7
REMARK    5  A    between atoms: C_10  and  C_11
REMARK    6  A    between atoms: C_11  and  O_12
REMARK    7  A    between atoms: O_12  and  C_13
REMARK    8  A    between atoms: C_16  and  C_17
REMARK    9  A    between atoms: C_17  and  C_18
REMARK   10  A    between atoms: C_17  and  C_19
REMARK   11  A    between atoms: C_17  and  C_20
REMARK                            x       y       z     vdW  Elec       q    Type
REMARK                         _______ _______ _______ _____ _____    ______ ____
ROOT
ATOM      1  C   UNL     1       5.963   4.547  14.884  0.00  0.00    +0.000 A 
ATOM      2  C   UNL     1       6.269   3.892  16.059  0.00  0.00    +0.000 A 
ATOM      3  C   UNL     1       5.796   4.704  17.118  0.00  0.00    +0.000 A 
ATOM      4  C   UNL     1       5.223   5.815  16.533  0.00  0.00    +0.000 A 
ATOM      5  O   UNL     1       5.319   5.724  15.172  0.00  0.00    +0.000 OA
ENDROOT
BRANCH   1   7
ATOM      6  N   UNL     1       5.138   3.528  12.905  0.00  0.00    +0.000 N 
ATOM      7  C   UNL     1       6.199   4.178  13.501  0.00  0.00    +0.000 C 
ATOM      8  O   UNL     1       7.251   4.407  12.910  0.00  0.00    +0.000 OA
ATOM      9  H   UNL     1       4.277   3.488  13.440  0.00  0.00    +0.000 HD
BRANCH   6  11
ATOM     10  C   UNL     1       5.736   1.669  11.445  0.00  0.00    +0.000 C 
ATOM     11  C   UNL     1       5.156   3.078  11.524  0.00  0.00    +0.000 C 
ATOM     12  C   UNL     1       3.759   3.120  10.910  0.00  0.00    +0.000 C 
ENDBRANCH   6  11
ENDBRANCH   1   7
BRANCH   4  13
ATOM     13  C   UNL     1       4.562   7.030  17.079  0.00  0.00    +0.000 C 
BRANCH  13  14
ATOM     14  O   UNL     1       3.465   6.562  17.860  0.00  0.00    +0.000 OA
BRANCH  14  15
ATOM     15  C   UNL     1       2.627   7.510  18.372  0.00  0.00    +0.000 A 
ATOM     16  C   UNL     1       2.278   7.318  19.705  0.00  0.00    +0.000 A 
ATOM     17  C   UNL     1       1.466   8.237  20.374  0.00  0.00    +0.000 A 
ATOM     18  C   UNL     1       0.994   9.397  19.738  0.00  0.00    +0.000 A 
ATOM     19  C   UNL     1       1.350   9.569  18.385  0.00  0.00    +0.000 A 
ATOM     20  C   UNL     1       2.158   8.640  17.709  0.00  0.00    +0.000 A 
BRANCH  18  21
ATOM     21  C   UNL     1       0.167  10.461  20.483  0.00  0.00    +0.000 C 
ATOM     22  C   UNL     1      -0.321   9.989  21.873  0.00  0.00    +0.000 C 
ATOM     23  C   UNL     1       1.029  11.723  20.706  0.00  0.00    +0.000 C 
ATOM     24  C   UNL     1      -1.086  10.851  19.670  0.00  0.00    +0.000 C 
ENDBRANCH  18  21
ENDBRANCH  14  15
ENDBRANCH  13  14
ENDBRANCH   4  13
TORSDOF 6
ENDMDL
MODEL 9
REMARK VINA RESULT:      -6.8      6.013      7.905
REMARK  Name = 
REMARK  11 active torsions:
REMARK  status: ('A' for Active; 'I' for Inactive)
REMARK    1  A    between atoms: C_1  and  C_2
REMARK    2  A    between atoms: C_2  and  C_3
REMARK    3  A    between atoms: C_2  and  N_4
REMARK    4  A    between atoms: C_5  and  C_7
REMARK    5  A    between atoms: C_10  and  C_11
REMARK    6  A    between atoms: C_11  and  O_12
REMARK    7  A    between atoms: O_12  and  C_13
REMARK    8  A    between atoms: C_16  and  C_17
REMARK    9  A    between atoms: C_17  and  C_18
REMARK   10  A    between atoms: C_17  and  C_19
REMARK   11  A    between atoms: C_17  and  C_20
REMARK                            x       y       z     vdW  Elec       q    Type
REMARK                         _______ _______ _______ _____ _____    ______ ____
ROOT
ATOM      1  C   UNL     1      -0.636  11.118  19.936  0.00  0.00    +0.000 A 
ATOM      2  C   UNL     1      -1.551  10.874  18.933  0.00  0.00    +0.000 A 
ATOM      3  C   UNL     1      -0.880  10.120  17.939  0.00  0.00    +0.000 A 
ATOM      4  C   UNL     1       0.412   9.942  18.389  0.00  0.00    +0.000 A 
ATOM      5  O   UNL     1       0.566  10.544  19.607  0.00  0.00    +0.000 OA
ENDROOT
BRANCH   1   7
ATOM      6  N   UNL     1      -2.024  12.372  21.398  0.00  0.00    +0.000 N 
ATOM      7  C   UNL     1      -0.772  11.828  21.194  0.00  0.00    +0.000 C 
ATOM      8  O   UNL     1       0.143  11.951  22.004  0.00  0.00    +0.000 OA
ATOM      9  H   UNL     1      -2.739  12.119  20.726  0.00  0.00    +0.000 HD
BRANCH   6  11
ATOM     10  C   UNL     1      -3.241  14.319  22.219  0.00  0.00    +0.000 C 
ATOM     11  C   UNL     1      -2.381  13.115  22.594  0.00  0.00    +0.000 C 
ATOM     12  C   UNL     1      -3.109  12.227  23.600  0.00  0.00    +0.000 C 
ENDBRANCH   6  11
ENDBRANCH   1   7
BRANCH   4  13
ATOM     13  C   UNL     1       1.605   9.257  17.824  0.00  0.00    +0.000 C 
BRANCH  13  14
ATOM     14  O   UNL     1       2.305   8.708  18.937  0.00  0.00    +0.000 OA
BRANCH  14  15
ATOM     15  C   UNL     1       2.291   7.349  19.061  0.00  0.00    +0.000 A 
ATOM     16  C   UNL     1       1.904   6.883  20.314  0.00  0.00    +0.000 A 
ATOM     17  C   UNL     1       1.797   5.514  20.570  0.00  0.00    +0.000 A 
ATOM     18  C   UNL     1       2.050   4.560  19.571  0.00  0.00    +0.000 A 
ATOM     19  C   UNL     1       2.452   5.050  18.312  0.00  0.00    +0.000 A 
ATOM     20  C   UNL     1       2.569   6.426  18.057  0.00  0.00    +0.000 A 
BRANCH  18  21
ATOM     21  C   UNL     1       1.859   3.051  19.811  0.00  0.00    +0.000 C 
ATOM     22  C   UNL     1       0.839   2.406  18.843  0.00  0.00    +0.000 C 
ATOM     23  C   UNL     1       3.204   2.321  19.609  0.00  0.00    +0.000 C 
ATOM     24  C   UNL     1       1.356   2.782  21.245  0.00  0.00    +0.000 C 
ENDBRANCH  18  21
ENDBRANCH  14  15
ENDBRANCH  13  14
ENDBRANCH   4  13
TORSDOF 6
ENDMDL
