MODEL 1
REMARK VINA RESULT:      -9.3      0.000      0.000
REMARK  Name = 
REMARK  6 active torsions:
REMARK  status: ('A' for Active; 'I' for Inactive)
REMARK    1  A    between atoms: C_1  and  N_2
REMARK    2  A    between atoms: N_2  and  C_3
REMARK    3  A    between atoms: C_3  and  C_4
REMARK    4  A    between atoms: C_7  and  C_8
REMARK    5  A    between atoms: N_10  and  O_11
REMARK    6  A    between atoms: C_14  and  C_16
REMARK                            x       y       z     vdW  Elec       q    Type
REMARK                         _______ _______ _______ _____ _____    ______ ____
ROOT
ATOM      1  C   UNL     1       2.500   3.574  20.983  0.00  0.00    +0.000 C 
ATOM      2  N   UNL     1       3.120   3.927  19.717  0.00  0.00    +0.000 N 
ATOM      3  C   UNL     1       4.410   3.351  19.484  0.00  0.00    +0.000 C 
ATOM      4  O   UNL     1       4.883   2.512  20.258  0.00  0.00    +0.000 OA
ENDROOT
BRANCH   3   5
ATOM      5  C   UNL     1       5.274   3.769  18.315  0.00  0.00    +0.000 A 
ATOM      6  C   UNL     1       4.930   3.574  16.947  0.00  0.00    +0.000 A 
ATOM      7  C   UNL     1       5.802   4.152  15.974  0.00  0.00    +0.000 A 
ATOM      8  C   UNL     1       6.879   4.858  16.501  0.00  0.00    +0.000 A 
ATOM      9  C   UNL     1       7.340   4.632  17.771  0.00  0.00    +0.000 A 
ATOM     10  N   UNL     1       6.486   4.204  18.694  0.00  0.00    +0.000 NA
ATOM     11  N   UNL     1       7.358   5.678  15.530  0.00  0.00    +0.000 N 
ATOM     12  C   UNL     1       7.083   5.123  14.318  0.00  0.00    +0.000 A 
ATOM     13  C   UNL     1       7.682   5.425  13.093  0.00  0.00    +0.000 A 
ATOM     14  C   UNL     1       7.382   4.608  12.013  0.00  0.00    +0.000 A 
ATOM     15  C   UNL     1       6.445   3.590  12.159  0.00  0.00    +0.000 A 
ATOM     16  C   UNL     1       5.767   3.369  13.391  0.00  0.00    +0.000 A 
ATOM     17  C   UNL     1       6.106   4.134  14.531  0.00  0.00    +0.000 A 
ATOM     18  H   UNL     1       7.969   6.467  15.679  0.00  0.00    +0.000 HD
ENDBRANCH   3   5
BRANCH   2  19
ATOM     19  C   UNL     1       2.209   4.570  18.727  0.00  0.00    +0.000 C 
BRANCH  19  20
ATOM     20  C   UNL     1       2.141   6.098  18.726  0.00  0.00    +0.000 A 
ATOM     21  C   UNL     1       2.396   6.865  17.584  0.00  0.00    +0.000 A 
ATOM     22  C   UNL     1       2.319   8.271  17.615  0.00  0.00    +0.000 A 
ATOM     23  C   UNL     1       1.971   8.960  18.792  0.00  0.00    +0.000 A 
ATOM     24  C   UNL     1       1.710   8.210  19.941  0.00  0.00    +0.000 A 
ATOM     25  C   UNL     1       1.794   6.800  19.903  0.00  0.00    +0.000 A 
BRANCH  23  26
ATOM     26  C   UNL     1       1.873  10.445  18.743  0.00  0.00    +0.000 C 
ATOM     27  O   UNL     1       1.356  11.046  19.679  0.00  0.00    +0.000 OA
ATOM     28  N   UNL     1       2.382  11.134  17.678  0.00  0.00    +0.000 N 
ATOM     29  H   UNL     1       2.890  10.755  16.886  0.00  0.00    +0.000 HD
BRANCH  28  30
ATOM     30  O   UNL     1       2.300  12.558  17.765  0.00  0.00    +0.000 OA
ATOM     31  H   UNL     1       1.832  12.683  18.624  0.00  0.00    +0.000 HD
ENDBRANCH  28  30
ENDBRANCH  23  26
ENDBRANCH  19  20
ENDBRANCH   2  19
TORSDOF 5
ENDMDL
MODEL 2
REMARK VINA RESULT:      -9.2      1.090      1.584
REMARK  Name = 
REMARK  6 active torsions:
REMARK  status: ('A' for Active; 'I' for Inactive)
REMARK    1  A    between atoms: C_1  and  N_2
REMARK    2  A    between atoms: N_2  and  C_3
REMARK    3  A    between atoms: C_3  and  C_4
REMARK    4  A    between atoms: C_7  and  C_8
REMARK    5  A    between atoms: N_10  and  O_11
REMARK    6  A    between atoms: C_14  and  C_16
REMARK                            x       y       z     vdW  Elec       q    Type
REMARK                         _______ _______ _______ _____ _____    ______ ____
ROOT
ATOM      1  C   UNL     1       2.582   4.094  20.897  0.00  0.00    +0.000 C 
ATOM      2  N   UNL     1       3.218   4.387  19.624  0.00  0.00    +0.000 N 
ATOM      3  C   UNL     1       4.410   3.643  19.348  0.00  0.00    +0.000 C 
ATOM      4  O   UNL     1       4.776   2.727  20.093  0.00  0.00    +0.000 OA
ENDROOT
BRANCH   3   5
ATOM      5  C   UNL     1       5.299   3.964  18.168  0.00  0.00    +0.000 A 
ATOM      6  C   UNL     1       4.934   3.766  16.806  0.00  0.00    +0.000 A 
ATOM      7  C   UNL     1       5.846   4.250  15.817  0.00  0.00    +0.000 A 
ATOM      8  C   UNL     1       6.978   4.880  16.325  0.00  0.00    +0.000 A 
ATOM      9  C   UNL     1       7.424   4.646  17.599  0.00  0.00    +0.000 A 
ATOM     10  N   UNL     1       6.544   4.309  18.533  0.00  0.00    +0.000 NA
ATOM     11  N   UNL     1       7.516   5.637  15.334  0.00  0.00    +0.000 N 
ATOM     12  C   UNL     1       7.192   5.078  14.136  0.00  0.00    +0.000 A 
ATOM     13  C   UNL     1       7.808   5.304  12.903  0.00  0.00    +0.000 A 
ATOM     14  C   UNL     1       7.439   4.490  11.842  0.00  0.00    +0.000 A 
ATOM     15  C   UNL     1       6.425   3.553  12.014  0.00  0.00    +0.000 A 
ATOM     16  C   UNL     1       5.736   3.415  13.252  0.00  0.00    +0.000 A 
ATOM     17  C   UNL     1       6.141   4.175  14.375  0.00  0.00    +0.000 A 
ATOM     18  H   UNL     1       8.188   6.378  15.464  0.00  0.00    +0.000 HD
ENDBRANCH   3   5
BRANCH   2  19
ATOM     19  C   UNL     1       2.386   5.175  18.670  0.00  0.00    +0.000 C 
BRANCH  19  20
ATOM     20  C   UNL     1       2.022   6.605  19.073  0.00  0.00    +0.000 A 
ATOM     21  C   UNL     1       1.643   6.950  20.374  0.00  0.00    +0.000 A 
ATOM     22  C   UNL     1       1.320   8.279  20.714  0.00  0.00    +0.000 A 
ATOM     23  C   UNL     1       1.377   9.312  19.762  0.00  0.00    +0.000 A 
ATOM     24  C   UNL     1       1.758   8.987  18.457  0.00  0.00    +0.000 A 
ATOM     25  C   UNL     1       2.075   7.650  18.124  0.00  0.00    +0.000 A 
BRANCH  23  26
ATOM     26  C   UNL     1       1.058  10.700  20.200  0.00  0.00    +0.000 C 
ATOM     27  O   UNL     1       1.181  11.625  19.404  0.00  0.00    +0.000 OA
ATOM     28  N   UNL     1       0.602  10.934  21.466  0.00  0.00    +0.000 N 
ATOM     29  H   UNL     1       0.396  10.247  22.183  0.00  0.00    +0.000 HD
BRANCH  28  30
ATOM     30  O   UNL     1       0.258  12.290  21.761  0.00  0.00    +0.000 OA
ATOM     31  H   UNL     1       0.260  12.290  22.748  0.00  0.00    +0.000 HD
ENDBRANCH  28  30
ENDBRANCH  23  26
ENDBRANCH  19  20
ENDBRANCH   2  19
TORSDOF 5
ENDMDL
MODEL 3
REMARK VINA RESULT:      -9.1      1.547      1.890
REMARK  Name = 
REMARK  6 active torsions:
REMARK  status: ('A' for Active; 'I' for Inactive)
REMARK    1  A    between atoms: C_1  and  N_2
REMARK    2  A    between atoms: N_2  and  C_3
REMARK    3  A    between atoms: C_3  and  C_4
REMARK    4  A    between atoms: C_7  and  C_8
REMARK    5  A    between atoms: N_10  and  O_11
REMARK    6  A    between atoms: C_14  and  C_16
REMARK                            x       y       z     vdW  Elec       q    Type
REMARK                         _______ _______ _______ _____ _____    ______ ____
ROOT
ATOM      1  C   UNL     1       1.401   4.265  20.743  0.00  0.00    +0.000 C 
ATOM      2  N   UNL     1       2.491   4.701  19.888  0.00  0.00    +0.000 N 
ATOM      3  C   UNL     1       2.665   3.947  18.682  0.00  0.00    +0.000 C 
ATOM      4  O   UNL     1       1.850   3.079  18.351  0.00  0.00    +0.000 OA
ENDROOT
BRANCH   3   5
ATOM      5  C   UNL     1       3.866   4.140  17.784  0.00  0.00    +0.000 A 
ATOM      6  C   UNL     1       3.839   4.021  16.365  0.00  0.00    +0.000 A 
ATOM      7  C   UNL     1       5.036   4.368  15.666  0.00  0.00    +0.000 A 
ATOM      8  C   UNL     1       6.080   4.805  16.477  0.00  0.00    +0.000 A 
ATOM      9  C   UNL     1       6.143   4.485  17.807  0.00  0.00    +0.000 A 
ATOM     10  N   UNL     1       5.011   4.279  18.470  0.00  0.00    +0.000 NA
ATOM     11  N   UNL     1       6.962   5.481  15.696  0.00  0.00    +0.000 N 
ATOM     12  C   UNL     1       6.879   4.996  14.426  0.00  0.00    +0.000 A 
ATOM     13  C   UNL     1       7.818   5.139  13.403  0.00  0.00    +0.000 A 
ATOM     14  C   UNL     1       7.617   4.408  12.241  0.00  0.00    +0.000 A 
ATOM     15  C   UNL     1       6.465   3.641  12.101  0.00  0.00    +0.000 A 
ATOM     16  C   UNL     1       5.468   3.596  13.116  0.00  0.00    +0.000 A 
ATOM     17  C   UNL     1       5.679   4.268  14.343  0.00  0.00    +0.000 A 
ATOM     18  H   UNL     1       7.681   6.104  16.031  0.00  0.00    +0.000 HD
ENDBRANCH   3   5
BRANCH   2  19
ATOM     19  C   UNL     1       3.062   6.037  20.225  0.00  0.00    +0.000 C 
BRANCH  19  20
ATOM     20  C   UNL     1       2.289   7.269  19.753  0.00  0.00    +0.000 A 
ATOM     21  C   UNL     1       1.493   8.036  20.611  0.00  0.00    +0.000 A 
ATOM     22  C   UNL     1       0.799   9.170  20.146  0.00  0.00    +0.000 A 
ATOM     23  C   UNL     1       0.888   9.583  18.804  0.00  0.00    +0.000 A 
ATOM     24  C   UNL     1       1.681   8.832  17.934  0.00  0.00    +0.000 A 
ATOM     25  C   UNL     1       2.371   7.693  18.408  0.00  0.00    +0.000 A 
BRANCH  23  26
ATOM     26  C   UNL     1       0.156  10.813  18.390  0.00  0.00    +0.000 C 
ATOM     27  O   UNL     1       0.566  11.909  18.758  0.00  0.00    +0.000 OA
ATOM     28  N   UNL     1      -0.942  10.722  17.582  0.00  0.00    +0.000 N 
ATOM     29  H   UNL     1      -1.328   9.884  17.161  0.00  0.00    +0.000 HD
BRANCH  28  30
ATOM     30  O   UNL     1      -1.525  11.965  17.186  0.00  0.00    +0.000 OA
ATOM     31  H   UNL     1      -1.594  12.441  18.048  0.00  0.00    +0.000 HD
ENDBRANCH  28  30
ENDBRANCH  23  26
ENDBRANCH  19  20
ENDBRANCH   2  19
TORSDOF 5
ENDMDL
MODEL 4
REMARK VINA RESULT:      -8.7      0.975      1.098
REMARK  Name = 
REMARK  6 active torsions:
REMARK  status: ('A' for Active; 'I' for Inactive)
REMARK    1  A    between atoms: C_1  and  N_2
REMARK    2  A    between atoms: N_2  and  C_3
REMARK    3  A    between atoms: C_3  and  C_4
REMARK    4  A    between atoms: C_7  and  C_8
REMARK    5  A    between atoms: N_10  and  O_11
REMARK    6  A    between atoms: C_14  and  C_16
REMARK                            x       y       z     vdW  Elec       q    Type
REMARK                         _______ _______ _______ _____ _____    ______ ____
ROOT
ATOM      1  C   UNL     1       2.331   5.055  20.694  0.00  0.00    +0.000 C 
ATOM      2  N   UNL     1       3.023   5.142  19.419  0.00  0.00    +0.000 N 
ATOM      3  C   UNL     1       4.153   4.274  19.273  0.00  0.00    +0.000 C 
ATOM      4  O   UNL     1       4.419   3.425  20.133  0.00  0.00    +0.000 OA
ENDROOT
BRANCH   3   5
ATOM      5  C   UNL     1       5.097   4.378  18.097  0.00  0.00    +0.000 A 
ATOM      6  C   UNL     1       4.713   4.201  16.737  0.00  0.00    +0.000 A 
ATOM      7  C   UNL     1       5.708   4.468  15.747  0.00  0.00    +0.000 A 
ATOM      8  C   UNL     1       6.934   4.894  16.250  0.00  0.00    +0.000 A 
ATOM      9  C   UNL     1       7.317   4.629  17.537  0.00  0.00    +0.000 A 
ATOM     10  N   UNL     1       6.381   4.498  18.470  0.00  0.00    +0.000 NA
ATOM     11  N   UNL     1       7.613   5.499  15.241  0.00  0.00    +0.000 N 
ATOM     12  C   UNL     1       7.201   4.966  14.058  0.00  0.00    +0.000 A 
ATOM     13  C   UNL     1       7.858   5.027  12.828  0.00  0.00    +0.000 A 
ATOM     14  C   UNL     1       7.352   4.256  11.791  0.00  0.00    +0.000 A 
ATOM     15  C   UNL     1       6.179   3.533  11.980  0.00  0.00    +0.000 A 
ATOM     16  C   UNL     1       5.466   3.572  13.211  0.00  0.00    +0.000 A 
ATOM     17  C   UNL     1       5.996   4.285  14.312  0.00  0.00    +0.000 A 
ATOM     18  H   UNL     1       8.411   6.105  15.355  0.00  0.00    +0.000 HD
ENDBRANCH   3   5
BRANCH   2  19
ATOM     19  C   UNL     1       2.287   5.877  18.351  0.00  0.00    +0.000 C 
BRANCH  19  20
ATOM     20  C   UNL     1       2.028   7.367  18.578  0.00  0.00    +0.000 A 
ATOM     21  C   UNL     1       2.258   8.332  17.591  0.00  0.00    +0.000 A 
ATOM     22  C   UNL     1       2.002   9.697  17.830  0.00  0.00    +0.000 A 
ATOM     23  C   UNL     1       1.495  10.142  19.064  0.00  0.00    +0.000 A 
ATOM     24  C   UNL     1       1.256   9.192  20.060  0.00  0.00    +0.000 A 
ATOM     25  C   UNL     1       1.519   7.825  19.814  0.00  0.00    +0.000 A 
BRANCH  23  26
ATOM     26  C   UNL     1       1.213  11.595  19.234  0.00  0.00    +0.000 C 
ATOM     27  O   UNL     1       1.542  12.154  20.275  0.00  0.00    +0.000 OA
ATOM     28  N   UNL     1       0.624  12.304  18.226  0.00  0.00    +0.000 N 
ATOM     29  H   UNL     1       0.375  11.969  17.301  0.00  0.00    +0.000 HD
BRANCH  28  30
ATOM     30  O   UNL     1       0.465  13.705  18.464  0.00  0.00    +0.000 OA
ATOM     31  H   UNL     1       1.213  14.085  17.944  0.00  0.00    +0.000 HD
ENDBRANCH  28  30
ENDBRANCH  23  26
ENDBRANCH  19  20
ENDBRANCH   2  19
TORSDOF 5
ENDMDL
MODEL 5
REMARK VINA RESULT:      -8.3      2.869      7.928
REMARK  Name = 
REMARK  6 active torsions:
REMARK  status: ('A' for Active; 'I' for Inactive)
REMARK    1  A    between atoms: C_1  and  N_2
REMARK    2  A    between atoms: N_2  and  C_3
REMARK    3  A    between atoms: C_3  and  C_4
REMARK    4  A    between atoms: C_7  and  C_8
REMARK    5  A    between atoms: N_10  and  O_11
REMARK    6  A    between atoms: C_14  and  C_16
REMARK                            x       y       z     vdW  Elec       q    Type
REMARK                         _______ _______ _______ _____ _____    ______ ____
ROOT
ATOM      1  C   UNL     1       4.067   2.746  20.086  0.00  0.00    +0.000 C 
ATOM      2  N   UNL     1       3.907   4.153  19.760  0.00  0.00    +0.000 N 
ATOM      3  C   UNL     1       2.658   4.736  20.150  0.00  0.00    +0.000 C 
ATOM      4  O   UNL     1       1.846   4.103  20.833  0.00  0.00    +0.000 OA
ENDROOT
BRANCH   3   5
ATOM      5  C   UNL     1       2.252   6.125  19.713  0.00  0.00    +0.000 A 
ATOM      6  C   UNL     1       1.632   7.088  20.559  0.00  0.00    +0.000 A 
ATOM      7  C   UNL     1       1.440   8.396  20.015  0.00  0.00    +0.000 A 
ATOM      8  C   UNL     1       1.911   8.563  18.716  0.00  0.00    +0.000 A 
ATOM      9  C   UNL     1       2.093   7.501  17.871  0.00  0.00    +0.000 A 
ATOM     10  N   UNL     1       2.386   6.314  18.391  0.00  0.00    +0.000 NA
ATOM     11  N   UNL     1       2.053   9.895  18.490  0.00  0.00    +0.000 N 
ATOM     12  C   UNL     1       1.168  10.566  19.279  0.00  0.00    +0.000 A 
ATOM     13  C   UNL     1       0.727  11.882  19.124  0.00  0.00    +0.000 A 
ATOM     14  C   UNL     1      -0.318  12.307  19.932  0.00  0.00    +0.000 A 
ATOM     15  C   UNL     1      -0.821  11.456  20.911  0.00  0.00    +0.000 A 
ATOM     16  C   UNL     1      -0.281  10.156  21.122  0.00  0.00    +0.000 A 
ATOM     17  C   UNL     1       0.731   9.664  20.265  0.00  0.00    +0.000 A 
ATOM     18  H   UNL     1       2.588  10.307  17.742  0.00  0.00    +0.000 HD
ENDBRANCH   3   5
BRANCH   2  19
ATOM     19  C   UNL     1       5.160   4.853  19.356  0.00  0.00    +0.000 C 
BRANCH  19  20
ATOM     20  C   UNL     1       5.598   4.721  17.896  0.00  0.00    +0.000 A 
ATOM     21  C   UNL     1       4.696   4.472  16.857  0.00  0.00    +0.000 A 
ATOM     22  C   UNL     1       5.131   4.362  15.521  0.00  0.00    +0.000 A 
ATOM     23  C   UNL     1       6.487   4.510  15.179  0.00  0.00    +0.000 A 
ATOM     24  C   UNL     1       7.402   4.763  16.204  0.00  0.00    +0.000 A 
ATOM     25  C   UNL     1       6.958   4.866  17.542  0.00  0.00    +0.000 A 
BRANCH  23  26
ATOM     26  C   UNL     1       6.871   4.418  13.742  0.00  0.00    +0.000 C 
ATOM     27  O   UNL     1       7.571   5.296  13.249  0.00  0.00    +0.000 OA
ATOM     28  N   UNL     1       6.473   3.349  12.991  0.00  0.00    +0.000 N 
ATOM     29  H   UNL     1       5.957   2.534  13.304  0.00  0.00    +0.000 HD
BRANCH  28  30
ATOM     30  O   UNL     1       6.956   3.323  11.645  0.00  0.00    +0.000 OA
ATOM     31  H   UNL     1       7.803   2.827  11.743  0.00  0.00    +0.000 HD
ENDBRANCH  28  30
ENDBRANCH  23  26
ENDBRANCH  19  20
ENDBRANCH   2  19
TORSDOF 5
ENDMDL
MODEL 6
REMARK VINA RESULT:      -8.2      4.449      7.842
REMARK  Name = 
REMARK  6 active torsions:
REMARK  status: ('A' for Active; 'I' for Inactive)
REMARK    1  A    between atoms: C_1  and  N_2
REMARK    2  A    between atoms: N_2  and  C_3
REMARK    3  A    between atoms: C_3  and  C_4
REMARK    4  A    between atoms: C_7  and  C_8
REMARK    5  A    between atoms: N_10  and  O_11
REMARK    6  A    between atoms: C_14  and  C_16
REMARK                            x       y       z     vdW  Elec       q    Type
REMARK                         _______ _______ _______ _____ _____    ______ ____
ROOT
ATOM      1  C   UNL     1      -0.629  13.364  18.729  0.00  0.00    +0.000 C 
ATOM      2  N   UNL     1      -0.613  11.949  19.059  0.00  0.00    +0.000 N 
ATOM      3  C   UNL     1       0.586  11.479  19.688  0.00  0.00    +0.000 C 
ATOM      4  O   UNL     1       1.473  12.267  20.036  0.00  0.00    +0.000 OA
ENDROOT
BRANCH   3   5
ATOM      5  C   UNL     1       0.846  10.008  19.916  0.00  0.00    +0.000 A 
ATOM      6  C   UNL     1       1.585   9.172  19.031  0.00  0.00    +0.000 A 
ATOM      7  C   UNL     1       1.847   7.838  19.472  0.00  0.00    +0.000 A 
ATOM      8  C   UNL     1       1.354   7.534  20.737  0.00  0.00    +0.000 A 
ATOM      9  C   UNL     1       0.328   8.242  21.303  0.00  0.00    +0.000 A 
ATOM     10  N   UNL     1       0.170   9.518  20.967  0.00  0.00    +0.000 NA
ATOM     11  N   UNL     1       2.013   6.436  21.190  0.00  0.00    +0.000 N 
ATOM     12  C   UNL     1       2.414   5.697  20.119  0.00  0.00    +0.000 A 
ATOM     13  C   UNL     1       2.797   4.354  20.113  0.00  0.00    +0.000 A 
ATOM     14  C   UNL     1       2.989   3.747  18.880  0.00  0.00    +0.000 A 
ATOM     15  C   UNL     1       2.885   4.503  17.717  0.00  0.00    +0.000 A 
ATOM     16  C   UNL     1       2.599   5.897  17.754  0.00  0.00    +0.000 A 
ATOM     17  C   UNL     1       2.320   6.528  18.988  0.00  0.00    +0.000 A 
ATOM     18  H   UNL     1       2.044   6.126  22.149  0.00  0.00    +0.000 HD
ENDBRANCH   3   5
BRANCH   2  19
ATOM     19  C   UNL     1      -1.937  11.269  18.984  0.00  0.00    +0.000 C 
BRANCH  19  20
ATOM     20  C   UNL     1      -2.451  10.886  17.595  0.00  0.00    +0.000 A 
ATOM     21  C   UNL     1      -3.597  11.456  17.030  0.00  0.00    +0.000 A 
ATOM     22  C   UNL     1      -4.040  11.086  15.745  0.00  0.00    +0.000 A 
ATOM     23  C   UNL     1      -3.342  10.138  14.975  0.00  0.00    +0.000 A 
ATOM     24  C   UNL     1      -2.194   9.561  15.522  0.00  0.00    +0.000 A 
ATOM     25  C   UNL     1      -1.759   9.934  16.814  0.00  0.00    +0.000 A 
BRANCH  23  26
ATOM     26  C   UNL     1      -3.848   9.822  13.609  0.00  0.00    +0.000 C 
ATOM     27  O   UNL     1      -5.047   9.625  13.442  0.00  0.00    +0.000 OA
ATOM     28  N   UNL     1      -2.987   9.785  12.549  0.00  0.00    +0.000 N 
ATOM     29  H   UNL     1      -1.996   9.999  12.553  0.00  0.00    +0.000 HD
BRANCH  28  30
ATOM     30  O   UNL     1      -3.586   9.545  11.273  0.00  0.00    +0.000 OA
ATOM     31  H   UNL     1      -3.886  10.449  11.016  0.00  0.00    +0.000 HD
ENDBRANCH  28  30
ENDBRANCH  23  26
ENDBRANCH  19  20
ENDBRANCH   2  19
TORSDOF 5
ENDMDL
MODEL 7
REMARK VINA RESULT:      -8.2      1.387      1.495
REMARK  Name = 
REMARK  6 active torsions:
REMARK  status: ('A' for Active; 'I' for Inactive)
REMARK    1  A    between atoms: C_1  and  N_2
REMARK    2  A    between atoms: N_2  and  C_3
REMARK    3  A    between atoms: C_3  and  C_4
REMARK    4  A    between atoms: C_7  and  C_8
REMARK    5  A    between atoms: N_10  and  O_11
REMARK    6  A    between atoms: C_14  and  C_16
REMARK                            x       y       z     vdW  Elec       q    Type
REMARK                         _______ _______ _______ _____ _____    ______ ____
ROOT
ATOM      1  C   UNL     1       1.344   2.899  20.552  0.00  0.00    +0.000 C 
ATOM      2  N   UNL     1       2.429   3.553  19.842  0.00  0.00    +0.000 N 
ATOM      3  C   UNL     1       2.626   3.123  18.489  0.00  0.00    +0.000 C 
ATOM      4  O   UNL     1       1.831   2.347  17.946  0.00  0.00    +0.000 OA
ENDROOT
BRANCH   3   5
ATOM      5  C   UNL     1       3.827   3.554  17.679  0.00  0.00    +0.000 A 
ATOM      6  C   UNL     1       3.885   3.548  16.256  0.00  0.00    +0.000 A 
ATOM      7  C   UNL     1       5.051   4.116  15.656  0.00  0.00    +0.000 A 
ATOM      8  C   UNL     1       5.982   4.626  16.556  0.00  0.00    +0.000 A 
ATOM      9  C   UNL     1       6.028   4.212  17.860  0.00  0.00    +0.000 A 
ATOM     10  N   UNL     1       4.907   3.796  18.439  0.00  0.00    +0.000 NA
ATOM     11  N   UNL     1       6.793   5.481  15.880  0.00  0.00    +0.000 N 
ATOM     12  C   UNL     1       6.840   5.094  14.575  0.00  0.00    +0.000 A 
ATOM     13  C   UNL     1       7.796   5.450  13.621  0.00  0.00    +0.000 A 
ATOM     14  C   UNL     1       7.758   4.794  12.399  0.00  0.00    +0.000 A 
ATOM     15  C   UNL     1       6.736   3.888  12.136  0.00  0.00    +0.000 A 
ATOM     16  C   UNL     1       5.709   3.621  13.085  0.00  0.00    +0.000 A 
ATOM     17  C   UNL     1       5.763   4.214  14.368  0.00  0.00    +0.000 A 
ATOM     18  H   UNL     1       7.398   6.169  16.301  0.00  0.00    +0.000 HD
ENDBRANCH   3   5
BRANCH   2  19
ATOM     19  C   UNL     1       2.970   4.774  20.504  0.00  0.00    +0.000 C 
BRANCH  19  20
ATOM     20  C   UNL     1       2.544   6.128  19.934  0.00  0.00    +0.000 A 
ATOM     21  C   UNL     1       2.879   6.542  18.641  0.00  0.00    +0.000 A 
ATOM     22  C   UNL     1       2.464   7.794  18.143  0.00  0.00    +0.000 A 
ATOM     23  C   UNL     1       1.687   8.670  18.922  0.00  0.00    +0.000 A 
ATOM     24  C   UNL     1       1.340   8.271  20.215  0.00  0.00    +0.000 A 
ATOM     25  C   UNL     1       1.764   7.017  20.708  0.00  0.00    +0.000 A 
BRANCH  23  26
ATOM     26  C   UNL     1       1.253   9.961  18.318  0.00  0.00    +0.000 C 
ATOM     27  O   UNL     1       2.024  10.572  17.586  0.00  0.00    +0.000 OA
ATOM     28  N   UNL     1      -0.003  10.443  18.553  0.00  0.00    +0.000 N 
ATOM     29  H   UNL     1      -0.746   9.995  19.079  0.00  0.00    +0.000 HD
BRANCH  28  30
ATOM     30  O   UNL     1      -0.342  11.651  17.869  0.00  0.00    +0.000 OA
ATOM     31  H   UNL     1      -0.175  11.405  16.928  0.00  0.00    +0.000 HD
ENDBRANCH  28  30
ENDBRANCH  23  26
ENDBRANCH  19  20
ENDBRANCH   2  19
TORSDOF 5
ENDMDL
MODEL 8
REMARK VINA RESULT:      -8.2      2.944      8.044
REMARK  Name = 
REMARK  6 active torsions:
REMARK  status: ('A' for Active; 'I' for Inactive)
REMARK    1  A    between atoms: C_1  and  N_2
REMARK    2  A    between atoms: N_2  and  C_3
REMARK    3  A    between atoms: C_3  and  C_4
REMARK    4  A    between atoms: C_7  and  C_8
REMARK    5  A    between atoms: N_10  and  O_11
REMARK    6  A    between atoms: C_14  and  C_16
REMARK                            x       y       z     vdW  Elec       q    Type
REMARK                         _______ _______ _______ _____ _____    ______ ____
ROOT
ATOM      1  C   UNL     1       3.655   3.453  20.129  0.00  0.00    +0.000 C 
ATOM      2  N   UNL     1       3.585   4.848  19.728  0.00  0.00    +0.000 N 
ATOM      3  C   UNL     1       2.362   5.519  20.051  0.00  0.00    +0.000 C 
ATOM      4  O   UNL     1       1.497   4.969  20.741  0.00  0.00    +0.000 OA
ENDROOT
BRANCH   3   5
ATOM      5  C   UNL     1       2.049   6.905  19.534  0.00  0.00    +0.000 A 
ATOM      6  C   UNL     1       1.452   7.940  20.309  0.00  0.00    +0.000 A 
ATOM      7  C   UNL     1       1.352   9.227  19.697  0.00  0.00    +0.000 A 
ATOM      8  C   UNL     1       1.878   9.306  18.411  0.00  0.00    +0.000 A 
ATOM      9  C   UNL     1       2.032   8.195  17.625  0.00  0.00    +0.000 A 
ATOM     10  N   UNL     1       2.241   7.021  18.211  0.00  0.00    +0.000 NA
ATOM     11  N   UNL     1       2.101  10.615  18.129  0.00  0.00    +0.000 N 
ATOM     12  C   UNL     1       1.226  11.370  18.850  0.00  0.00    +0.000 A 
ATOM     13  C   UNL     1       0.863  12.698  18.617  0.00  0.00    +0.000 A 
ATOM     14  C   UNL     1      -0.186  13.217  19.362  0.00  0.00    +0.000 A 
ATOM     15  C   UNL     1      -0.770  12.443  20.360  0.00  0.00    +0.000 A 
ATOM     16  C   UNL     1      -0.310  11.129  20.653  0.00  0.00    +0.000 A 
ATOM     17  C   UNL     1       0.704  10.542  19.859  0.00  0.00    +0.000 A 
ATOM     18  H   UNL     1       2.684  10.962  17.383  0.00  0.00    +0.000 HD
ENDBRANCH   3   5
BRANCH   2  19
ATOM     19  C   UNL     1       4.887   5.455  19.328  0.00  0.00    +0.000 C 
BRANCH  19  20
ATOM     20  C   UNL     1       5.369   5.202  17.898  0.00  0.00    +0.000 A 
ATOM     21  C   UNL     1       6.678   5.467  17.484  0.00  0.00    +0.000 A 
ATOM     22  C   UNL     1       7.091   5.216  16.160  0.00  0.00    +0.000 A 
ATOM     23  C   UNL     1       6.208   4.678  15.207  0.00  0.00    +0.000 A 
ATOM     24  C   UNL     1       4.897   4.403  15.605  0.00  0.00    +0.000 A 
ATOM     25  C   UNL     1       4.490   4.662  16.933  0.00  0.00    +0.000 A 
BRANCH  23  26
ATOM     26  C   UNL     1       6.724   4.404  13.836  0.00  0.00    +0.000 C 
ATOM     27  O   UNL     1       7.525   5.181  13.329  0.00  0.00    +0.000 OA
ATOM     28  N   UNL     1       6.332   3.280  13.166  0.00  0.00    +0.000 N 
ATOM     29  H   UNL     1       5.735   2.536  13.508  0.00  0.00    +0.000 HD
BRANCH  28  30
ATOM     30  O   UNL     1       6.941   3.077  11.889  0.00  0.00    +0.000 OA
ATOM     31  H   UNL     1       7.847   2.776  12.141  0.00  0.00    +0.000 HD
ENDBRANCH  28  30
ENDBRANCH  23  26
ENDBRANCH  19  20
ENDBRANCH   2  19
TORSDOF 5
ENDMDL
MODEL 9
REMARK VINA RESULT:      -8.2      2.000      2.560
REMARK  Name = 
REMARK  6 active torsions:
REMARK  status: ('A' for Active; 'I' for Inactive)
REMARK    1  A    between atoms: C_1  and  N_2
REMARK    2  A    between atoms: N_2  and  C_3
REMARK    3  A    between atoms: C_3  and  C_4
REMARK    4  A    between atoms: C_7  and  C_8
REMARK    5  A    between atoms: N_10  and  O_11
REMARK    6  A    between atoms: C_14  and  C_16
REMARK                            x       y       z     vdW  Elec       q    Type
REMARK                         _______ _______ _______ _____ _____    ______ ____
ROOT
ATOM      1  C   UNL     1       1.980   5.558  20.780  0.00  0.00    +0.000 C 
ATOM      2  N   UNL     1       2.807   5.709  19.595  0.00  0.00    +0.000 N 
ATOM      3  C   UNL     1       3.495   4.526  19.171  0.00  0.00    +0.000 C 
ATOM      4  O   UNL     1       3.279   3.436  19.712  0.00  0.00    +0.000 OA
ENDROOT
BRANCH   3   5
ATOM      5  C   UNL     1       4.544   4.556  18.083  0.00  0.00    +0.000 A 
ATOM      6  C   UNL     1       4.278   4.345  16.700  0.00  0.00    +0.000 A 
ATOM      7  C   UNL     1       5.367   4.543  15.796  0.00  0.00    +0.000 A 
ATOM      8  C   UNL     1       6.558   4.943  16.395  0.00  0.00    +0.000 A 
ATOM      9  C   UNL     1       6.814   4.710  17.720  0.00  0.00    +0.000 A 
ATOM     10  N   UNL     1       5.793   4.644  18.567  0.00  0.00    +0.000 NA
ATOM     11  N   UNL     1       7.347   5.489  15.435  0.00  0.00    +0.000 N 
ATOM     12  C   UNL     1       7.023   4.929  14.236  0.00  0.00    +0.000 A 
ATOM     13  C   UNL     1       7.791   4.924  13.070  0.00  0.00    +0.000 A 
ATOM     14  C   UNL     1       7.352   4.135  12.016  0.00  0.00    +0.000 A 
ATOM     15  C   UNL     1       6.139   3.460  12.120  0.00  0.00    +0.000 A 
ATOM     16  C   UNL     1       5.321   3.568  13.280  0.00  0.00    +0.000 A 
ATOM     17  C   UNL     1       5.776   4.300  14.401  0.00  0.00    +0.000 A 
ATOM     18  H   UNL     1       8.154   6.071  15.601  0.00  0.00    +0.000 HD
ENDBRANCH   3   5
BRANCH   2  19
ATOM     19  C   UNL     1       2.579   6.964  18.823  0.00  0.00    +0.000 C 
BRANCH  19  20
ATOM     20  C   UNL     1       1.739   8.054  19.491  0.00  0.00    +0.000 A 
ATOM     21  C   UNL     1       1.472   8.068  20.864  0.00  0.00    +0.000 A 
ATOM     22  C   UNL     1       0.700   9.091  21.449  0.00  0.00    +0.000 A 
ATOM     23  C   UNL     1       0.176  10.145  20.678  0.00  0.00    +0.000 A 
ATOM     24  C   UNL     1       0.436  10.149  19.305  0.00  0.00    +0.000 A 
ATOM     25  C   UNL     1       1.207   9.117  18.726  0.00  0.00    +0.000 A 
BRANCH  23  26
ATOM     26  C   UNL     1      -0.600  11.212  21.369  0.00  0.00    +0.000 C 
ATOM     27  O   UNL     1      -1.155  12.079  20.702  0.00  0.00    +0.000 OA
ATOM     28  N   UNL     1      -0.720  11.205  22.730  0.00  0.00    +0.000 N 
ATOM     29  H   UNL     1      -0.368  10.506  23.375  0.00  0.00    +0.000 HD
BRANCH  28  30
ATOM     30  O   UNL     1      -1.545  12.231  23.285  0.00  0.00    +0.000 OA
ATOM     31  H   UNL     1      -1.857  11.810  24.121  0.00  0.00    +0.000 HD
ENDBRANCH  28  30
ENDBRANCH  23  26
ENDBRANCH  19  20
ENDBRANCH   2  19
TORSDOF 5
ENDMDL
