MODEL 1
REMARK VINA RESULT:      -8.5      0.000      0.000
REMARK  Name = 
REMARK  5 active torsions:
REMARK  status: ('A' for Active; 'I' for Inactive)
REMARK    1  A    between atoms: C_2  and  C_11
REMARK    2  A    between atoms: N_3  and  C_4
REMARK    3  A    between atoms: C_9  and  O_10
REMARK    4  A    between atoms: N_19  and  C_20
REMARK    5  A    between atoms: C_20  and  C_21
REMARK                            x       y       z     vdW  Elec       q    Type
REMARK                         _______ _______ _______ _____ _____    ______ ____
ROOT
ATOM      1  C   UNL     1       2.405   7.750  18.171  0.00  0.00    +0.000 A 
ATOM      2  C   UNL     1       1.773   6.496  18.330  0.00  0.00    +0.000 A 
ATOM      3  C   UNL     1       2.464   5.312  18.021  0.00  0.00    +0.000 A 
ATOM      4  C   UNL     1       3.767   5.424  17.560  0.00  0.00    +0.000 A 
ATOM      5  C   UNL     1       4.379   6.652  17.413  0.00  0.00    +0.000 A 
ATOM      6  C   UNL     1       3.733   7.826  17.712  0.00  0.00    +0.000 A 
ATOM      7  C   UNL     1       5.718   6.434  16.873  0.00  0.00    +0.000 C 
ATOM      8  O   UNL     1       6.512   7.322  16.622  0.00  0.00    +0.000 OA
ATOM      9  N   UNL     1       5.852   5.083  16.726  0.00  0.00    +0.000 N 
ATOM     10  C   UNL     1       4.731   4.411  17.126  0.00  0.00    +0.000 C 
ATOM     11  O   UNL     1       4.513   3.214  17.160  0.00  0.00    +0.000 OA
ENDROOT
BRANCH   1  13
ATOM     12  O   UNL     1       2.031   9.911  17.500  0.00  0.00    +0.000 OA
ATOM     13  C   UNL     1       1.693   9.044  18.300  0.00  0.00    +0.000 C 
ATOM     14  N   UNL     1       0.759   9.185  19.306  0.00  0.00    +0.000 N 
ATOM     15  H   UNL     1       0.682   8.487  20.040  0.00  0.00    +0.000 HD
BRANCH  14  16
ATOM     16  C   UNL     1      -0.003  10.363  19.539  0.00  0.00    +0.000 A 
ATOM     17  C   UNL     1      -1.006  10.802  18.665  0.00  0.00    +0.000 A 
ATOM     18  C   UNL     1      -1.708  11.984  18.908  0.00  0.00    +0.000 A 
ATOM     19  C   UNL     1      -1.426  12.739  20.040  0.00  0.00    +0.000 A 
ATOM     20  C   UNL     1      -0.445  12.309  20.936  0.00  0.00    +0.000 A 
ATOM     21  C   UNL     1       0.255  11.124  20.685  0.00  0.00    +0.000 A 
BRANCH  21  22
ATOM     22  O   UNL     1       1.224  10.699  21.559  0.00  0.00    +0.000 OA
ATOM     23  H   UNL     1       0.906  10.865  22.463  0.00  0.00    +0.000 HD
ENDBRANCH  21  22
ENDBRANCH  14  16
ENDBRANCH   1  13
BRANCH   9  24
ATOM     24  C   UNL     1       7.046   4.459  16.201  0.00  0.00    +0.000 C 
BRANCH  24  25
ATOM     25  C   UNL     1       7.006   4.472  14.714  0.00  0.00    +0.000 A 
ATOM     26  C   UNL     1       6.263   3.791  13.771  0.00  0.00    +0.000 A 
ATOM     27  C   UNL     1       6.713   4.242  12.506  0.00  0.00    +0.000 A 
ATOM     28  C   UNL     1       7.684   5.183  12.759  0.00  0.00    +0.000 A 
ATOM     29  O   UNL     1       7.865   5.333  14.095  0.00  0.00    +0.000 OA
ENDBRANCH  24  25
ENDBRANCH   9  24
TORSDOF 5
ENDMDL
MODEL 2
REMARK VINA RESULT:      -8.4      0.835      1.351
REMARK  Name = 
REMARK  5 active torsions:
REMARK  status: ('A' for Active; 'I' for Inactive)
REMARK    1  A    between atoms: C_2  and  C_11
REMARK    2  A    between atoms: N_3  and  C_4
REMARK    3  A    between atoms: C_9  and  O_10
REMARK    4  A    between atoms: N_19  and  C_20
REMARK    5  A    between atoms: C_20  and  C_21
REMARK                            x       y       z     vdW  Elec       q    Type
REMARK                         _______ _______ _______ _____ _____    ______ ____
ROOT
ATOM      1  C   UNL     1       2.438   7.849  18.110  0.00  0.00    +0.000 A 
ATOM      2  C   UNL     1       1.778   6.612  18.290  0.00  0.00    +0.000 A 
ATOM      3  C   UNL     1       2.444   5.408  18.000  0.00  0.00    +0.000 A 
ATOM      4  C   UNL     1       3.749   5.484  17.537  0.00  0.00    +0.000 A 
ATOM      5  C   UNL     1       4.387   6.696  17.369  0.00  0.00    +0.000 A 
ATOM      6  C   UNL     1       3.766   7.889  17.649  0.00  0.00    +0.000 A 
ATOM      7  C   UNL     1       5.721   6.441  16.832  0.00  0.00    +0.000 C 
ATOM      8  O   UNL     1       6.533   7.306  16.566  0.00  0.00    +0.000 OA
ATOM      9  N   UNL     1       5.825   5.085  16.708  0.00  0.00    +0.000 N 
ATOM     10  C   UNL     1       4.690   4.443  17.120  0.00  0.00    +0.000 C 
ATOM     11  O   UNL     1       4.447   3.253  17.174  0.00  0.00    +0.000 OA
ENDROOT
BRANCH   1  13
ATOM     12  O   UNL     1       2.228  10.057  17.528  0.00  0.00    +0.000 OA
ATOM     13  C   UNL     1       1.754   9.160  18.217  0.00  0.00    +0.000 C 
ATOM     14  N   UNL     1       0.691   9.279  19.089  0.00  0.00    +0.000 N 
ATOM     15  H   UNL     1       0.489   8.544  19.760  0.00  0.00    +0.000 HD
BRANCH  14  16
ATOM     16  C   UNL     1      -0.061  10.471  19.285  0.00  0.00    +0.000 A 
ATOM     17  C   UNL     1       0.124  11.311  20.390  0.00  0.00    +0.000 A 
ATOM     18  C   UNL     1      -0.660  12.453  20.567  0.00  0.00    +0.000 A 
ATOM     19  C   UNL     1      -1.634  12.779  19.631  0.00  0.00    +0.000 A 
ATOM     20  C   UNL     1      -1.821  11.966  18.511  0.00  0.00    +0.000 A 
ATOM     21  C   UNL     1      -1.033  10.823  18.341  0.00  0.00    +0.000 A 
BRANCH  21  22
ATOM     22  O   UNL     1      -1.215  10.019  17.245  0.00  0.00    +0.000 OA
ATOM     23  H   UNL     1      -1.001  10.538  16.452  0.00  0.00    +0.000 HD
ENDBRANCH  21  22
ENDBRANCH  14  16
ENDBRANCH   1  13
BRANCH   9  24
ATOM     24  C   UNL     1       7.005   4.426  16.193  0.00  0.00    +0.000 C 
BRANCH  24  25
ATOM     25  C   UNL     1       6.977   4.438  14.706  0.00  0.00    +0.000 A 
ATOM     26  C   UNL     1       6.244   3.752  13.757  0.00  0.00    +0.000 A 
ATOM     27  C   UNL     1       6.702   4.204  12.495  0.00  0.00    +0.000 A 
ATOM     28  C   UNL     1       7.666   5.150  12.755  0.00  0.00    +0.000 A 
ATOM     29  O   UNL     1       7.835   5.302  14.092  0.00  0.00    +0.000 OA
ENDBRANCH  24  25
ENDBRANCH   9  24
TORSDOF 5
ENDMDL
MODEL 3
REMARK VINA RESULT:      -8.3      4.826      7.260
REMARK  Name = 
REMARK  5 active torsions:
REMARK  status: ('A' for Active; 'I' for Inactive)
REMARK    1  A    between atoms: C_2  and  C_11
REMARK    2  A    between atoms: N_3  and  C_4
REMARK    3  A    between atoms: C_9  and  O_10
REMARK    4  A    between atoms: N_19  and  C_20
REMARK    5  A    between atoms: C_20  and  C_21
REMARK                            x       y       z     vdW  Elec       q    Type
REMARK                         _______ _______ _______ _____ _____    ______ ____
ROOT
ATOM      1  C   UNL     1       8.127   8.127  18.301  0.00  0.00    +0.000 A 
ATOM      2  C   UNL     1       8.423   7.143  19.271  0.00  0.00    +0.000 A 
ATOM      3  C   UNL     1       7.767   5.900  19.239  0.00  0.00    +0.000 A 
ATOM      4  C   UNL     1       6.835   5.685  18.235  0.00  0.00    +0.000 A 
ATOM      5  C   UNL     1       6.557   6.649  17.287  0.00  0.00    +0.000 A 
ATOM      6  C   UNL     1       7.184   7.871  17.288  0.00  0.00    +0.000 A 
ATOM      7  C   UNL     1       5.511   6.137  16.406  0.00  0.00    +0.000 C 
ATOM      8  O   UNL     1       5.038   6.753  15.470  0.00  0.00    +0.000 OA
ATOM      9  N   UNL     1       5.213   4.885  16.861  0.00  0.00    +0.000 N 
ATOM     10  C   UNL     1       5.971   4.539  17.945  0.00  0.00    +0.000 C 
ATOM     11  O   UNL     1       5.991   3.502  18.581  0.00  0.00    +0.000 OA
ENDROOT
BRANCH   1  13
ATOM     12  O   UNL     1       8.175  10.287  17.532  0.00  0.00    +0.000 OA
ATOM     13  C   UNL     1       8.636   9.518  18.370  0.00  0.00    +0.000 C 
ATOM     14  N   UNL     1       9.591   9.824  19.318  0.00  0.00    +0.000 N 
ATOM     15  H   UNL     1      10.055   9.087  19.839  0.00  0.00    +0.000 HD
BRANCH  14  16
ATOM     16  C   UNL     1      10.157  11.116  19.503  0.00  0.00    +0.000 A 
ATOM     17  C   UNL     1      10.973  11.731  18.545  0.00  0.00    +0.000 A 
ATOM     18  C   UNL     1      11.541  12.985  18.778  0.00  0.00    +0.000 A 
ATOM     19  C   UNL     1      11.290  13.649  19.973  0.00  0.00    +0.000 A 
ATOM     20  C   UNL     1      10.463  13.064  20.934  0.00  0.00    +0.000 A 
ATOM     21  C   UNL     1       9.898  11.807  20.692  0.00  0.00    +0.000 A 
BRANCH  21  22
ATOM     22  O   UNL     1       9.088  11.225  21.634  0.00  0.00    +0.000 OA
ATOM     23  H   UNL     1       8.172  11.498  21.453  0.00  0.00    +0.000 HD
ENDBRANCH  21  22
ENDBRANCH  14  16
ENDBRANCH   1  13
BRANCH   9  24
ATOM     24  C   UNL     1       4.205   4.042  16.256  0.00  0.00    +0.000 C 
BRANCH  24  25
ATOM     25  C   UNL     1       3.088   3.830  17.214  0.00  0.00    +0.000 A 
ATOM     26  C   UNL     1       2.206   4.675  17.858  0.00  0.00    +0.000 A 
ATOM     27  C   UNL     1       1.381   3.853  18.663  0.00  0.00    +0.000 A 
ATOM     28  C   UNL     1       1.796   2.561  18.442  0.00  0.00    +0.000 A 
ATOM     29  O   UNL     1       2.827   2.537  17.561  0.00  0.00    +0.000 OA
ENDBRANCH  24  25
ENDBRANCH   9  24
TORSDOF 5
ENDMDL
MODEL 4
REMARK VINA RESULT:      -8.2      4.806      7.410
REMARK  Name = 
REMARK  5 active torsions:
REMARK  status: ('A' for Active; 'I' for Inactive)
REMARK    1  A    between atoms: C_2  and  C_11
REMARK    2  A    between atoms: N_3  and  C_4
REMARK    3  A    between atoms: C_9  and  O_10
REMARK    4  A    between atoms: N_19  and  C_20
REMARK    5  A    between atoms: C_20  and  C_21
REMARK                            x       y       z     vdW  Elec       q    Type
REMARK                         _______ _______ _______ _____ _____    ______ ____
ROOT
ATOM      1  C   UNL     1       8.165   8.276  18.288  0.00  0.00    +0.000 A 
ATOM      2  C   UNL     1       8.501   7.283  19.235  0.00  0.00    +0.000 A 
ATOM      3  C   UNL     1       7.877   6.024  19.190  0.00  0.00    +0.000 A 
ATOM      4  C   UNL     1       6.934   5.803  18.198  0.00  0.00    +0.000 A 
ATOM      5  C   UNL     1       6.616   6.777  17.273  0.00  0.00    +0.000 A 
ATOM      6  C   UNL     1       7.212   8.015  17.287  0.00  0.00    +0.000 A 
ATOM      7  C   UNL     1       5.569   6.255  16.399  0.00  0.00    +0.000 C 
ATOM      8  O   UNL     1       5.065   6.875  15.482  0.00  0.00    +0.000 OA
ATOM      9  N   UNL     1       5.310   4.987  16.836  0.00  0.00    +0.000 N 
ATOM     10  C   UNL     1       6.095   4.641  17.901  0.00  0.00    +0.000 C 
ATOM     11  O   UNL     1       6.151   3.594  18.516  0.00  0.00    +0.000 OA
ENDROOT
BRANCH   1  13
ATOM     12  O   UNL     1       8.142  10.451  17.562  0.00  0.00    +0.000 OA
ATOM     13  C   UNL     1       8.640   9.678  18.375  0.00  0.00    +0.000 C 
ATOM     14  N   UNL     1       9.605   9.991  19.310  0.00  0.00    +0.000 N 
ATOM     15  H   UNL     1      10.099   9.256  19.807  0.00  0.00    +0.000 HD
BRANCH  14  16
ATOM     16  C   UNL     1      10.143  11.293  19.509  0.00  0.00    +0.000 A 
ATOM     17  C   UNL     1       9.928  12.030  20.681  0.00  0.00    +0.000 A 
ATOM     18  C   UNL     1      10.441  13.320  20.825  0.00  0.00    +0.000 A 
ATOM     19  C   UNL     1      11.189  13.889  19.802  0.00  0.00    +0.000 A 
ATOM     20  C   UNL     1      11.433  13.164  18.634  0.00  0.00    +0.000 A 
ATOM     21  C   UNL     1      10.915  11.871  18.496  0.00  0.00    +0.000 A 
BRANCH  21  22
ATOM     22  O   UNL     1      11.148  11.156  17.349  0.00  0.00    +0.000 OA
ATOM     23  H   UNL     1      11.146  10.211  17.579  0.00  0.00    +0.000 HD
ENDBRANCH  21  22
ENDBRANCH  14  16
ENDBRANCH   1  13
BRANCH   9  24
ATOM     24  C   UNL     1       4.315   4.130  16.231  0.00  0.00    +0.000 C 
BRANCH  24  25
ATOM     25  C   UNL     1       3.191   3.919  17.182  0.00  0.00    +0.000 A 
ATOM     26  C   UNL     1       2.320   4.767  17.838  0.00  0.00    +0.000 A 
ATOM     27  C   UNL     1       1.479   3.944  18.626  0.00  0.00    +0.000 A 
ATOM     28  C   UNL     1       1.876   2.650  18.385  0.00  0.00    +0.000 A 
ATOM     29  O   UNL     1       2.909   2.624  17.507  0.00  0.00    +0.000 OA
ENDBRANCH  24  25
ENDBRANCH   9  24
TORSDOF 5
ENDMDL
MODEL 5
REMARK VINA RESULT:      -8.0      1.281      1.384
REMARK  Name = 
REMARK  5 active torsions:
REMARK  status: ('A' for Active; 'I' for Inactive)
REMARK    1  A    between atoms: C_2  and  C_11
REMARK    2  A    between atoms: N_3  and  C_4
REMARK    3  A    between atoms: C_9  and  O_10
REMARK    4  A    between atoms: N_19  and  C_20
REMARK    5  A    between atoms: C_20  and  C_21
REMARK                            x       y       z     vdW  Elec       q    Type
REMARK                         _______ _______ _______ _____ _____    ______ ____
ROOT
ATOM      1  C   UNL     1       2.448   7.847  18.751  0.00  0.00    +0.000 A 
ATOM      2  C   UNL     1       2.253   6.778  19.653  0.00  0.00    +0.000 A 
ATOM      3  C   UNL     1       3.138   5.685  19.654  0.00  0.00    +0.000 A 
ATOM      4  C   UNL     1       4.188   5.701  18.749  0.00  0.00    +0.000 A 
ATOM      5  C   UNL     1       4.374   6.752  17.875  0.00  0.00    +0.000 A 
ATOM      6  C   UNL     1       3.531   7.837  17.853  0.00  0.00    +0.000 A 
ATOM      7  C   UNL     1       5.528   6.449  17.033  0.00  0.00    +0.000 C 
ATOM      8  O   UNL     1       5.948   7.178  16.154  0.00  0.00    +0.000 OA
ATOM      9  N   UNL     1       5.987   5.231  17.444  0.00  0.00    +0.000 N 
ATOM     10  C   UNL     1       5.244   4.724  18.474  0.00  0.00    +0.000 C 
ATOM     11  O   UNL     1       5.383   3.688  19.096  0.00  0.00    +0.000 OA
ENDROOT
BRANCH   1  13
ATOM     12  O   UNL     1       0.946   8.995  17.451  0.00  0.00    +0.000 OA
ATOM     13  C   UNL     1       1.466   8.942  18.561  0.00  0.00    +0.000 C 
ATOM     14  N   UNL     1       1.246   9.819  19.605  0.00  0.00    +0.000 N 
ATOM     15  H   UNL     1       1.858   9.819  20.415  0.00  0.00    +0.000 HD
BRANCH  14  16
ATOM     16  C   UNL     1       0.328  10.904  19.565  0.00  0.00    +0.000 A 
ATOM     17  C   UNL     1      -0.873  10.908  20.286  0.00  0.00    +0.000 A 
ATOM     18  C   UNL     1      -1.767  11.976  20.193  0.00  0.00    +0.000 A 
ATOM     19  C   UNL     1      -1.465  13.066  19.386  0.00  0.00    +0.000 A 
ATOM     20  C   UNL     1      -0.263  13.093  18.675  0.00  0.00    +0.000 A 
ATOM     21  C   UNL     1       0.627  12.018  18.773  0.00  0.00    +0.000 A 
BRANCH  21  22
ATOM     22  O   UNL     1       1.807  12.037  18.073  0.00  0.00    +0.000 OA
ATOM     23  H   UNL     1       2.112  11.119  17.973  0.00  0.00    +0.000 HD
ENDBRANCH  21  22
ENDBRANCH  14  16
ENDBRANCH   1  13
BRANCH   9  24
ATOM     24  C   UNL     1       7.123   4.569  16.842  0.00  0.00    +0.000 C 
BRANCH  24  25
ATOM     25  C   UNL     1       6.901   4.422  15.379  0.00  0.00    +0.000 A 
ATOM     26  C   UNL     1       6.012   3.692  14.615  0.00  0.00    +0.000 A 
ATOM     27  C   UNL     1       6.326   3.971  13.262  0.00  0.00    +0.000 A 
ATOM     28  C   UNL     1       7.367   4.868  13.289  0.00  0.00    +0.000 A 
ATOM     29  O   UNL     1       7.719   5.151  14.567  0.00  0.00    +0.000 OA
ENDBRANCH  24  25
ENDBRANCH   9  24
TORSDOF 5
ENDMDL
MODEL 6
REMARK VINA RESULT:      -8.0      4.742      7.446
REMARK  Name = 
REMARK  5 active torsions:
REMARK  status: ('A' for Active; 'I' for Inactive)
REMARK    1  A    between atoms: C_2  and  C_11
REMARK    2  A    between atoms: N_3  and  C_4
REMARK    3  A    between atoms: C_9  and  O_10
REMARK    4  A    between atoms: N_19  and  C_20
REMARK    5  A    between atoms: C_20  and  C_21
REMARK                            x       y       z     vdW  Elec       q    Type
REMARK                         _______ _______ _______ _____ _____    ______ ____
ROOT
ATOM      1  C   UNL     1       7.848   7.675  18.283  0.00  0.00    +0.000 A 
ATOM      2  C   UNL     1       8.319   6.689  19.179  0.00  0.00    +0.000 A 
ATOM      3  C   UNL     1       7.598   5.496  19.359  0.00  0.00    +0.000 A 
ATOM      4  C   UNL     1       6.427   5.331  18.636  0.00  0.00    +0.000 A 
ATOM      5  C   UNL     1       5.977   6.297  17.758  0.00  0.00    +0.000 A 
ATOM      6  C   UNL     1       6.661   7.470  17.556  0.00  0.00    +0.000 A 
ATOM      7  C   UNL     1       4.708   5.846  17.193  0.00  0.00    +0.000 C 
ATOM      8  O   UNL     1       4.050   6.479  16.388  0.00  0.00    +0.000 OA
ATOM      9  N   UNL     1       4.456   4.627  17.753  0.00  0.00    +0.000 N 
ATOM     10  C   UNL     1       5.444   4.246  18.618  0.00  0.00    +0.000 C 
ATOM     11  O   UNL     1       5.560   3.221  19.262  0.00  0.00    +0.000 OA
ENDROOT
BRANCH   1  13
ATOM     12  O   UNL     1       8.227   9.612  17.115  0.00  0.00    +0.000 OA
ATOM     13  C   UNL     1       8.447   9.027  18.171  0.00  0.00    +0.000 C 
ATOM     14  N   UNL     1       9.217   9.496  19.216  0.00  0.00    +0.000 N 
ATOM     15  H   UNL     1       9.505   8.872  19.964  0.00  0.00    +0.000 HD
BRANCH  14  16
ATOM     16  C   UNL     1       9.840  10.774  19.248  0.00  0.00    +0.000 A 
ATOM     17  C   UNL     1      10.413  11.366  18.115  0.00  0.00    +0.000 A 
ATOM     18  C   UNL     1      11.049  12.606  18.193  0.00  0.00    +0.000 A 
ATOM     19  C   UNL     1      11.111  13.280  19.407  0.00  0.00    +0.000 A 
ATOM     20  C   UNL     1      10.529  12.717  20.545  0.00  0.00    +0.000 A 
ATOM     21  C   UNL     1       9.893  11.474  20.458  0.00  0.00    +0.000 A 
BRANCH  21  22
ATOM     22  O   UNL     1       9.323  10.913  21.574  0.00  0.00    +0.000 OA
ATOM     23  H   UNL     1       8.859  11.616  22.059  0.00  0.00    +0.000 HD
ENDBRANCH  21  22
ENDBRANCH  14  16
ENDBRANCH   1  13
BRANCH   9  24
ATOM     24  C   UNL     1       3.274   3.849  17.456  0.00  0.00    +0.000 C 
BRANCH  24  25
ATOM     25  C   UNL     1       2.362   3.855  18.630  0.00  0.00    +0.000 A 
ATOM     26  C   UNL     1       1.869   4.847  19.454  0.00  0.00    +0.000 A 
ATOM     27  C   UNL     1       1.051   4.201  20.413  0.00  0.00    +0.000 A 
ATOM     28  C   UNL     1       1.079   2.862  20.099  0.00  0.00    +0.000 A 
ATOM     29  O   UNL     1       1.867   2.644  19.017  0.00  0.00    +0.000 OA
ENDBRANCH  24  25
ENDBRANCH   9  24
TORSDOF 5
ENDMDL
MODEL 7
REMARK VINA RESULT:      -7.8      3.837      9.873
REMARK  Name = 
REMARK  5 active torsions:
REMARK  status: ('A' for Active; 'I' for Inactive)
REMARK    1  A    between atoms: C_2  and  C_11
REMARK    2  A    between atoms: N_3  and  C_4
REMARK    3  A    between atoms: C_9  and  O_10
REMARK    4  A    between atoms: N_19  and  C_20
REMARK    5  A    between atoms: C_20  and  C_21
REMARK                            x       y       z     vdW  Elec       q    Type
REMARK                         _______ _______ _______ _____ _____    ______ ____
ROOT
ATOM      1  C   UNL     1       1.841   7.882  19.617  0.00  0.00    +0.000 A 
ATOM      2  C   UNL     1       1.923   8.580  18.392  0.00  0.00    +0.000 A 
ATOM      3  C   UNL     1       1.508   9.921  18.314  0.00  0.00    +0.000 A 
ATOM      4  C   UNL     1       1.023  10.517  19.468  0.00  0.00    +0.000 A 
ATOM      5  C   UNL     1       0.952   9.830  20.663  0.00  0.00    +0.000 A 
ATOM      6  C   UNL     1       1.354   8.521  20.772  0.00  0.00    +0.000 A 
ATOM      7  C   UNL     1       0.362  10.712  21.665  0.00  0.00    +0.000 C 
ATOM      8  O   UNL     1       0.158  10.399  22.823  0.00  0.00    +0.000 OA
ATOM      9  N   UNL     1       0.112  11.894  21.028  0.00  0.00    +0.000 N 
ATOM     10  C   UNL     1       0.490  11.858  19.714  0.00  0.00    +0.000 C 
ATOM     11  O   UNL     1       0.440  12.730  18.868  0.00  0.00    +0.000 OA
ENDROOT
BRANCH   1  13
ATOM     12  O   UNL     1       1.721   5.920  20.800  0.00  0.00    +0.000 OA
ATOM     13  C   UNL     1       2.085   6.425  19.742  0.00  0.00    +0.000 C 
ATOM     14  N   UNL     1       2.720   5.771  18.706  0.00  0.00    +0.000 N 
ATOM     15  H   UNL     1       3.158   6.297  17.956  0.00  0.00    +0.000 HD
BRANCH  14  16
ATOM     16  C   UNL     1       3.008   4.378  18.687  0.00  0.00    +0.000 A 
ATOM     17  C   UNL     1       4.078   3.815  19.395  0.00  0.00    +0.000 A 
ATOM     18  C   UNL     1       4.350   2.448  19.322  0.00  0.00    +0.000 A 
ATOM     19  C   UNL     1       3.547   1.619  18.548  0.00  0.00    +0.000 A 
ATOM     20  C   UNL     1       2.462   2.156  17.852  0.00  0.00    +0.000 A 
ATOM     21  C   UNL     1       2.195   3.527  17.929  0.00  0.00    +0.000 A 
BRANCH  21  22
ATOM     22  O   UNL     1       1.134   4.061  17.243  0.00  0.00    +0.000 OA
ATOM     23  H   UNL     1       1.483   4.705  16.604  0.00  0.00    +0.000 HD
ENDBRANCH  21  22
ENDBRANCH  14  16
ENDBRANCH   1  13
BRANCH   9  24
ATOM     24  C   UNL     1      -0.490  13.034  21.683  0.00  0.00    +0.000 C 
BRANCH  24  25
ATOM     25  C   UNL     1      -1.971  12.942  21.591  0.00  0.00    +0.000 A 
ATOM     26  C   UNL     1      -2.871  13.017  20.546  0.00  0.00    +0.000 A 
ATOM     27  C   UNL     1      -4.159  12.869  21.117  0.00  0.00    +0.000 A 
ATOM     28  C   UNL     1      -3.961  12.691  22.466  0.00  0.00    +0.000 A 
ATOM     29  O   UNL     1      -2.638  12.729  22.762  0.00  0.00    +0.000 OA
ENDBRANCH  24  25
ENDBRANCH   9  24
TORSDOF 5
ENDMDL
MODEL 8
REMARK VINA RESULT:      -7.7      1.123      1.366
REMARK  Name = 
REMARK  5 active torsions:
REMARK  status: ('A' for Active; 'I' for Inactive)
REMARK    1  A    between atoms: C_2  and  C_11
REMARK    2  A    between atoms: N_3  and  C_4
REMARK    3  A    between atoms: C_9  and  O_10
REMARK    4  A    between atoms: N_19  and  C_20
REMARK    5  A    between atoms: C_20  and  C_21
REMARK                            x       y       z     vdW  Elec       q    Type
REMARK                         _______ _______ _______ _____ _____    ______ ____
ROOT
ATOM      1  C   UNL     1       2.512   7.173  18.571  0.00  0.00    +0.000 A 
ATOM      2  C   UNL     1       1.963   5.876  18.469  0.00  0.00    +0.000 A 
ATOM      3  C   UNL     1       2.723   4.829  17.917  0.00  0.00    +0.000 A 
ATOM      4  C   UNL     1       4.008   5.119  17.484  0.00  0.00    +0.000 A 
ATOM      5  C   UNL     1       4.539   6.388  17.593  0.00  0.00    +0.000 A 
ATOM      6  C   UNL     1       3.824   7.430  18.133  0.00  0.00    +0.000 A 
ATOM      7  C   UNL     1       5.879   6.375  17.014  0.00  0.00    +0.000 C 
ATOM      8  O   UNL     1       6.610   7.345  16.950  0.00  0.00    +0.000 OA
ATOM      9  N   UNL     1       6.095   5.096  16.589  0.00  0.00    +0.000 N 
ATOM     10  C   UNL     1       5.026   4.283  16.845  0.00  0.00    +0.000 C 
ATOM     11  O   UNL     1       4.884   3.094  16.630  0.00  0.00    +0.000 OA
ENDROOT
BRANCH   1  13
ATOM     12  O   UNL     1       1.507   8.471  20.173  0.00  0.00    +0.000 OA
ATOM     13  C   UNL     1       1.723   8.363  18.969  0.00  0.00    +0.000 C 
ATOM     14  N   UNL     1       1.269   9.214  17.982  0.00  0.00    +0.000 N 
ATOM     15  H   UNL     1       1.327   8.946  17.004  0.00  0.00    +0.000 HD
BRANCH  14  16
ATOM     16  C   UNL     1       0.512  10.395  18.221  0.00  0.00    +0.000 A 
ATOM     17  C   UNL     1      -0.870  10.375  18.452  0.00  0.00    +0.000 A 
ATOM     18  C   UNL     1      -1.585  11.559  18.645  0.00  0.00    +0.000 A 
ATOM     19  C   UNL     1      -0.924  12.781  18.623  0.00  0.00    +0.000 A 
ATOM     20  C   UNL     1       0.456  12.822  18.415  0.00  0.00    +0.000 A 
ATOM     21  C   UNL     1       1.166  11.632  18.221  0.00  0.00    +0.000 A 
BRANCH  21  22
ATOM     22  O   UNL     1       2.521  11.665  18.012  0.00  0.00    +0.000 OA
ATOM     23  H   UNL     1       2.730  11.041  17.296  0.00  0.00    +0.000 HD
ENDBRANCH  21  22
ENDBRANCH  14  16
ENDBRANCH   1  13
BRANCH   9  24
ATOM     24  C   UNL     1       7.316   4.673  15.941  0.00  0.00    +0.000 C 
BRANCH  24  25
ATOM     25  C   UNL     1       7.104   4.598  14.470  0.00  0.00    +0.000 A 
ATOM     26  C   UNL     1       6.259   3.864  13.662  0.00  0.00    +0.000 A 
ATOM     27  C   UNL     1       6.557   4.238  12.329  0.00  0.00    +0.000 A 
ATOM     28  C   UNL     1       7.545   5.190  12.411  0.00  0.00    +0.000 A 
ATOM     29  O   UNL     1       7.879   5.419  13.705  0.00  0.00    +0.000 OA
ENDBRANCH  24  25
ENDBRANCH   9  24
TORSDOF 5
ENDMDL
MODEL 9
REMARK VINA RESULT:      -7.7      1.155      1.176
REMARK  Name = 
REMARK  5 active torsions:
REMARK  status: ('A' for Active; 'I' for Inactive)
REMARK    1  A    between atoms: C_2  and  C_11
REMARK    2  A    between atoms: N_3  and  C_4
REMARK    3  A    between atoms: C_9  and  O_10
REMARK    4  A    between atoms: N_19  and  C_20
REMARK    5  A    between atoms: C_20  and  C_21
REMARK                            x       y       z     vdW  Elec       q    Type
REMARK                         _______ _______ _______ _____ _____    ______ ____
ROOT
ATOM      1  C   UNL     1       2.446   7.814  18.739  0.00  0.00    +0.000 A 
ATOM      2  C   UNL     1       2.271   6.742  19.643  0.00  0.00    +0.000 A 
ATOM      3  C   UNL     1       3.167   5.658  19.635  0.00  0.00    +0.000 A 
ATOM      4  C   UNL     1       4.206   5.684  18.718  0.00  0.00    +0.000 A 
ATOM      5  C   UNL     1       4.373   6.737  17.842  0.00  0.00    +0.000 A 
ATOM      6  C   UNL     1       3.519   7.813  17.829  0.00  0.00    +0.000 A 
ATOM      7  C   UNL     1       5.520   6.445  16.987  0.00  0.00    +0.000 C 
ATOM      8  O   UNL     1       5.923   7.177  16.103  0.00  0.00    +0.000 OA
ATOM      9  N   UNL     1       5.995   5.231  17.393  0.00  0.00    +0.000 N 
ATOM     10  C   UNL     1       5.268   4.717  18.431  0.00  0.00    +0.000 C 
ATOM     11  O   UNL     1       5.424   3.683  19.052  0.00  0.00    +0.000 OA
ENDROOT
BRANCH   1  13
ATOM     12  O   UNL     1       0.795   8.844  17.525  0.00  0.00    +0.000 OA
ATOM     13  C   UNL     1       1.451   8.899  18.560  0.00  0.00    +0.000 C 
ATOM     14  N   UNL     1       1.369   9.883  19.524  0.00  0.00    +0.000 N 
ATOM     15  H   UNL     1       2.079   9.958  20.247  0.00  0.00    +0.000 HD
BRANCH  14  16
ATOM     16  C   UNL     1       0.457  10.974  19.487  0.00  0.00    +0.000 A 
ATOM     17  C   UNL     1       0.589  12.042  18.591  0.00  0.00    +0.000 A 
ATOM     18  C   UNL     1      -0.305  13.114  18.610  0.00  0.00    +0.000 A 
ATOM     19  C   UNL     1      -1.356  13.126  19.518  0.00  0.00    +0.000 A 
ATOM     20  C   UNL     1      -1.520  12.061  20.407  0.00  0.00    +0.000 A 
ATOM     21  C   UNL     1      -0.618  10.991  20.383  0.00  0.00    +0.000 A 
BRANCH  21  22
ATOM     22  O   UNL     1      -0.771   9.944  21.256  0.00  0.00    +0.000 OA
ATOM     23  H   UNL     1      -1.690   9.634  21.196  0.00  0.00    +0.000 HD
ENDBRANCH  21  22
ENDBRANCH  14  16
ENDBRANCH   1  13
BRANCH   9  24
ATOM     24  C   UNL     1       7.130   4.580  16.779  0.00  0.00    +0.000 C 
BRANCH  24  25
ATOM     25  C   UNL     1       6.893   4.430  15.318  0.00  0.00    +0.000 A 
ATOM     26  C   UNL     1       5.999   3.697  14.565  0.00  0.00    +0.000 A 
ATOM     27  C   UNL     1       6.297   3.975  13.208  0.00  0.00    +0.000 A 
ATOM     28  C   UNL     1       7.337   4.874  13.222  0.00  0.00    +0.000 A 
ATOM     29  O   UNL     1       7.701   5.160  14.497  0.00  0.00    +0.000 OA
ENDBRANCH  24  25
ENDBRANCH   9  24
TORSDOF 5
ENDMDL
