MODEL 1
REMARK VINA RESULT:      -7.5      0.000      0.000
REMARK  Name = 
REMARK  13 active torsions:
REMARK  status: ('A' for Active; 'I' for Inactive)
REMARK    1  A    between atoms: C_1  and  O_2
REMARK    2  A    between atoms: O_2  and  C_3
REMARK    3  A    between atoms: C_3  and  C_4
REMARK    4  A    between atoms: C_4  and  O_5
REMARK    5  A    between atoms: O_5  and  C_6
REMARK    6  A    between atoms: C_11  and  C_12
REMARK    7  A    between atoms: C_13  and  C_14
REMARK    8  A    between atoms: C_14  and  C_16
REMARK    9  A    between atoms: C_16  and  C_17
REMARK   10  A    between atoms: C_16  and  C_18
REMARK   11  A    between atoms: N_23  and  C_24
REMARK   12  A    between atoms: C_27  and  C_28
REMARK   13  A    between atoms: C_31  and  C_32
REMARK                            x       y       z     vdW  Elec       q    Type
REMARK                         _______ _______ _______ _____ _____    ______ ____
ROOT
ATOM      1  C   UNL     1       4.259   4.457  17.693  0.00  0.00    +0.000 C 
ATOM      2  C   UNL     1       4.049   2.973  18.081  0.00  0.00    +0.000 C 
ATOM      3  C   UNL     1       2.636   2.828  17.594  0.00  0.00    +0.000 C 
ATOM      4  O   UNL     1       2.110   1.807  17.184  0.00  0.00    +0.000 OA
ATOM      5  C   UNL     1       1.930   4.173  17.752  0.00  0.00    +0.000 C 
ATOM      6  O   UNL     1       0.724   4.306  17.737  0.00  0.00    +0.000 OA
ATOM      7  N   UNL     1       2.947   5.077  17.983  0.00  0.00    +0.000 N 
ENDROOT
BRANCH   1  13
ATOM      8  C   UNL     1       6.415   5.801  17.138  0.00  0.00    +0.000 A 
ATOM      9  N   UNL     1       7.627   6.295  17.499  0.00  0.00    +0.000 NA
ATOM     10  C   UNL     1       8.001   6.201  18.786  0.00  0.00    +0.000 A 
ATOM     11  C   UNL     1       7.154   5.774  19.778  0.00  0.00    +0.000 A 
ATOM     12  C   UNL     1       5.889   5.340  19.400  0.00  0.00    +0.000 A 
ATOM     13  C   UNL     1       5.532   5.217  18.038  0.00  0.00    +0.000 A 
BRANCH   8  14
ATOM     14  O   UNL     1       6.018   6.051  15.842  0.00  0.00    +0.000 OA
BRANCH  14  15
ATOM     15  C   UNL     1       6.684   5.187  14.909  0.00  0.00    +0.000 C 
BRANCH  15  16
ATOM     16  C   UNL     1       5.698   4.267  14.201  0.00  0.00    +0.000 C 
BRANCH  16  18
ATOM     17  C   UNL     1       5.555   3.156  12.105  0.00  0.00    +0.000 C 
ATOM     18  O   UNL     1       6.408   3.650  13.127  0.00  0.00    +0.000 OA
ENDBRANCH  16  18
ENDBRANCH  15  16
ENDBRANCH  14  15
ENDBRANCH   8  14
ENDBRANCH   1  13
BRANCH   7  19
ATOM     19  C   UNL     1       2.720   6.449  18.184  0.00  0.00    +0.000 A 
ATOM     20  C   UNL     1       2.930   7.353  17.137  0.00  0.00    +0.000 A 
ATOM     21  C   UNL     1       2.555   8.691  17.271  0.00  0.00    +0.000 A 
ATOM     22  C   UNL     1       1.991   9.164  18.463  0.00  0.00    +0.000 A 
ATOM     23  C   UNL     1       1.845   8.265  19.531  0.00  0.00    +0.000 A 
ATOM     24  C   UNL     1       2.224   6.920  19.402  0.00  0.00    +0.000 A 
BRANCH  22  25
ATOM     25  C   UNL     1       1.583  10.563  18.574  0.00  0.00    +0.000 A 
ATOM     26  C   UNL     1       0.409  11.196  18.941  0.00  0.00    +0.000 A 
ATOM     27  C   UNL     1       0.631  12.587  18.809  0.00  0.00    +0.000 A 
ATOM     28  C   UNL     1       1.931  12.729  18.379  0.00  0.00    +0.000 A 
ATOM     29  C   UNL     1       2.764  13.898  18.037  0.00  0.00    +0.000 C 
ATOM     30  O   UNL     1       2.517  11.507  18.245  0.00  0.00    +0.000 OA
ENDBRANCH  22  25
ENDBRANCH   7  19
BRANCH   2  31
ATOM     31  C   UNL     1       4.059   2.685  19.576  0.00  0.00    +0.000 C 
ATOM     32  O   UNL     1       5.095   2.309  20.130  0.00  0.00    +0.000 OA
BRANCH  31  33
ATOM     33  C   UNL     1       2.812   2.979  20.415  0.00  0.00    +0.000 C 
ATOM     34  C   UNL     1       2.506   1.755  21.274  0.00  0.00    +0.000 C 
ATOM     35  C   UNL     1       2.857   4.247  21.260  0.00  0.00    +0.000 C 
ENDBRANCH  31  33
ENDBRANCH   2  31
TORSDOF 9
ENDMDL
MODEL 2
REMARK VINA RESULT:      -7.0      1.297      1.676
REMARK  Name = 
REMARK  13 active torsions:
REMARK  status: ('A' for Active; 'I' for Inactive)
REMARK    1  A    between atoms: C_1  and  O_2
REMARK    2  A    between atoms: O_2  and  C_3
REMARK    3  A    between atoms: C_3  and  C_4
REMARK    4  A    between atoms: C_4  and  O_5
REMARK    5  A    between atoms: O_5  and  C_6
REMARK    6  A    between atoms: C_11  and  C_12
REMARK    7  A    between atoms: C_13  and  C_14
REMARK    8  A    between atoms: C_14  and  C_16
REMARK    9  A    between atoms: C_16  and  C_17
REMARK   10  A    between atoms: C_16  and  C_18
REMARK   11  A    between atoms: N_23  and  C_24
REMARK   12  A    between atoms: C_27  and  C_28
REMARK   13  A    between atoms: C_31  and  C_32
REMARK                            x       y       z     vdW  Elec       q    Type
REMARK                         _______ _______ _______ _____ _____    ______ ____
ROOT
ATOM      1  C   UNL     1       3.855   4.614  17.351  0.00  0.00    +0.000 C 
ATOM      2  C   UNL     1       4.005   3.150  17.833  0.00  0.00    +0.000 C 
ATOM      3  C   UNL     1       2.546   2.838  18.006  0.00  0.00    +0.000 C 
ATOM      4  O   UNL     1       2.019   1.744  17.891  0.00  0.00    +0.000 OA
ATOM      5  C   UNL     1       1.822   4.118  18.415  0.00  0.00    +0.000 C 
ATOM      6  O   UNL     1       0.718   4.137  18.917  0.00  0.00    +0.000 OA
ATOM      7  N   UNL     1       2.728   5.129  18.160  0.00  0.00    +0.000 N 
ENDROOT
BRANCH   1  13
ATOM      8  C   UNL     1       5.913   5.455  16.001  0.00  0.00    +0.000 A 
ATOM      9  N   UNL     1       7.073   6.156  15.928  0.00  0.00    +0.000 NA
ATOM     10  C   UNL     1       7.421   6.933  16.967  0.00  0.00    +0.000 A 
ATOM     11  C   UNL     1       6.584   7.174  18.028  0.00  0.00    +0.000 A 
ATOM     12  C   UNL     1       5.367   6.504  18.052  0.00  0.00    +0.000 A 
ATOM     13  C   UNL     1       5.055   5.514  17.093  0.00  0.00    +0.000 A 
BRANCH   8  14
ATOM     14  O   UNL     1       5.531   4.789  14.856  0.00  0.00    +0.000 OA
BRANCH  14  15
ATOM     15  C   UNL     1       6.657   4.217  14.176  0.00  0.00    +0.000 C 
BRANCH  15  16
ATOM     16  C   UNL     1       6.247   3.591  12.850  0.00  0.00    +0.000 C 
BRANCH  16  18
ATOM     17  C   UNL     1       4.313   3.296  11.501  0.00  0.00    +0.000 C 
ATOM     18  O   UNL     1       4.828   3.706  12.759  0.00  0.00    +0.000 OA
ENDBRANCH  16  18
ENDBRANCH  15  16
ENDBRANCH  14  15
ENDBRANCH   8  14
ENDBRANCH   1  13
BRANCH   7  19
ATOM     19  C   UNL     1       2.450   6.485  18.402  0.00  0.00    +0.000 A 
ATOM     20  C   UNL     1       2.250   7.359  17.327  0.00  0.00    +0.000 A 
ATOM     21  C   UNL     1       1.813   8.666  17.550  0.00  0.00    +0.000 A 
ATOM     22  C   UNL     1       1.597   9.140  18.851  0.00  0.00    +0.000 A 
ATOM     23  C   UNL     1       1.863   8.277  19.924  0.00  0.00    +0.000 A 
ATOM     24  C   UNL     1       2.306   6.964  19.706  0.00  0.00    +0.000 A 
BRANCH  22  25
ATOM     25  C   UNL     1       1.116  10.505  19.060  0.00  0.00    +0.000 A 
ATOM     26  C   UNL     1       1.660  11.759  18.848  0.00  0.00    +0.000 A 
ATOM     27  C   UNL     1       0.704  12.703  19.292  0.00  0.00    +0.000 A 
ATOM     28  C   UNL     1      -0.375  11.976  19.739  0.00  0.00    +0.000 A 
ATOM     29  C   UNL     1      -1.672  12.349  20.335  0.00  0.00    +0.000 C 
ATOM     30  O   UNL     1      -0.137  10.643  19.592  0.00  0.00    +0.000 OA
ENDBRANCH  22  25
ENDBRANCH   7  19
BRANCH   2  31
ATOM     31  C   UNL     1       4.682   2.978  19.185  0.00  0.00    +0.000 C 
ATOM     32  O   UNL     1       5.656   3.673  19.486  0.00  0.00    +0.000 OA
BRANCH  31  33
ATOM     33  C   UNL     1       4.080   2.026  20.222  0.00  0.00    +0.000 C 
ATOM     34  C   UNL     1       5.214   1.252  20.886  0.00  0.00    +0.000 C 
ATOM     35  C   UNL     1       3.163   2.660  21.262  0.00  0.00    +0.000 C 
ENDBRANCH  31  33
ENDBRANCH   2  31
TORSDOF 9
ENDMDL
MODEL 3
REMARK VINA RESULT:      -6.9      6.412     11.417
REMARK  Name = 
REMARK  13 active torsions:
REMARK  status: ('A' for Active; 'I' for Inactive)
REMARK    1  A    between atoms: C_1  and  O_2
REMARK    2  A    between atoms: O_2  and  C_3
REMARK    3  A    between atoms: C_3  and  C_4
REMARK    4  A    between atoms: C_4  and  O_5
REMARK    5  A    between atoms: O_5  and  C_6
REMARK    6  A    between atoms: C_11  and  C_12
REMARK    7  A    between atoms: C_13  and  C_14
REMARK    8  A    between atoms: C_14  and  C_16
REMARK    9  A    between atoms: C_16  and  C_17
REMARK   10  A    between atoms: C_16  and  C_18
REMARK   11  A    between atoms: N_23  and  C_24
REMARK   12  A    between atoms: C_27  and  C_28
REMARK   13  A    between atoms: C_31  and  C_32
REMARK                            x       y       z     vdW  Elec       q    Type
REMARK                         _______ _______ _______ _____ _____    ______ ____
ROOT
ATOM      1  C   UNL     1       9.132  14.770  18.868  0.00  0.00    +0.000 C 
ATOM      2  C   UNL     1      10.303  15.778  18.960  0.00  0.00    +0.000 C 
ATOM      3  C   UNL     1      10.971  15.441  17.658  0.00  0.00    +0.000 C 
ATOM      4  O   UNL     1      11.627  16.196  16.960  0.00  0.00    +0.000 OA
ATOM      5  C   UNL     1      10.745  13.958  17.368  0.00  0.00    +0.000 C 
ATOM      6  O   UNL     1      11.399  13.320  16.570  0.00  0.00    +0.000 OA
ATOM      7  N   UNL     1       9.753  13.577  18.250  0.00  0.00    +0.000 N 
ENDROOT
BRANCH   1  13
ATOM      8  C   UNL     1       6.791  14.960  19.985  0.00  0.00    +0.000 A 
ATOM      9  N   UNL     1       6.003  14.941  21.089  0.00  0.00    +0.000 NA
ATOM     10  C   UNL     1       6.542  14.554  22.257  0.00  0.00    +0.000 A 
ATOM     11  C   UNL     1       7.806  14.027  22.354  0.00  0.00    +0.000 A 
ATOM     12  C   UNL     1       8.576  13.986  21.197  0.00  0.00    +0.000 A 
ATOM     13  C   UNL     1       8.128  14.582  19.997  0.00  0.00    +0.000 A 
BRANCH   8  14
ATOM     14  O   UNL     1       6.158  15.226  18.790  0.00  0.00    +0.000 OA
BRANCH  14  15
ATOM     15  C   UNL     1       4.772  15.539  18.983  0.00  0.00    +0.000 C 
BRANCH  15  16
ATOM     16  C   UNL     1       3.878  14.695  18.084  0.00  0.00    +0.000 C 
BRANCH  16  18
ATOM     17  C   UNL     1       2.976  16.818  17.514  0.00  0.00    +0.000 C 
ATOM     18  O   UNL     1       3.411  15.551  17.043  0.00  0.00    +0.000 OA
ENDBRANCH  16  18
ENDBRANCH  15  16
ENDBRANCH  14  15
ENDBRANCH   8  14
ENDBRANCH   1  13
BRANCH   7  19
ATOM     19  C   UNL     1       9.244  12.268  18.309  0.00  0.00    +0.000 A 
ATOM     20  C   UNL     1       8.204  11.884  17.456  0.00  0.00    +0.000 A 
ATOM     21  C   UNL     1       7.800  10.550  17.389  0.00  0.00    +0.000 A 
ATOM     22  C   UNL     1       8.403   9.574  18.195  0.00  0.00    +0.000 A 
ATOM     23  C   UNL     1       9.399   9.981  19.096  0.00  0.00    +0.000 A 
ATOM     24  C   UNL     1       9.806  11.322  19.169  0.00  0.00    +0.000 A 
BRANCH  22  25
ATOM     25  C   UNL     1       7.981   8.178  18.092  0.00  0.00    +0.000 A 
ATOM     26  C   UNL     1       8.276   7.030  18.806  0.00  0.00    +0.000 A 
ATOM     27  C   UNL     1       7.572   5.970  18.187  0.00  0.00    +0.000 A 
ATOM     28  C   UNL     1       6.878   6.528  17.139  0.00  0.00    +0.000 A 
ATOM     29  C   UNL     1       5.984   5.973  16.105  0.00  0.00    +0.000 C 
ATOM     30  O   UNL     1       7.113   7.868  17.082  0.00  0.00    +0.000 OA
ENDBRANCH  22  25
ENDBRANCH   7  19
BRANCH   2  31
ATOM     31  C   UNL     1      11.302  15.514  20.078  0.00  0.00    +0.000 C 
ATOM     32  O   UNL     1      11.988  14.488  20.069  0.00  0.00    +0.000 OA
BRANCH  31  33
ATOM     33  C   UNL     1      11.543  16.579  21.151  0.00  0.00    +0.000 C 
ATOM     34  C   UNL     1      10.992  17.909  20.646  0.00  0.00    +0.000 C 
ATOM     35  C   UNL     1      11.016  16.258  22.545  0.00  0.00    +0.000 C 
ENDBRANCH  31  33
ENDBRANCH   2  31
TORSDOF 9
ENDMDL
MODEL 4
REMARK VINA RESULT:      -6.8      1.092      1.259
REMARK  Name = 
REMARK  13 active torsions:
REMARK  status: ('A' for Active; 'I' for Inactive)
REMARK    1  A    between atoms: C_1  and  O_2
REMARK    2  A    between atoms: O_2  and  C_3
REMARK    3  A    between atoms: C_3  and  C_4
REMARK    4  A    between atoms: C_4  and  O_5
REMARK    5  A    between atoms: O_5  and  C_6
REMARK    6  A    between atoms: C_11  and  C_12
REMARK    7  A    between atoms: C_13  and  C_14
REMARK    8  A    between atoms: C_14  and  C_16
REMARK    9  A    between atoms: C_16  and  C_17
REMARK   10  A    between atoms: C_16  and  C_18
REMARK   11  A    between atoms: N_23  and  C_24
REMARK   12  A    between atoms: C_27  and  C_28
REMARK   13  A    between atoms: C_31  and  C_32
REMARK                            x       y       z     vdW  Elec       q    Type
REMARK                         _______ _______ _______ _____ _____    ______ ____
ROOT
ATOM      1  C   UNL     1       3.862   4.581  17.405  0.00  0.00    +0.000 C 
ATOM      2  C   UNL     1       3.995   3.114  17.880  0.00  0.00    +0.000 C 
ATOM      3  C   UNL     1       2.532   2.814  18.043  0.00  0.00    +0.000 C 
ATOM      4  O   UNL     1       1.995   1.726  17.919  0.00  0.00    +0.000 OA
ATOM      5  C   UNL     1       1.818   4.100  18.454  0.00  0.00    +0.000 C 
ATOM      6  O   UNL     1       0.710   4.127  18.949  0.00  0.00    +0.000 OA
ATOM      7  N   UNL     1       2.735   5.102  18.210  0.00  0.00    +0.000 N 
ENDROOT
BRANCH   1  13
ATOM      8  C   UNL     1       5.828   5.535  15.995  0.00  0.00    +0.000 A 
ATOM      9  N   UNL     1       7.006   6.203  15.909  0.00  0.00    +0.000 NA
ATOM     10  C   UNL     1       7.476   6.821  17.005  0.00  0.00    +0.000 A 
ATOM     11  C   UNL     1       6.746   6.941  18.161  0.00  0.00    +0.000 A 
ATOM     12  C   UNL     1       5.508   6.311  18.208  0.00  0.00    +0.000 A 
ATOM     13  C   UNL     1       5.072   5.470  17.159  0.00  0.00    +0.000 A 
BRANCH   8  14
ATOM     14  O   UNL     1       5.320   5.042  14.812  0.00  0.00    +0.000 OA
BRANCH  14  15
ATOM     15  C   UNL     1       6.092   3.936  14.324  0.00  0.00    +0.000 C 
BRANCH  15  16
ATOM     16  C   UNL     1       5.694   3.562  12.902  0.00  0.00    +0.000 C 
BRANCH  16  18
ATOM     17  C   UNL     1       7.456   4.858  11.974  0.00  0.00    +0.000 C 
ATOM     18  O   UNL     1       6.890   3.565  12.124  0.00  0.00    +0.000 OA
ENDBRANCH  16  18
ENDBRANCH  15  16
ENDBRANCH  14  15
ENDBRANCH   8  14
ENDBRANCH   1  13
BRANCH   7  19
ATOM     19  C   UNL     1       2.468   6.460  18.456  0.00  0.00    +0.000 A 
ATOM     20  C   UNL     1       2.336   7.352  17.385  0.00  0.00    +0.000 A 
ATOM     21  C   UNL     1       1.912   8.663  17.605  0.00  0.00    +0.000 A 
ATOM     22  C   UNL     1       1.639   9.124  18.900  0.00  0.00    +0.000 A 
ATOM     23  C   UNL     1       1.837   8.242  19.973  0.00  0.00    +0.000 A 
ATOM     24  C   UNL     1       2.267   6.924  19.758  0.00  0.00    +0.000 A 
BRANCH  22  25
ATOM     25  C   UNL     1       1.172  10.494  19.105  0.00  0.00    +0.000 A 
ATOM     26  C   UNL     1       0.067  11.050  19.723  0.00  0.00    +0.000 A 
ATOM     27  C   UNL     1       0.162  12.452  19.553  0.00  0.00    +0.000 A 
ATOM     28  C   UNL     1       1.324  12.677  18.852  0.00  0.00    +0.000 A 
ATOM     29  C   UNL     1       1.982  13.895  18.343  0.00  0.00    +0.000 C 
ATOM     30  O   UNL     1       1.947  11.495  18.586  0.00  0.00    +0.000 OA
ENDBRANCH  22  25
ENDBRANCH   7  19
BRANCH   2  31
ATOM     31  C   UNL     1       4.661   2.928  19.237  0.00  0.00    +0.000 C 
ATOM     32  O   UNL     1       5.635   3.619  19.550  0.00  0.00    +0.000 OA
BRANCH  31  33
ATOM     33  C   UNL     1       4.049   1.969  20.261  0.00  0.00    +0.000 C 
ATOM     34  C   UNL     1       5.177   1.190  20.930  0.00  0.00    +0.000 C 
ATOM     35  C   UNL     1       3.123   2.597  21.297  0.00  0.00    +0.000 C 
ENDBRANCH  31  33
ENDBRANCH   2  31
TORSDOF 9
ENDMDL
MODEL 5
REMARK VINA RESULT:      -6.8      2.066      5.405
REMARK  Name = 
REMARK  13 active torsions:
REMARK  status: ('A' for Active; 'I' for Inactive)
REMARK    1  A    between atoms: C_1  and  O_2
REMARK    2  A    between atoms: O_2  and  C_3
REMARK    3  A    between atoms: C_3  and  C_4
REMARK    4  A    between atoms: C_4  and  O_5
REMARK    5  A    between atoms: O_5  and  C_6
REMARK    6  A    between atoms: C_11  and  C_12
REMARK    7  A    between atoms: C_13  and  C_14
REMARK    8  A    between atoms: C_14  and  C_16
REMARK    9  A    between atoms: C_16  and  C_17
REMARK   10  A    between atoms: C_16  and  C_18
REMARK   11  A    between atoms: N_23  and  C_24
REMARK   12  A    between atoms: C_27  and  C_28
REMARK   13  A    between atoms: C_31  and  C_32
REMARK                            x       y       z     vdW  Elec       q    Type
REMARK                         _______ _______ _______ _____ _____    ______ ____
ROOT
ATOM      1  C   UNL     1       4.516   4.649  18.592  0.00  0.00    +0.000 C 
ATOM      2  C   UNL     1       5.635   4.098  17.674  0.00  0.00    +0.000 C 
ATOM      3  C   UNL     1       6.575   5.266  17.767  0.00  0.00    +0.000 C 
ATOM      4  O   UNL     1       7.790   5.230  17.672  0.00  0.00    +0.000 OA
ATOM      5  C   UNL     1       5.749   6.539  17.942  0.00  0.00    +0.000 C 
ATOM      6  O   UNL     1       6.182   7.655  17.745  0.00  0.00    +0.000 OA
ATOM      7  N   UNL     1       4.483   6.092  18.264  0.00  0.00    +0.000 N 
ENDROOT
BRANCH   1  13
ATOM      8  C   UNL     1       2.964   2.923  19.763  0.00  0.00    +0.000 A 
ATOM      9  N   UNL     1       1.836   2.168  19.781  0.00  0.00    +0.000 NA
ATOM     10  C   UNL     1       0.913   2.370  18.826  0.00  0.00    +0.000 A 
ATOM     11  C   UNL     1       0.983   3.407  17.930  0.00  0.00    +0.000 A 
ATOM     12  C   UNL     1       2.112   4.217  17.973  0.00  0.00    +0.000 A 
ATOM     13  C   UNL     1       3.205   3.908  18.814  0.00  0.00    +0.000 A 
BRANCH   8  14
ATOM     14  O   UNL     1       3.810   2.779  20.841  0.00  0.00    +0.000 OA
BRANCH  14  15
ATOM     15  C   UNL     1       4.832   1.805  20.586  0.00  0.00    +0.000 C 
BRANCH  15  16
ATOM     16  C   UNL     1       4.923   0.784  21.712  0.00  0.00    +0.000 C 
BRANCH  16  18
ATOM     17  C   UNL     1       6.751  -0.558  22.423  0.00  0.00    +0.000 C 
ATOM     18  O   UNL     1       6.286   0.751  22.132  0.00  0.00    +0.000 OA
ENDBRANCH  16  18
ENDBRANCH  15  16
ENDBRANCH  14  15
ENDBRANCH   8  14
ENDBRANCH   1  13
BRANCH   7  19
ATOM     19  C   UNL     1       3.405   6.961  18.512  0.00  0.00    +0.000 A 
ATOM     20  C   UNL     1       2.799   6.979  19.773  0.00  0.00    +0.000 A 
ATOM     21  C   UNL     1       1.841   7.945  20.083  0.00  0.00    +0.000 A 
ATOM     22  C   UNL     1       1.443   8.895  19.132  0.00  0.00    +0.000 A 
ATOM     23  C   UNL     1       2.008   8.828  17.850  0.00  0.00    +0.000 A 
ATOM     24  C   UNL     1       2.970   7.856  17.532  0.00  0.00    +0.000 A 
BRANCH  22  25
ATOM     25  C   UNL     1       0.456   9.914  19.485  0.00  0.00    +0.000 A 
ATOM     26  C   UNL     1      -0.382  10.736  18.753  0.00  0.00    +0.000 A 
ATOM     27  C   UNL     1      -1.083  11.542  19.681  0.00  0.00    +0.000 A 
ATOM     28  C   UNL     1      -0.646  11.161  20.929  0.00  0.00    +0.000 A 
ATOM     29  C   UNL     1      -0.961  11.615  22.296  0.00  0.00    +0.000 C 
ATOM     30  O   UNL     1       0.279  10.167  20.818  0.00  0.00    +0.000 OA
ENDBRANCH  22  25
ENDBRANCH   7  19
BRANCH   2  31
ATOM     31  C   UNL     1       5.249   3.926  16.211  0.00  0.00    +0.000 C 
ATOM     32  O   UNL     1       4.302   3.198  15.900  0.00  0.00    +0.000 OA
BRANCH  31  33
ATOM     33  C   UNL     1       5.958   4.751  15.134  0.00  0.00    +0.000 C 
ATOM     34  C   UNL     1       6.253   3.843  13.944  0.00  0.00    +0.000 C 
ATOM     35  C   UNL     1       5.251   6.027  14.692  0.00  0.00    +0.000 C 
ENDBRANCH  31  33
ENDBRANCH   2  31
TORSDOF 9
ENDMDL
MODEL 6
REMARK VINA RESULT:      -6.7      2.116      5.310
REMARK  Name = 
REMARK  13 active torsions:
REMARK  status: ('A' for Active; 'I' for Inactive)
REMARK    1  A    between atoms: C_1  and  O_2
REMARK    2  A    between atoms: O_2  and  C_3
REMARK    3  A    between atoms: C_3  and  C_4
REMARK    4  A    between atoms: C_4  and  O_5
REMARK    5  A    between atoms: O_5  and  C_6
REMARK    6  A    between atoms: C_11  and  C_12
REMARK    7  A    between atoms: C_13  and  C_14
REMARK    8  A    between atoms: C_14  and  C_16
REMARK    9  A    between atoms: C_16  and  C_17
REMARK   10  A    between atoms: C_16  and  C_18
REMARK   11  A    between atoms: N_23  and  C_24
REMARK   12  A    between atoms: C_27  and  C_28
REMARK   13  A    between atoms: C_31  and  C_32
REMARK                            x       y       z     vdW  Elec       q    Type
REMARK                         _______ _______ _______ _____ _____    ______ ____
ROOT
ATOM      1  C   UNL     1       4.524   4.595  18.598  0.00  0.00    +0.000 C 
ATOM      2  C   UNL     1       5.598   3.928  17.704  0.00  0.00    +0.000 C 
ATOM      3  C   UNL     1       6.659   4.984  17.829  0.00  0.00    +0.000 C 
ATOM      4  O   UNL     1       7.865   4.815  17.765  0.00  0.00    +0.000 OA
ATOM      5  C   UNL     1       5.974   6.340  17.993  0.00  0.00    +0.000 C 
ATOM      6  O   UNL     1       6.533   7.403  17.815  0.00  0.00    +0.000 OA
ATOM      7  N   UNL     1       4.659   6.034  18.280  0.00  0.00    +0.000 N 
ENDROOT
BRANCH   1  13
ATOM      8  C   UNL     1       2.719   3.175  19.817  0.00  0.00    +0.000 A 
ATOM      9  N   UNL     1       1.527   2.527  19.819  0.00  0.00    +0.000 NA
ATOM     10  C   UNL     1       0.712   2.677  18.762  0.00  0.00    +0.000 A 
ATOM     11  C   UNL     1       0.959   3.576  17.755  0.00  0.00    +0.000 A 
ATOM     12  C   UNL     1       2.152   4.287  17.806  0.00  0.00    +0.000 A 
ATOM     13  C   UNL     1       3.134   4.003  18.781  0.00  0.00    +0.000 A 
BRANCH   8  14
ATOM     14  O   UNL     1       3.452   3.105  20.983  0.00  0.00    +0.000 OA
BRANCH  14  15
ATOM     15  C   UNL     1       3.748   1.748  21.341  0.00  0.00    +0.000 C 
BRANCH  15  16
ATOM     16  C   UNL     1       5.140   1.340  20.875  0.00  0.00    +0.000 C 
BRANCH  16  18
ATOM     17  C   UNL     1       6.382  -0.235  22.150  0.00  0.00    +0.000 C 
ATOM     18  O   UNL     1       5.915   1.102  22.050  0.00  0.00    +0.000 OA
ENDBRANCH  16  18
ENDBRANCH  15  16
ENDBRANCH  14  15
ENDBRANCH   8  14
ENDBRANCH   1  13
BRANCH   7  19
ATOM     19  C   UNL     1       3.678   7.015  18.507  0.00  0.00    +0.000 A 
ATOM     20  C   UNL     1       3.356   7.929  17.496  0.00  0.00    +0.000 A 
ATOM     21  C   UNL     1       2.276   8.799  17.647  0.00  0.00    +0.000 A 
ATOM     22  C   UNL     1       1.511   8.801  18.822  0.00  0.00    +0.000 A 
ATOM     23  C   UNL     1       1.881   7.927  19.855  0.00  0.00    +0.000 A 
ATOM     24  C   UNL     1       2.969   7.052  19.710  0.00  0.00    +0.000 A 
BRANCH  22  25
ATOM     25  C   UNL     1       0.369   9.704  18.949  0.00  0.00    +0.000 A 
ATOM     26  C   UNL     1      -0.160  10.442  19.992  0.00  0.00    +0.000 A 
ATOM     27  C   UNL     1      -1.311  11.097  19.491  0.00  0.00    +0.000 A 
ATOM     28  C   UNL     1      -1.415  10.733  18.168  0.00  0.00    +0.000 A 
ATOM     29  C   UNL     1      -2.385  11.048  17.102  0.00  0.00    +0.000 C 
ATOM     30  O   UNL     1      -0.393   9.897  17.830  0.00  0.00    +0.000 OA
ENDBRANCH  22  25
ENDBRANCH   7  19
BRANCH   2  31
ATOM     31  C   UNL     1       5.234   3.806  16.231  0.00  0.00    +0.000 C 
ATOM     32  O   UNL     1       4.291   3.091  15.882  0.00  0.00    +0.000 OA
BRANCH  31  33
ATOM     33  C   UNL     1       5.960   4.666  15.194  0.00  0.00    +0.000 C 
ATOM     34  C   UNL     1       6.272   3.799  13.978  0.00  0.00    +0.000 C 
ATOM     35  C   UNL     1       5.259   5.957  14.784  0.00  0.00    +0.000 C 
ENDBRANCH  31  33
ENDBRANCH   2  31
TORSDOF 9
ENDMDL
MODEL 7
REMARK VINA RESULT:      -6.6      4.561     10.595
REMARK  Name = 
REMARK  13 active torsions:
REMARK  status: ('A' for Active; 'I' for Inactive)
REMARK    1  A    between atoms: C_1  and  O_2
REMARK    2  A    between atoms: O_2  and  C_3
REMARK    3  A    between atoms: C_3  and  C_4
REMARK    4  A    between atoms: C_4  and  O_5
REMARK    5  A    between atoms: O_5  and  C_6
REMARK    6  A    between atoms: C_11  and  C_12
REMARK    7  A    between atoms: C_13  and  C_14
REMARK    8  A    between atoms: C_14  and  C_16
REMARK    9  A    between atoms: C_16  and  C_17
REMARK   10  A    between atoms: C_16  and  C_18
REMARK   11  A    between atoms: N_23  and  C_24
REMARK   12  A    between atoms: C_27  and  C_28
REMARK   13  A    between atoms: C_31  and  C_32
REMARK                            x       y       z     vdW  Elec       q    Type
REMARK                         _______ _______ _______ _____ _____    ______ ____
ROOT
ATOM      1  C   UNL     1      -0.962  12.601  19.639  0.00  0.00    +0.000 C 
ATOM      2  C   UNL     1      -1.324  13.496  20.849  0.00  0.00    +0.000 C 
ATOM      3  C   UNL     1       0.069  13.916  21.222  0.00  0.00    +0.000 C 
ATOM      4  O   UNL     1       0.394  14.963  21.756  0.00  0.00    +0.000 OA
ATOM      5  C   UNL     1       1.026  12.778  20.876  0.00  0.00    +0.000 C 
ATOM      6  O   UNL     1       2.150  12.682  21.324  0.00  0.00    +0.000 OA
ATOM      7  N   UNL     1       0.289  11.935  20.067  0.00  0.00    +0.000 N 
ENDROOT
BRANCH   1  13
ATOM      8  C   UNL     1      -3.384  11.870  19.040  0.00  0.00    +0.000 A 
ATOM      9  N   UNL     1      -4.248  10.991  18.471  0.00  0.00    +0.000 NA
ATOM     10  C   UNL     1      -3.749   9.990  17.728  0.00  0.00    +0.000 A 
ATOM     11  C   UNL     1      -2.422   9.907  17.387  0.00  0.00    +0.000 A 
ATOM     12  C   UNL     1      -1.561  10.859  17.920  0.00  0.00    +0.000 A 
ATOM     13  C   UNL     1      -2.007  11.797  18.878  0.00  0.00    +0.000 A 
BRANCH   8  14
ATOM     14  O   UNL     1      -3.950  12.958  19.671  0.00  0.00    +0.000 OA
BRANCH  14  15
ATOM     15  C   UNL     1      -5.383  12.908  19.629  0.00  0.00    +0.000 C 
BRANCH  15  16
ATOM     16  C   UNL     1      -5.985  13.005  21.025  0.00  0.00    +0.000 C 
BRANCH  16  18
ATOM     17  C   UNL     1      -7.359  11.118  20.575  0.00  0.00    +0.000 C 
ATOM     18  O   UNL     1      -6.356  11.681  21.408  0.00  0.00    +0.000 OA
ENDBRANCH  16  18
ENDBRANCH  15  16
ENDBRANCH  14  15
ENDBRANCH   8  14
ENDBRANCH   1  13
BRANCH   7  19
ATOM     19  C   UNL     1       0.810  10.748  19.523  0.00  0.00    +0.000 A 
ATOM     20  C   UNL     1       1.557  10.792  18.340  0.00  0.00    +0.000 A 
ATOM     21  C   UNL     1       2.215   9.652  17.877  0.00  0.00    +0.000 A 
ATOM     22  C   UNL     1       2.118   8.435  18.565  0.00  0.00    +0.000 A 
ATOM     23  C   UNL     1       1.313   8.385  19.714  0.00  0.00    +0.000 A 
ATOM     24  C   UNL     1       0.647   9.528  20.182  0.00  0.00    +0.000 A 
BRANCH  22  25
ATOM     25  C   UNL     1       2.835   7.259  18.076  0.00  0.00    +0.000 A 
ATOM     26  C   UNL     1       4.050   7.068  17.444  0.00  0.00    +0.000 A 
ATOM     27  C   UNL     1       4.169   5.681  17.189  0.00  0.00    +0.000 A 
ATOM     28  C   UNL     1       3.027   5.099  17.690  0.00  0.00    +0.000 A 
ATOM     29  C   UNL     1       2.529   3.711  17.728  0.00  0.00    +0.000 C 
ATOM     30  O   UNL     1       2.219   6.048  18.239  0.00  0.00    +0.000 OA
ENDBRANCH  22  25
ENDBRANCH   7  19
BRANCH   2  31
ATOM     31  C   UNL     1      -1.926  12.766  22.041  0.00  0.00    +0.000 C 
ATOM     32  O   UNL     1      -1.821  11.540  22.137  0.00  0.00    +0.000 OA
BRANCH  31  33
ATOM     33  C   UNL     1      -2.556  13.565  23.184  0.00  0.00    +0.000 C 
ATOM     34  C   UNL     1      -2.984  14.927  22.646  0.00  0.00    +0.000 C 
ATOM     35  C   UNL     1      -3.699  12.884  23.928  0.00  0.00    +0.000 C 
ENDBRANCH  31  33
ENDBRANCH   2  31
TORSDOF 9
ENDMDL
MODEL 8
REMARK VINA RESULT:      -6.5      2.099      5.412
REMARK  Name = 
REMARK  13 active torsions:
REMARK  status: ('A' for Active; 'I' for Inactive)
REMARK    1  A    between atoms: C_1  and  O_2
REMARK    2  A    between atoms: O_2  and  C_3
REMARK    3  A    between atoms: C_3  and  C_4
REMARK    4  A    between atoms: C_4  and  O_5
REMARK    5  A    between atoms: O_5  and  C_6
REMARK    6  A    between atoms: C_11  and  C_12
REMARK    7  A    between atoms: C_13  and  C_14
REMARK    8  A    between atoms: C_14  and  C_16
REMARK    9  A    between atoms: C_16  and  C_17
REMARK   10  A    between atoms: C_16  and  C_18
REMARK   11  A    between atoms: N_23  and  C_24
REMARK   12  A    between atoms: C_27  and  C_28
REMARK   13  A    between atoms: C_31  and  C_32
REMARK                            x       y       z     vdW  Elec       q    Type
REMARK                         _______ _______ _______ _____ _____    ______ ____
ROOT
ATOM      1  C   UNL     1       4.789   4.620  18.402  0.00  0.00    +0.000 C 
ATOM      2  C   UNL     1       5.901   4.107  17.455  0.00  0.00    +0.000 C 
ATOM      3  C   UNL     1       6.794   5.314  17.510  0.00  0.00    +0.000 C 
ATOM      4  O   UNL     1       8.006   5.327  17.378  0.00  0.00    +0.000 OA
ATOM      5  C   UNL     1       5.922   6.553  17.700  0.00  0.00    +0.000 C 
ATOM      6  O   UNL     1       6.302   7.684  17.481  0.00  0.00    +0.000 OA
ATOM      7  N   UNL     1       4.685   6.058  18.064  0.00  0.00    +0.000 N 
ENDROOT
BRANCH   1  13
ATOM      8  C   UNL     1       3.357   2.811  19.603  0.00  0.00    +0.000 A 
ATOM      9  N   UNL     1       2.259   2.017  19.658  0.00  0.00    +0.000 NA
ATOM     10  C   UNL     1       1.282   2.209  18.756  0.00  0.00    +0.000 A 
ATOM     11  C   UNL     1       1.271   3.270  17.886  0.00  0.00    +0.000 A 
ATOM     12  C   UNL     1       2.373   4.118  17.892  0.00  0.00    +0.000 A 
ATOM     13  C   UNL     1       3.517   3.828  18.670  0.00  0.00    +0.000 A 
BRANCH   8  14
ATOM     14  O   UNL     1       4.262   2.671  20.634  0.00  0.00    +0.000 OA
BRANCH  14  15
ATOM     15  C   UNL     1       4.962   1.421  20.557  0.00  0.00    +0.000 C 
BRANCH  15  16
ATOM     16  C   UNL     1       5.015   0.728  21.913  0.00  0.00    +0.000 C 
BRANCH  16  18
ATOM     17  C   UNL     1       6.711  -0.880  22.342  0.00  0.00    +0.000 C 
ATOM     18  O   UNL     1       6.392   0.497  22.206  0.00  0.00    +0.000 OA
ENDBRANCH  16  18
ENDBRANCH  15  16
ENDBRANCH  14  15
ENDBRANCH   8  14
ENDBRANCH   1  13
BRANCH   7  19
ATOM     19  C   UNL     1       3.581   6.883  18.337  0.00  0.00    +0.000 A 
ATOM     20  C   UNL     1       3.009   6.884  19.614  0.00  0.00    +0.000 A 
ATOM     21  C   UNL     1       2.021   7.813  19.946  0.00  0.00    +0.000 A 
ATOM     22  C   UNL     1       1.559   8.740  19.002  0.00  0.00    +0.000 A 
ATOM     23  C   UNL     1       2.091   8.688  17.705  0.00  0.00    +0.000 A 
ATOM     24  C   UNL     1       3.082   7.754  17.365  0.00  0.00    +0.000 A 
BRANCH  22  25
ATOM     25  C   UNL     1       0.541   9.720  19.377  0.00  0.00    +0.000 A 
ATOM     26  C   UNL     1       0.180  10.322  20.569  0.00  0.00    +0.000 A 
ATOM     27  C   UNL     1      -0.922  11.164  20.287  0.00  0.00    +0.000 A 
ATOM     28  C   UNL     1      -1.167  11.040  18.939  0.00  0.00    +0.000 A 
ATOM     29  C   UNL     1      -2.172  11.626  18.032  0.00  0.00    +0.000 C 
ATOM     30  O   UNL     1      -0.277  10.174  18.379  0.00  0.00    +0.000 OA
ENDBRANCH  22  25
ENDBRANCH   7  19
BRANCH   2  31
ATOM     31  C   UNL     1       5.479   3.905  16.006  0.00  0.00    +0.000 C 
ATOM     32  O   UNL     1       4.586   3.101  15.725  0.00  0.00    +0.000 OA
BRANCH  31  33
ATOM     33  C   UNL     1       6.077   4.789  14.909  0.00  0.00    +0.000 C 
ATOM     34  C   UNL     1       6.428   3.908  13.714  0.00  0.00    +0.000 C 
ATOM     35  C   UNL     1       5.238   5.988  14.482  0.00  0.00    +0.000 C 
ENDBRANCH  31  33
ENDBRANCH   2  31
TORSDOF 9
ENDMDL
MODEL 9
REMARK VINA RESULT:      -6.5      6.731     11.686
REMARK  Name = 
REMARK  13 active torsions:
REMARK  status: ('A' for Active; 'I' for Inactive)
REMARK    1  A    between atoms: C_1  and  O_2
REMARK    2  A    between atoms: O_2  and  C_3
REMARK    3  A    between atoms: C_3  and  C_4
REMARK    4  A    between atoms: C_4  and  O_5
REMARK    5  A    between atoms: O_5  and  C_6
REMARK    6  A    between atoms: C_11  and  C_12
REMARK    7  A    between atoms: C_13  and  C_14
REMARK    8  A    between atoms: C_14  and  C_16
REMARK    9  A    between atoms: C_16  and  C_17
REMARK   10  A    between atoms: C_16  and  C_18
REMARK   11  A    between atoms: N_23  and  C_24
REMARK   12  A    between atoms: C_27  and  C_28
REMARK   13  A    between atoms: C_31  and  C_32
REMARK                            x       y       z     vdW  Elec       q    Type
REMARK                         _______ _______ _______ _____ _____    ______ ____
ROOT
ATOM      1  C   UNL     1       9.385  15.052  18.974  0.00  0.00    +0.000 C 
ATOM      2  C   UNL     1      10.569  16.048  19.020  0.00  0.00    +0.000 C 
ATOM      3  C   UNL     1      11.136  15.761  17.660  0.00  0.00    +0.000 C 
ATOM      4  O   UNL     1      11.746  16.540  16.947  0.00  0.00    +0.000 OA
ATOM      5  C   UNL     1      10.875  14.293  17.327  0.00  0.00    +0.000 C 
ATOM      6  O   UNL     1      11.462  13.685  16.456  0.00  0.00    +0.000 OA
ATOM      7  N   UNL     1       9.947  13.882  18.263  0.00  0.00    +0.000 N 
ENDROOT
BRANCH   1  13
ATOM      8  C   UNL     1       7.097  15.057  20.210  0.00  0.00    +0.000 A 
ATOM      9  N   UNL     1       6.371  15.017  21.356  0.00  0.00    +0.000 NA
ATOM     10  C   UNL     1       7.008  14.756  22.510  0.00  0.00    +0.000 A 
ATOM     11  C   UNL     1       8.324  14.373  22.563  0.00  0.00    +0.000 A 
ATOM     12  C   UNL     1       9.035  14.347  21.368  0.00  0.00    +0.000 A 
ATOM     13  C   UNL     1       8.465  14.824  20.166  0.00  0.00    +0.000 A 
BRANCH   8  14
ATOM     14  O   UNL     1       6.379  15.185  19.039  0.00  0.00    +0.000 OA
BRANCH  14  15
ATOM     15  C   UNL     1       5.490  16.310  19.084  0.00  0.00    +0.000 C 
BRANCH  15  16
ATOM     16  C   UNL     1       4.230  16.057  18.266  0.00  0.00    +0.000 C 
BRANCH  16  18
ATOM     17  C   UNL     1       3.105  14.000  18.653  0.00  0.00    +0.000 C 
ATOM     18  O   UNL     1       4.183  14.656  18.002  0.00  0.00    +0.000 OA
ENDBRANCH  16  18
ENDBRANCH  15  16
ENDBRANCH  14  15
ENDBRANCH   8  14
ENDBRANCH   1  13
BRANCH   7  19
ATOM     19  C   UNL     1       9.431  12.575  18.306  0.00  0.00    +0.000 A 
ATOM     20  C   UNL     1       8.338  12.229  17.503  0.00  0.00    +0.000 A 
ATOM     21  C   UNL     1       7.920  10.901  17.413  0.00  0.00    +0.000 A 
ATOM     22  C   UNL     1       8.561   9.893  18.146  0.00  0.00    +0.000 A 
ATOM     23  C   UNL     1       9.614  10.260  18.998  0.00  0.00    +0.000 A 
ATOM     24  C   UNL     1      10.036  11.594  19.095  0.00  0.00    +0.000 A 
BRANCH  22  25
ATOM     25  C   UNL     1       8.122   8.504  18.018  0.00  0.00    +0.000 A 
ATOM     26  C   UNL     1       7.388   7.811  17.072  0.00  0.00    +0.000 A 
ATOM     27  C   UNL     1       7.266   6.481  17.539  0.00  0.00    +0.000 A 
ATOM     28  C   UNL     1       7.941   6.431  18.738  0.00  0.00    +0.000 A 
ATOM     29  C   UNL     1       8.173   5.361  19.727  0.00  0.00    +0.000 C 
ATOM     30  O   UNL     1       8.472   7.651  19.028  0.00  0.00    +0.000 OA
ENDBRANCH  22  25
ENDBRANCH   7  19
BRANCH   2  31
ATOM     31  C   UNL     1      11.646  15.730  20.050  0.00  0.00    +0.000 C 
ATOM     32  O   UNL     1      12.253  14.657  20.003  0.00  0.00    +0.000 OA
BRANCH  31  33
ATOM     33  C   UNL     1      12.060  16.793  21.070  0.00  0.00    +0.000 C 
ATOM     34  C   UNL     1      12.329  18.099  20.328  0.00  0.00    +0.000 C 
ATOM     35  C   UNL     1      11.105  17.010  22.238  0.00  0.00    +0.000 C 
ENDBRANCH  31  33
ENDBRANCH   2  31
TORSDOF 9
ENDMDL
