MODEL 1
REMARK VINA RESULT:      -8.3      0.000      0.000
REMARK  Name = 
REMARK  8 active torsions:
REMARK  status: ('A' for Active; 'I' for Inactive)
REMARK    1  A    between atoms: C_1  and  N_2
REMARK    2  A    between atoms: N_2  and  C_3
REMARK    3  A    between atoms: C_3  and  C_4
REMARK    4  A    between atoms: C_10  and  O_12
REMARK    5  A    between atoms: O_12  and  C_13
REMARK    6  A    between atoms: C_16  and  O_17
REMARK    7  A    between atoms: O_17  and  C_18
REMARK    8  A    between atoms: C_21  and  C_22
REMARK                            x       y       z     vdW  Elec       q    Type
REMARK                         _______ _______ _______ _____ _____    ______ ____
ROOT
ATOM      1  C   UNL     1       2.304   6.663  19.739  0.00  0.00    +0.000 A 
ATOM      2  C   UNL     1       1.637   7.513  20.620  0.00  0.00    +0.000 A 
ATOM      3  C   UNL     1       1.219   8.773  20.174  0.00  0.00    +0.000 A 
ATOM      4  C   UNL     1       1.483   9.180  18.861  0.00  0.00    +0.000 A 
ATOM      5  C   UNL     1       2.114   8.297  17.980  0.00  0.00    +0.000 A 
ATOM      6  C   UNL     1       2.562   7.058  18.429  0.00  0.00    +0.000 A 
ENDROOT
BRANCH   1   7
ATOM      7  O   UNL     1       2.814   5.458  20.257  0.00  0.00    +0.000 OA
BRANCH   7  10
ATOM      8  C   UNL     1       2.433   2.080  18.931  0.00  0.00    +0.000 C 
ATOM      9  N   UNL     1       3.030   3.275  19.491  0.00  0.00    +0.000 N 
ATOM     10  C   UNL     1       2.162   4.278  19.898  0.00  0.00    +0.000 C 
ATOM     11  O   UNL     1       0.941   4.134  19.913  0.00  0.00    +0.000 OA
BRANCH   9  12
ATOM     12  C   UNL     1       4.479   3.427  19.463  0.00  0.00    +0.000 C 
BRANCH  12  13
ATOM     13  C   UNL     1       5.015   4.314  18.363  0.00  0.00    +0.000 A 
ATOM     14  C   UNL     1       4.592   4.139  17.036  0.00  0.00    +0.000 A 
ATOM     15  C   UNL     1       5.011   5.011  16.027  0.00  0.00    +0.000 A 
ATOM     16  C   UNL     1       5.859   6.072  16.331  0.00  0.00    +0.000 A 
ATOM     17  C   UNL     1       6.301   6.251  17.641  0.00  0.00    +0.000 A 
ATOM     18  C   UNL     1       5.888   5.375  18.650  0.00  0.00    +0.000 A 
ENDBRANCH  12  13
ENDBRANCH   9  12
ENDBRANCH   7  10
ENDBRANCH   1   7
BRANCH   4  19
ATOM     19  O   UNL     1       1.049  10.439  18.497  0.00  0.00    +0.000 OA
BRANCH  19  20
ATOM     20  C   UNL     1      -0.323  10.659  18.447  0.00  0.00    +0.000 A 
ATOM     21  C   UNL     1      -1.055   9.883  17.563  0.00  0.00    +0.000 A 
ATOM     22  C   UNL     1      -2.420  10.141  17.433  0.00  0.00    +0.000 A 
ATOM     23  C   UNL     1      -3.008  11.162  18.188  0.00  0.00    +0.000 A 
ATOM     24  C   UNL     1      -2.198  11.847  19.081  0.00  0.00    +0.000 A 
ATOM     25  N   UNL     1      -0.879  11.606  19.240  0.00  0.00    +0.000 NA
BRANCH  23  26
ATOM     26  C   UNL     1      -4.447  11.552  18.063  0.00  0.00    +0.000 C 
ATOM     27  F   UNL     1      -4.755  12.119  16.864  0.00  0.00    +0.000 F 
ATOM     28  F   UNL     1      -5.290  10.493  18.203  0.00  0.00    +0.000 F 
ATOM     29  F   UNL     1      -4.824  12.455  19.010  0.00  0.00    +0.000 F 
ENDBRANCH  23  26
ENDBRANCH  19  20
ENDBRANCH   4  19
TORSDOF 7
ENDMDL
MODEL 2
REMARK VINA RESULT:      -8.2      0.070      1.133
REMARK  Name = 
REMARK  8 active torsions:
REMARK  status: ('A' for Active; 'I' for Inactive)
REMARK    1  A    between atoms: C_1  and  N_2
REMARK    2  A    between atoms: N_2  and  C_3
REMARK    3  A    between atoms: C_3  and  C_4
REMARK    4  A    between atoms: C_10  and  O_12
REMARK    5  A    between atoms: O_12  and  C_13
REMARK    6  A    between atoms: C_16  and  O_17
REMARK    7  A    between atoms: O_17  and  C_18
REMARK    8  A    between atoms: C_21  and  C_22
REMARK                            x       y       z     vdW  Elec       q    Type
REMARK                         _______ _______ _______ _____ _____    ______ ____
ROOT
ATOM      1  C   UNL     1       2.314   6.688  19.721  0.00  0.00    +0.000 A 
ATOM      2  C   UNL     1       1.651   7.535  20.607  0.00  0.00    +0.000 A 
ATOM      3  C   UNL     1       1.223   8.794  20.166  0.00  0.00    +0.000 A 
ATOM      4  C   UNL     1       1.473   9.202  18.851  0.00  0.00    +0.000 A 
ATOM      5  C   UNL     1       2.101   8.322  17.964  0.00  0.00    +0.000 A 
ATOM      6  C   UNL     1       2.558   7.085  18.408  0.00  0.00    +0.000 A 
ENDROOT
BRANCH   1   7
ATOM      7  O   UNL     1       2.833   5.486  20.234  0.00  0.00    +0.000 OA
BRANCH   7  10
ATOM      8  C   UNL     1       2.417   2.101  18.936  0.00  0.00    +0.000 C 
ATOM      9  N   UNL     1       3.028   3.298  19.476  0.00  0.00    +0.000 N 
ATOM     10  C   UNL     1       2.172   4.305  19.897  0.00  0.00    +0.000 C 
ATOM     11  O   UNL     1       0.951   4.163  19.942  0.00  0.00    +0.000 OA
BRANCH   9  12
ATOM     12  C   UNL     1       4.477   3.447  19.413  0.00  0.00    +0.000 C 
BRANCH  12  13
ATOM     13  C   UNL     1       4.983   4.384  18.341  0.00  0.00    +0.000 A 
ATOM     14  C   UNL     1       5.908   5.393  18.653  0.00  0.00    +0.000 A 
ATOM     15  C   UNL     1       6.451   6.205  17.654  0.00  0.00    +0.000 A 
ATOM     16  C   UNL     1       6.077   6.020  16.326  0.00  0.00    +0.000 A 
ATOM     17  C   UNL     1       5.149   5.033  16.000  0.00  0.00    +0.000 A 
ATOM     18  C   UNL     1       4.599   4.225  17.000  0.00  0.00    +0.000 A 
ENDBRANCH  12  13
ENDBRANCH   9  12
ENDBRANCH   7  10
ENDBRANCH   1   7
BRANCH   4  19
ATOM     19  O   UNL     1       1.030  10.459  18.490  0.00  0.00    +0.000 OA
BRANCH  19  20
ATOM     20  C   UNL     1      -0.343  10.672  18.449  0.00  0.00    +0.000 A 
ATOM     21  C   UNL     1      -1.077   9.887  17.574  0.00  0.00    +0.000 A 
ATOM     22  C   UNL     1      -2.444  10.139  17.452  0.00  0.00    +0.000 A 
ATOM     23  C   UNL     1      -3.032  11.160  18.207  0.00  0.00    +0.000 A 
ATOM     24  C   UNL     1      -2.219  11.853  19.090  0.00  0.00    +0.000 A 
ATOM     25  N   UNL     1      -0.898  11.620  19.241  0.00  0.00    +0.000 NA
BRANCH  23  26
ATOM     26  C   UNL     1      -4.474  11.542  18.089  0.00  0.00    +0.000 C 
ATOM     27  F   UNL     1      -5.326  10.484  18.176  0.00  0.00    +0.000 F 
ATOM     28  F   UNL     1      -4.864  12.417  19.056  0.00  0.00    +0.000 F 
ATOM     29  F   UNL     1      -4.754  12.149  16.903  0.00  0.00    +0.000 F 
ENDBRANCH  23  26
ENDBRANCH  19  20
ENDBRANCH   4  19
TORSDOF 7
ENDMDL
MODEL 3
REMARK VINA RESULT:      -8.1      0.594      1.189
REMARK  Name = 
REMARK  8 active torsions:
REMARK  status: ('A' for Active; 'I' for Inactive)
REMARK    1  A    between atoms: C_1  and  N_2
REMARK    2  A    between atoms: N_2  and  C_3
REMARK    3  A    between atoms: C_3  and  C_4
REMARK    4  A    between atoms: C_10  and  O_12
REMARK    5  A    between atoms: O_12  and  C_13
REMARK    6  A    between atoms: C_16  and  O_17
REMARK    7  A    between atoms: O_17  and  C_18
REMARK    8  A    between atoms: C_21  and  C_22
REMARK                            x       y       z     vdW  Elec       q    Type
REMARK                         _______ _______ _______ _____ _____    ______ ____
ROOT
ATOM      1  C   UNL     1       2.291   6.650  19.750  0.00  0.00    +0.000 A 
ATOM      2  C   UNL     1       1.636   7.488  20.650  0.00  0.00    +0.000 A 
ATOM      3  C   UNL     1       1.232   8.763  20.233  0.00  0.00    +0.000 A 
ATOM      4  C   UNL     1       1.497   9.195  18.929  0.00  0.00    +0.000 A 
ATOM      5  C   UNL     1       2.116   8.324  18.027  0.00  0.00    +0.000 A 
ATOM      6  C   UNL     1       2.550   7.070  18.447  0.00  0.00    +0.000 A 
ENDROOT
BRANCH   1   7
ATOM      7  O   UNL     1       2.787   5.428  20.240  0.00  0.00    +0.000 OA
BRANCH   7  10
ATOM      8  C   UNL     1       2.418   2.092  18.807  0.00  0.00    +0.000 C 
ATOM      9  N   UNL     1       3.009   3.268  19.413  0.00  0.00    +0.000 N 
ATOM     10  C   UNL     1       2.138   4.262  19.834  0.00  0.00    +0.000 C 
ATOM     11  O   UNL     1       0.916   4.122  19.823  0.00  0.00    +0.000 OA
BRANCH   9  12
ATOM     12  C   UNL     1       4.459   3.414  19.416  0.00  0.00    +0.000 C 
BRANCH  12  13
ATOM     13  C   UNL     1       5.017   4.336  18.357  0.00  0.00    +0.000 A 
ATOM     14  C   UNL     1       4.593   4.230  17.022  0.00  0.00    +0.000 A 
ATOM     15  C   UNL     1       5.034   5.136  16.054  0.00  0.00    +0.000 A 
ATOM     16  C   UNL     1       5.906   6.162  16.405  0.00  0.00    +0.000 A 
ATOM     17  C   UNL     1       6.350   6.272  17.722  0.00  0.00    +0.000 A 
ATOM     18  C   UNL     1       5.915   5.362  18.690  0.00  0.00    +0.000 A 
ENDBRANCH  12  13
ENDBRANCH   9  12
ENDBRANCH   7  10
ENDBRANCH   1   7
BRANCH   4  19
ATOM     19  O   UNL     1       1.077  10.466  18.593  0.00  0.00    +0.000 OA
BRANCH  19  20
ATOM     20  C   UNL     1      -0.280  10.658  18.361  0.00  0.00    +0.000 A 
ATOM     21  C   UNL     1      -0.896  11.695  19.043  0.00  0.00    +0.000 A 
ATOM     22  C   UNL     1      -2.274  11.855  18.894  0.00  0.00    +0.000 A 
ATOM     23  C   UNL     1      -2.989  10.980  18.068  0.00  0.00    +0.000 A 
ATOM     24  C   UNL     1      -2.270  10.008  17.390  0.00  0.00    +0.000 A 
ATOM     25  N   UNL     1      -0.936   9.840  17.504  0.00  0.00    +0.000 NA
BRANCH  23  26
ATOM     26  C   UNL     1      -4.475  11.038  17.902  0.00  0.00    +0.000 C 
ATOM     27  F   UNL     1      -5.120   9.944  18.394  0.00  0.00    +0.000 F 
ATOM     28  F   UNL     1      -5.030  12.112  18.526  0.00  0.00    +0.000 F 
ATOM     29  F   UNL     1      -4.847  11.132  16.596  0.00  0.00    +0.000 F 
ENDBRANCH  23  26
ENDBRANCH  19  20
ENDBRANCH   4  19
TORSDOF 7
ENDMDL
MODEL 4
REMARK VINA RESULT:      -8.0      0.861      1.215
REMARK  Name = 
REMARK  8 active torsions:
REMARK  status: ('A' for Active; 'I' for Inactive)
REMARK    1  A    between atoms: C_1  and  N_2
REMARK    2  A    between atoms: N_2  and  C_3
REMARK    3  A    between atoms: C_3  and  C_4
REMARK    4  A    between atoms: C_10  and  O_12
REMARK    5  A    between atoms: O_12  and  C_13
REMARK    6  A    between atoms: C_16  and  O_17
REMARK    7  A    between atoms: O_17  and  C_18
REMARK    8  A    between atoms: C_21  and  C_22
REMARK                            x       y       z     vdW  Elec       q    Type
REMARK                         _______ _______ _______ _____ _____    ______ ____
ROOT
ATOM      1  C   UNL     1       2.262   6.990  19.697  0.00  0.00    +0.000 A 
ATOM      2  C   UNL     1       1.539   7.766  20.601  0.00  0.00    +0.000 A 
ATOM      3  C   UNL     1       1.025   9.002  20.189  0.00  0.00    +0.000 A 
ATOM      4  C   UNL     1       1.249   9.460  18.885  0.00  0.00    +0.000 A 
ATOM      5  C   UNL     1       1.939   8.648  17.979  0.00  0.00    +0.000 A 
ATOM      6  C   UNL     1       2.481   7.435  18.396  0.00  0.00    +0.000 A 
ENDROOT
BRANCH   1   7
ATOM      7  O   UNL     1       2.863   5.815  20.183  0.00  0.00    +0.000 OA
BRANCH   7  10
ATOM      8  C   UNL     1       3.248   2.787  18.184  0.00  0.00    +0.000 C 
ATOM      9  N   UNL     1       3.563   3.951  18.985  0.00  0.00    +0.000 N 
ATOM     10  C   UNL     1       2.498   4.611  19.581  0.00  0.00    +0.000 C 
ATOM     11  O   UNL     1       1.349   4.176  19.553  0.00  0.00    +0.000 OA
BRANCH   9  12
ATOM     12  C   UNL     1       4.933   4.451  19.005  0.00  0.00    +0.000 C 
BRANCH  12  13
ATOM     13  C   UNL     1       5.517   4.787  17.652  0.00  0.00    +0.000 A 
ATOM     14  C   UNL     1       6.804   4.348  17.302  0.00  0.00    +0.000 A 
ATOM     15  C   UNL     1       7.317   4.574  16.022  0.00  0.00    +0.000 A 
ATOM     16  C   UNL     1       6.551   5.244  15.073  0.00  0.00    +0.000 A 
ATOM     17  C   UNL     1       5.277   5.701  15.409  0.00  0.00    +0.000 A 
ATOM     18  C   UNL     1       4.766   5.481  16.692  0.00  0.00    +0.000 A 
ENDBRANCH  12  13
ENDBRANCH   9  12
ENDBRANCH   7  10
ENDBRANCH   1   7
BRANCH   4  19
ATOM     19  O   UNL     1       0.719  10.690  18.554  0.00  0.00    +0.000 OA
BRANCH  19  20
ATOM     20  C   UNL     1      -0.663  10.790  18.444  0.00  0.00    +0.000 A 
ATOM     21  C   UNL     1      -1.281   9.988  17.498  0.00  0.00    +0.000 A 
ATOM     22  C   UNL     1      -2.656  10.131  17.310  0.00  0.00    +0.000 A 
ATOM     23  C   UNL     1      -3.368  11.064  18.072  0.00  0.00    +0.000 A 
ATOM     24  C   UNL     1      -2.665  11.781  19.028  0.00  0.00    +0.000 A 
ATOM     25  N   UNL     1      -1.338  11.652  19.242  0.00  0.00    +0.000 NA
BRANCH  23  26
ATOM     26  C   UNL     1      -4.829  11.329  17.890  0.00  0.00    +0.000 C 
ATOM     27  F   UNL     1      -5.208  12.578  18.280  0.00  0.00    +0.000 F 
ATOM     28  F   UNL     1      -5.226  11.204  16.595  0.00  0.00    +0.000 F 
ATOM     29  F   UNL     1      -5.605  10.466  18.603  0.00  0.00    +0.000 F 
ENDBRANCH  23  26
ENDBRANCH  19  20
ENDBRANCH   4  19
TORSDOF 7
ENDMDL
MODEL 5
REMARK VINA RESULT:      -8.0      0.713      1.061
REMARK  Name = 
REMARK  8 active torsions:
REMARK  status: ('A' for Active; 'I' for Inactive)
REMARK    1  A    between atoms: C_1  and  N_2
REMARK    2  A    between atoms: N_2  and  C_3
REMARK    3  A    between atoms: C_3  and  C_4
REMARK    4  A    between atoms: C_10  and  O_12
REMARK    5  A    between atoms: O_12  and  C_13
REMARK    6  A    between atoms: C_16  and  O_17
REMARK    7  A    between atoms: O_17  and  C_18
REMARK    8  A    between atoms: C_21  and  C_22
REMARK                            x       y       z     vdW  Elec       q    Type
REMARK                         _______ _______ _______ _____ _____    ______ ____
ROOT
ATOM      1  C   UNL     1       2.211   7.029  19.804  0.00  0.00    +0.000 A 
ATOM      2  C   UNL     1       1.542   7.762  20.783  0.00  0.00    +0.000 A 
ATOM      3  C   UNL     1       1.044   9.033  20.470  0.00  0.00    +0.000 A 
ATOM      4  C   UNL     1       1.230   9.568  19.190  0.00  0.00    +0.000 A 
ATOM      5  C   UNL     1       1.865   8.801  18.208  0.00  0.00    +0.000 A 
ATOM      6  C   UNL     1       2.392   7.552  18.525  0.00  0.00    +0.000 A 
ENDROOT
BRANCH   1   7
ATOM      7  O   UNL     1       2.801   5.812  20.190  0.00  0.00    +0.000 OA
BRANCH   7  10
ATOM      8  C   UNL     1       2.442   2.610  18.478  0.00  0.00    +0.000 C 
ATOM      9  N   UNL     1       3.038   3.771  19.106  0.00  0.00    +0.000 N 
ATOM     10  C   UNL     1       2.180   4.635  19.769  0.00  0.00    +0.000 C 
ATOM     11  O   UNL     1       0.988   4.387  19.942  0.00  0.00    +0.000 OA
BRANCH   9  12
ATOM     12  C   UNL     1       4.453   4.049  18.889  0.00  0.00    +0.000 C 
BRANCH  12  13
ATOM     13  C   UNL     1       4.809   4.540  17.505  0.00  0.00    +0.000 A 
ATOM     14  C   UNL     1       4.819   5.913  17.216  0.00  0.00    +0.000 A 
ATOM     15  C   UNL     1       5.235   6.382  15.966  0.00  0.00    +0.000 A 
ATOM     16  C   UNL     1       5.647   5.483  14.987  0.00  0.00    +0.000 A 
ATOM     17  C   UNL     1       5.629   4.115  15.253  0.00  0.00    +0.000 A 
ATOM     18  C   UNL     1       5.206   3.644  16.500  0.00  0.00    +0.000 A 
ENDBRANCH  12  13
ENDBRANCH   9  12
ENDBRANCH   7  10
ENDBRANCH   1   7
BRANCH   4  19
ATOM     19  O   UNL     1       0.719  10.829  18.958  0.00  0.00    +0.000 OA
BRANCH  19  20
ATOM     20  C   UNL     1      -0.651  10.943  18.750  0.00  0.00    +0.000 A 
ATOM     21  C   UNL     1      -1.216  10.111  17.796  0.00  0.00    +0.000 A 
ATOM     22  C   UNL     1      -2.572  10.264  17.509  0.00  0.00    +0.000 A 
ATOM     23  C   UNL     1      -3.319  11.236  18.183  0.00  0.00    +0.000 A 
ATOM     24  C   UNL     1      -2.671  11.982  19.156  0.00  0.00    +0.000 A 
ATOM     25  N   UNL     1      -1.365  11.844  19.466  0.00  0.00    +0.000 NA
BRANCH  23  26
ATOM     26  C   UNL     1      -4.761  11.514  17.891  0.00  0.00    +0.000 C 
ATOM     27  F   UNL     1      -4.993  11.886  16.603  0.00  0.00    +0.000 F 
ATOM     28  F   UNL     1      -5.557  10.435  18.119  0.00  0.00    +0.000 F 
ATOM     29  F   UNL     1      -5.262  12.516  18.664  0.00  0.00    +0.000 F 
ENDBRANCH  23  26
ENDBRANCH  19  20
ENDBRANCH   4  19
TORSDOF 7
ENDMDL
MODEL 6
REMARK VINA RESULT:      -7.9      0.720      1.479
REMARK  Name = 
REMARK  8 active torsions:
REMARK  status: ('A' for Active; 'I' for Inactive)
REMARK    1  A    between atoms: C_1  and  N_2
REMARK    2  A    between atoms: N_2  and  C_3
REMARK    3  A    between atoms: C_3  and  C_4
REMARK    4  A    between atoms: C_10  and  O_12
REMARK    5  A    between atoms: O_12  and  C_13
REMARK    6  A    between atoms: C_16  and  O_17
REMARK    7  A    between atoms: O_17  and  C_18
REMARK    8  A    between atoms: C_21  and  C_22
REMARK                            x       y       z     vdW  Elec       q    Type
REMARK                         _______ _______ _______ _____ _____    ______ ____
ROOT
ATOM      1  C   UNL     1       2.345   6.495  19.891  0.00  0.00    +0.000 A 
ATOM      2  C   UNL     1       2.662   6.922  18.603  0.00  0.00    +0.000 A 
ATOM      3  C   UNL     1       2.251   8.192  18.179  0.00  0.00    +0.000 A 
ATOM      4  C   UNL     1       1.514   9.018  19.036  0.00  0.00    +0.000 A 
ATOM      5  C   UNL     1       1.242   8.589  20.339  0.00  0.00    +0.000 A 
ATOM      6  C   UNL     1       1.620   7.315  20.753  0.00  0.00    +0.000 A 
ENDROOT
BRANCH   1   7
ATOM      7  O   UNL     1       2.669   5.171  20.237  0.00  0.00    +0.000 OA
BRANCH   7  10
ATOM      8  C   UNL     1       2.405   2.235  18.085  0.00  0.00    +0.000 C 
ATOM      9  N   UNL     1       2.942   3.227  18.993  0.00  0.00    +0.000 N 
ATOM     10  C   UNL     1       2.049   4.149  19.517  0.00  0.00    +0.000 C 
ATOM     11  O   UNL     1       0.834   4.073  19.338  0.00  0.00    +0.000 OA
BRANCH   9  12
ATOM     12  C   UNL     1       4.385   3.301  19.192  0.00  0.00    +0.000 C 
BRANCH  12  13
ATOM     13  C   UNL     1       5.107   4.297  18.315  0.00  0.00    +0.000 A 
ATOM     14  C   UNL     1       4.783   4.415  16.954  0.00  0.00    +0.000 A 
ATOM     15  C   UNL     1       5.381   5.395  16.155  0.00  0.00    +0.000 A 
ATOM     16  C   UNL     1       6.312   6.270  16.707  0.00  0.00    +0.000 A 
ATOM     17  C   UNL     1       6.657   6.156  18.052  0.00  0.00    +0.000 A 
ATOM     18  C   UNL     1       6.065   5.171  18.850  0.00  0.00    +0.000 A 
ENDBRANCH  12  13
ENDBRANCH   9  12
ENDBRANCH   7  10
ENDBRANCH   1   7
BRANCH   4  19
ATOM     19  O   UNL     1       1.136  10.251  18.545  0.00  0.00    +0.000 OA
BRANCH  19  20
ATOM     20  C   UNL     1      -0.219  10.470  18.324  0.00  0.00    +0.000 A 
ATOM     21  C   UNL     1      -0.833  11.448  19.090  0.00  0.00    +0.000 A 
ATOM     22  C   UNL     1      -2.209  11.630  18.948  0.00  0.00    +0.000 A 
ATOM     23  C   UNL     1      -2.924  10.834  18.046  0.00  0.00    +0.000 A 
ATOM     24  C   UNL     1      -2.208   9.919  17.290  0.00  0.00    +0.000 A 
ATOM     25  N   UNL     1      -0.874   9.734  17.396  0.00  0.00    +0.000 NA
BRANCH  23  26
ATOM     26  C   UNL     1      -4.409  10.914  17.878  0.00  0.00    +0.000 C 
ATOM     27  F   UNL     1      -4.962  12.020  18.448  0.00  0.00    +0.000 F 
ATOM     28  F   UNL     1      -4.787  10.938  16.571  0.00  0.00    +0.000 F 
ATOM     29  F   UNL     1      -5.051   9.849  18.432  0.00  0.00    +0.000 F 
ENDBRANCH  23  26
ENDBRANCH  19  20
ENDBRANCH   4  19
TORSDOF 7
ENDMDL
MODEL 7
REMARK VINA RESULT:      -7.9      0.867      1.569
REMARK  Name = 
REMARK  8 active torsions:
REMARK  status: ('A' for Active; 'I' for Inactive)
REMARK    1  A    between atoms: C_1  and  N_2
REMARK    2  A    between atoms: N_2  and  C_3
REMARK    3  A    between atoms: C_3  and  C_4
REMARK    4  A    between atoms: C_10  and  O_12
REMARK    5  A    between atoms: O_12  and  C_13
REMARK    6  A    between atoms: C_16  and  O_17
REMARK    7  A    between atoms: O_17  and  C_18
REMARK    8  A    between atoms: C_21  and  C_22
REMARK                            x       y       z     vdW  Elec       q    Type
REMARK                         _______ _______ _______ _____ _____    ______ ____
ROOT
ATOM      1  C   UNL     1       2.371   6.696  19.580  0.00  0.00    +0.000 A 
ATOM      2  C   UNL     1       1.635   7.367  20.555  0.00  0.00    +0.000 A 
ATOM      3  C   UNL     1       1.198   8.675  20.308  0.00  0.00    +0.000 A 
ATOM      4  C   UNL     1       1.511   9.306  19.099  0.00  0.00    +0.000 A 
ATOM      5  C   UNL     1       2.212   8.602  18.115  0.00  0.00    +0.000 A 
ATOM      6  C   UNL     1       2.678   7.315  18.370  0.00  0.00    +0.000 A 
ENDROOT
BRANCH   1   7
ATOM      7  O   UNL     1       2.894   5.433  19.913  0.00  0.00    +0.000 OA
BRANCH   7  10
ATOM      8  C   UNL     1       3.168   2.400  17.903  0.00  0.00    +0.000 C 
ATOM      9  N   UNL     1       3.488   3.463  18.832  0.00  0.00    +0.000 N 
ATOM     10  C   UNL     1       2.465   4.341  19.158  0.00  0.00    +0.000 C 
ATOM     11  O   UNL     1       1.303   4.172  18.791  0.00  0.00    +0.000 OA
BRANCH   9  12
ATOM     12  C   UNL     1       4.871   3.647  19.255  0.00  0.00    +0.000 C 
BRANCH  12  13
ATOM     13  C   UNL     1       5.640   4.709  18.503  0.00  0.00    +0.000 A 
ATOM     14  C   UNL     1       6.659   5.437  19.139  0.00  0.00    +0.000 A 
ATOM     15  C   UNL     1       7.436   6.355  18.428  0.00  0.00    +0.000 A 
ATOM     16  C   UNL     1       7.206   6.560  17.071  0.00  0.00    +0.000 A 
ATOM     17  C   UNL     1       6.189   5.857  16.428  0.00  0.00    +0.000 A 
ATOM     18  C   UNL     1       5.406   4.943  17.140  0.00  0.00    +0.000 A 
ENDBRANCH  12  13
ENDBRANCH   9  12
ENDBRANCH   7  10
ENDBRANCH   1   7
BRANCH   4  19
ATOM     19  O   UNL     1       1.054  10.597  18.930  0.00  0.00    +0.000 OA
BRANCH  19  20
ATOM     20  C   UNL     1      -0.278  10.769  18.569  0.00  0.00    +0.000 A 
ATOM     21  C   UNL     1      -0.995  11.740  19.248  0.00  0.00    +0.000 A 
ATOM     22  C   UNL     1      -2.354  11.875  18.964  0.00  0.00    +0.000 A 
ATOM     23  C   UNL     1      -2.950  11.041  18.011  0.00  0.00    +0.000 A 
ATOM     24  C   UNL     1      -2.133  10.136  17.351  0.00  0.00    +0.000 A 
ATOM     25  N   UNL     1      -0.812   9.996  17.594  0.00  0.00    +0.000 NA
BRANCH  23  26
ATOM     26  C   UNL     1      -4.412  11.071  17.692  0.00  0.00    +0.000 C 
ATOM     27  F   UNL     1      -5.016  12.246  18.021  0.00  0.00    +0.000 F 
ATOM     28  F   UNL     1      -4.662  10.879  16.369  0.00  0.00    +0.000 F 
ATOM     29  F   UNL     1      -5.105  10.100  18.347  0.00  0.00    +0.000 F 
ENDBRANCH  23  26
ENDBRANCH  19  20
ENDBRANCH   4  19
TORSDOF 7
ENDMDL
MODEL 8
REMARK VINA RESULT:      -7.9      0.871      1.716
REMARK  Name = 
REMARK  8 active torsions:
REMARK  status: ('A' for Active; 'I' for Inactive)
REMARK    1  A    between atoms: C_1  and  N_2
REMARK    2  A    between atoms: N_2  and  C_3
REMARK    3  A    between atoms: C_3  and  C_4
REMARK    4  A    between atoms: C_10  and  O_12
REMARK    5  A    between atoms: O_12  and  C_13
REMARK    6  A    between atoms: C_16  and  O_17
REMARK    7  A    between atoms: O_17  and  C_18
REMARK    8  A    between atoms: C_21  and  C_22
REMARK                            x       y       z     vdW  Elec       q    Type
REMARK                         _______ _______ _______ _____ _____    ______ ____
ROOT
ATOM      1  C   UNL     1       2.402   6.727  19.722  0.00  0.00    +0.000 A 
ATOM      2  C   UNL     1       2.719   7.196  18.448  0.00  0.00    +0.000 A 
ATOM      3  C   UNL     1       2.255   8.455  18.044  0.00  0.00    +0.000 A 
ATOM      4  C   UNL     1       1.469   9.227  18.907  0.00  0.00    +0.000 A 
ATOM      5  C   UNL     1       1.199   8.759  20.197  0.00  0.00    +0.000 A 
ATOM      6  C   UNL     1       1.628   7.494  20.589  0.00  0.00    +0.000 A 
ENDROOT
BRANCH   1   7
ATOM      7  O   UNL     1       2.783   5.412  20.044  0.00  0.00    +0.000 OA
BRANCH   7  10
ATOM      8  C   UNL     1       3.114   2.589  17.755  0.00  0.00    +0.000 C 
ATOM      9  N   UNL     1       3.410   3.560  18.789  0.00  0.00    +0.000 N 
ATOM     10  C   UNL     1       2.374   4.395  19.180  0.00  0.00    +0.000 C 
ATOM     11  O   UNL     1       1.220   4.255  18.780  0.00  0.00    +0.000 OA
BRANCH   9  12
ATOM     12  C   UNL     1       4.785   3.711  19.250  0.00  0.00    +0.000 C 
BRANCH  12  13
ATOM     13  C   UNL     1       5.600   4.753  18.519  0.00  0.00    +0.000 A 
ATOM     14  C   UNL     1       6.658   5.413  19.164  0.00  0.00    +0.000 A 
ATOM     15  C   UNL     1       7.475   6.310  18.471  0.00  0.00    +0.000 A 
ATOM     16  C   UNL     1       7.244   6.562  17.121  0.00  0.00    +0.000 A 
ATOM     17  C   UNL     1       6.189   5.927  16.470  0.00  0.00    +0.000 A 
ATOM     18  C   UNL     1       5.367   5.034  17.164  0.00  0.00    +0.000 A 
ENDBRANCH  12  13
ENDBRANCH   9  12
ENDBRANCH   7  10
ENDBRANCH   1   7
BRANCH   4  19
ATOM     19  O   UNL     1       1.042  10.452  18.437  0.00  0.00    +0.000 OA
BRANCH  19  20
ATOM     20  C   UNL     1      -0.325  10.634  18.258  0.00  0.00    +0.000 A 
ATOM     21  C   UNL     1      -0.918  11.678  18.949  0.00  0.00    +0.000 A 
ATOM     22  C   UNL     1      -2.301  11.830  18.853  0.00  0.00    +0.000 A 
ATOM     23  C   UNL     1      -3.045  10.940  18.070  0.00  0.00    +0.000 A 
ATOM     24  C   UNL     1      -2.349   9.961  17.377  0.00  0.00    +0.000 A 
ATOM     25  N   UNL     1      -1.010   9.801  17.439  0.00  0.00    +0.000 NA
BRANCH  23  26
ATOM     26  C   UNL     1      -4.537  10.988  17.963  0.00  0.00    +0.000 C 
ATOM     27  F   UNL     1      -4.987  11.135  16.687  0.00  0.00    +0.000 F 
ATOM     28  F   UNL     1      -5.132   9.863  18.442  0.00  0.00    +0.000 F 
ATOM     29  F   UNL     1      -5.073  12.022  18.668  0.00  0.00    +0.000 F 
ENDBRANCH  23  26
ENDBRANCH  19  20
ENDBRANCH   4  19
TORSDOF 7
ENDMDL
MODEL 9
REMARK VINA RESULT:      -7.8      1.080      1.933
REMARK  Name = 
REMARK  8 active torsions:
REMARK  status: ('A' for Active; 'I' for Inactive)
REMARK    1  A    between atoms: C_1  and  N_2
REMARK    2  A    between atoms: N_2  and  C_3
REMARK    3  A    between atoms: C_3  and  C_4
REMARK    4  A    between atoms: C_10  and  O_12
REMARK    5  A    between atoms: O_12  and  C_13
REMARK    6  A    between atoms: C_16  and  O_17
REMARK    7  A    between atoms: O_17  and  C_18
REMARK    8  A    between atoms: C_21  and  C_22
REMARK                            x       y       z     vdW  Elec       q    Type
REMARK                         _______ _______ _______ _____ _____    ______ ____
ROOT
ATOM      1  C   UNL     1       2.169   6.731  19.903  0.00  0.00    +0.000 A 
ATOM      2  C   UNL     1       2.445   7.312  18.667  0.00  0.00    +0.000 A 
ATOM      3  C   UNL     1       2.020   8.623  18.414  0.00  0.00    +0.000 A 
ATOM      4  C   UNL     1       1.312   9.336  19.388  0.00  0.00    +0.000 A 
ATOM      5  C   UNL     1       1.083   8.752  20.638  0.00  0.00    +0.000 A 
ATOM      6  C   UNL     1       1.473   7.438  20.881  0.00  0.00    +0.000 A 
ENDROOT
BRANCH   1   7
ATOM      7  O   UNL     1       2.504   5.376  20.075  0.00  0.00    +0.000 OA
BRANCH   7  10
ATOM      8  C   UNL     1       3.849   3.389  17.325  0.00  0.00    +0.000 C 
ATOM      9  N   UNL     1       3.744   4.091  18.588  0.00  0.00    +0.000 N 
ATOM     10  C   UNL     1       2.488   4.562  18.942  0.00  0.00    +0.000 C 
ATOM     11  O   UNL     1       1.474   4.298  18.298  0.00  0.00    +0.000 OA
BRANCH   9  12
ATOM     12  C   UNL     1       4.958   4.394  19.336  0.00  0.00    +0.000 C 
BRANCH  12  13
ATOM     13  C   UNL     1       5.883   5.397  18.686  0.00  0.00    +0.000 A 
ATOM     14  C   UNL     1       5.434   6.198  17.624  0.00  0.00    +0.000 A 
ATOM     15  C   UNL     1       6.252   7.191  17.077  0.00  0.00    +0.000 A 
ATOM     16  C   UNL     1       7.532   7.397  17.584  0.00  0.00    +0.000 A 
ATOM     17  C   UNL     1       7.999   6.600  18.628  0.00  0.00    +0.000 A 
ATOM     18  C   UNL     1       7.184   5.602  19.171  0.00  0.00    +0.000 A 
ENDBRANCH  12  13
ENDBRANCH   9  12
ENDBRANCH   7  10
ENDBRANCH   1   7
BRANCH   4  19
ATOM     19  O   UNL     1       0.919  10.618  19.063  0.00  0.00    +0.000 OA
BRANCH  19  20
ATOM     20  C   UNL     1      -0.390  10.802  18.631  0.00  0.00    +0.000 A 
ATOM     21  C   UNL     1      -1.116  11.818  19.231  0.00  0.00    +0.000 A 
ATOM     22  C   UNL     1      -2.456  11.969  18.875  0.00  0.00    +0.000 A 
ATOM     23  C   UNL     1      -3.025  11.106  17.932  0.00  0.00    +0.000 A 
ATOM     24  C   UNL     1      -2.200  10.155  17.353  0.00  0.00    +0.000 A 
ATOM     25  N   UNL     1      -0.896   9.997  17.667  0.00  0.00    +0.000 NA
BRANCH  23  26
ATOM     26  C   UNL     1      -4.469  11.153  17.541  0.00  0.00    +0.000 C 
ATOM     27  F   UNL     1      -5.257  10.314  18.269  0.00  0.00    +0.000 F 
ATOM     28  F   UNL     1      -5.010  12.393  17.685  0.00  0.00    +0.000 F 
ATOM     29  F   UNL     1      -4.665  10.810  16.238  0.00  0.00    +0.000 F 
ENDBRANCH  23  26
ENDBRANCH  19  20
ENDBRANCH   4  19
TORSDOF 7
ENDMDL
