MODEL 1
REMARK VINA RESULT:      -7.8      0.000      0.000
REMARK  Name = 
REMARK  7 active torsions:
REMARK  status: ('A' for Active; 'I' for Inactive)
REMARK    1  A    between atoms: N_1  and  C_2
REMARK    2  A    between atoms: C_8  and  C_9
REMARK    3  A    between atoms: N_16  and  C1*_17
REMARK    4  A    between atoms: C4*_19  and  C5*_20
REMARK    5  A    between atoms: C5*_20  and  O5*_21
REMARK    6  A    between atoms: C3*_22  and  O3*_23
REMARK    7  A    between atoms: C2*_24  and  O2*_25
REMARK                            x       y       z     vdW  Elec       q    Type
REMARK                         _______ _______ _______ _____ _____    ______ ____
ROOT
ATOM      1  C   UNL     1       1.445   3.782  19.970  0.00  0.00    +0.000 A 
ATOM      2  N   UNL     1       1.511   2.439  20.021  0.00  0.00    +0.000 NA
ATOM      3  C   UNL     1       2.626   1.836  19.594  0.00  0.00    +0.000 A 
ATOM      4  N   UNL     1       3.735   2.411  19.104  0.00  0.00    +0.000 NA
ATOM      5  C   UNL     1       3.631   3.750  19.046  0.00  0.00    +0.000 A 
ATOM      6  C   UNL     1       2.548   4.510  19.470  0.00  0.00    +0.000 A 
ATOM      7  C   UNL     1       2.898   5.888  19.257  0.00  0.00    +0.000 A 
ATOM      8  C   UNL     1       4.161   5.900  18.686  0.00  0.00    +0.000 A 
ATOM      9  N   UNL     1       4.609   4.597  18.579  0.00  0.00    +0.000 N 
ENDROOT
BRANCH   7  10
ATOM     10  C   UNL     1       2.139   7.106  19.533  0.00  0.00    +0.000 A 
ATOM     11  C   UNL     1       1.960   8.066  18.531  0.00  0.00    +0.000 A 
ATOM     12  C   UNL     1       1.388   9.307  18.817  0.00  0.00    +0.000 A 
ATOM     13  C   UNL     1       0.912   9.571  20.097  0.00  0.00    +0.000 A 
ATOM     14  C   UNL     1       0.998   8.591  21.083  0.00  0.00    +0.000 A 
ATOM     15  C   UNL     1       1.620   7.368  20.807  0.00  0.00    +0.000 A 
ENDBRANCH   7  10
BRANCH   9  16
ATOM     16  C1* UNL     1       5.915   4.239  18.044  0.00  0.00    +0.000 C 
ATOM     17  O4* UNL     1       6.912   5.053  18.704  0.00  0.00    +0.000 OA
ATOM     18  C4* UNL     1       7.680   5.746  17.689  0.00  0.00    +0.000 C 
ATOM     19  C3* UNL     1       6.888   5.682  16.391  0.00  0.00    +0.000 C 
ATOM     20  C2* UNL     1       6.179   4.341  16.531  0.00  0.00    +0.000 C 
BRANCH  19  21
ATOM     21  O3* UNL     1       7.726   5.772  15.242  0.00  0.00    +0.000 OA
ATOM     22  H3* UNL     1       7.766   6.696  14.942  0.00  0.00    +0.000 HD
ENDBRANCH  19  21
BRANCH  20  23
ATOM     23  O2* UNL     1       5.062   4.171  15.672  0.00  0.00    +0.000 OA
ATOM     24  H2* UNL     1       4.584   5.027  15.649  0.00  0.00    +0.000 HD
ENDBRANCH  20  23
BRANCH  18  25
ATOM     25  C5* UNL     1       7.937   7.177  18.152  0.00  0.00    +0.000 C 
BRANCH  25  26
ATOM     26  O5* UNL     1       7.514   8.092  17.140  0.00  0.00    +0.000 OA
ATOM     27  H5* UNL     1       7.367   7.555  16.338  0.00  0.00    +0.000 HD
ENDBRANCH  25  26
ENDBRANCH  18  25
ENDBRANCH   9  16
BRANCH   1  28
ATOM     28  N   UNL     1       0.254   4.336  20.415  0.00  0.00    +0.000 N 
ATOM     29  H   UNL     1      -0.063   3.863  21.253  0.00  0.00    +0.000 HD
ATOM     30  H   UNL     1      -0.441   4.462  19.691  0.00  0.00    +0.000 HD
ENDBRANCH   1  28
TORSDOF 7
ENDMDL
MODEL 2
REMARK VINA RESULT:      -7.7      3.287      6.785
REMARK  Name = 
REMARK  7 active torsions:
REMARK  status: ('A' for Active; 'I' for Inactive)
REMARK    1  A    between atoms: N_1  and  C_2
REMARK    2  A    between atoms: C_8  and  C_9
REMARK    3  A    between atoms: N_16  and  C1*_17
REMARK    4  A    between atoms: C4*_19  and  C5*_20
REMARK    5  A    between atoms: C5*_20  and  O5*_21
REMARK    6  A    between atoms: C3*_22  and  O3*_23
REMARK    7  A    between atoms: C2*_24  and  O2*_25
REMARK                            x       y       z     vdW  Elec       q    Type
REMARK                         _______ _______ _______ _____ _____    ______ ____
ROOT
ATOM      1  C   UNL     1       6.917   5.800  17.275  0.00  0.00    +0.000 A 
ATOM      2  N   UNL     1       7.025   6.203  18.554  0.00  0.00    +0.000 NA
ATOM      3  C   UNL     1       6.228   5.643  19.471  0.00  0.00    +0.000 A 
ATOM      4  N   UNL     1       5.299   4.694  19.282  0.00  0.00    +0.000 NA
ATOM      5  C   UNL     1       5.199   4.328  17.992  0.00  0.00    +0.000 A 
ATOM      6  C   UNL     1       5.971   4.805  16.940  0.00  0.00    +0.000 A 
ATOM      7  C   UNL     1       5.546   4.103  15.760  0.00  0.00    +0.000 A 
ATOM      8  C   UNL     1       4.518   3.256  16.143  0.00  0.00    +0.000 A 
ATOM      9  N   UNL     1       4.326   3.384  17.506  0.00  0.00    +0.000 N 
ENDROOT
BRANCH   7  10
ATOM     10  C   UNL     1       6.023   4.202  14.382  0.00  0.00    +0.000 A 
ATOM     11  C   UNL     1       5.388   3.482  13.364  0.00  0.00    +0.000 A 
ATOM     12  C   UNL     1       5.926   3.428  12.077  0.00  0.00    +0.000 A 
ATOM     13  C   UNL     1       7.067   4.164  11.773  0.00  0.00    +0.000 A 
ATOM     14  C   UNL     1       7.659   4.959  12.751  0.00  0.00    +0.000 A 
ATOM     15  C   UNL     1       7.148   4.970  14.054  0.00  0.00    +0.000 A 
ENDBRANCH   7  10
BRANCH   9  16
ATOM     16  C1* UNL     1       3.337   2.619  18.251  0.00  0.00    +0.000 C 
ATOM     17  O4* UNL     1       2.190   3.468  18.483  0.00  0.00    +0.000 OA
ATOM     18  C4* UNL     1       1.926   3.500  19.908  0.00  0.00    +0.000 C 
ATOM     19  C3* UNL     1       3.173   2.991  20.617  0.00  0.00    +0.000 C 
ATOM     20  C2* UNL     1       3.713   1.989  19.605  0.00  0.00    +0.000 C 
BRANCH  19  21
ATOM     21  O3* UNL     1       2.878   2.421  21.889  0.00  0.00    +0.000 OA
ATOM     22  H3* UNL     1       1.937   2.553  22.093  0.00  0.00    +0.000 HD
ENDBRANCH  19  21
BRANCH  20  23
ATOM     23  O2* UNL     1       5.075   1.636  19.791  0.00  0.00    +0.000 OA
ATOM     24  H2* UNL     1       5.465   1.513  18.900  0.00  0.00    +0.000 HD
ENDBRANCH  20  23
BRANCH  18  25
ATOM     25  C5* UNL     1       1.558   4.924  20.314  0.00  0.00    +0.000 C 
BRANCH  25  26
ATOM     26  O5* UNL     1       2.679   5.550  20.941  0.00  0.00    +0.000 OA
ATOM     27  H5* UNL     1       2.786   5.105  21.803  0.00  0.00    +0.000 HD
ENDBRANCH  25  26
ENDBRANCH  18  25
ENDBRANCH   9  16
BRANCH   1  28
ATOM     28  N   UNL     1       7.766   6.434  16.379  0.00  0.00    +0.000 N 
ATOM     29  H   UNL     1       7.330   6.501  15.467  0.00  0.00    +0.000 HD
ATOM     30  H   UNL     1       8.715   6.085  16.388  0.00  0.00    +0.000 HD
ENDBRANCH   1  28
TORSDOF 7
ENDMDL
MODEL 3
REMARK VINA RESULT:      -7.7      3.213      6.753
REMARK  Name = 
REMARK  7 active torsions:
REMARK  status: ('A' for Active; 'I' for Inactive)
REMARK    1  A    between atoms: N_1  and  C_2
REMARK    2  A    between atoms: C_8  and  C_9
REMARK    3  A    between atoms: N_16  and  C1*_17
REMARK    4  A    between atoms: C4*_19  and  C5*_20
REMARK    5  A    between atoms: C5*_20  and  O5*_21
REMARK    6  A    between atoms: C3*_22  and  O3*_23
REMARK    7  A    between atoms: C2*_24  and  O2*_25
REMARK                            x       y       z     vdW  Elec       q    Type
REMARK                         _______ _______ _______ _____ _____    ______ ____
ROOT
ATOM      1  C   UNL     1       4.610   6.562  16.541  0.00  0.00    +0.000 A 
ATOM      2  N   UNL     1       3.987   7.231  17.528  0.00  0.00    +0.000 NA
ATOM      3  C   UNL     1       3.387   6.530  18.497  0.00  0.00    +0.000 A 
ATOM      4  N   UNL     1       3.321   5.197  18.625  0.00  0.00    +0.000 NA
ATOM      5  C   UNL     1       3.933   4.556  17.614  0.00  0.00    +0.000 A 
ATOM      6  C   UNL     1       4.611   5.149  16.556  0.00  0.00    +0.000 A 
ATOM      7  C   UNL     1       5.137   4.083  15.749  0.00  0.00    +0.000 A 
ATOM      8  C   UNL     1       4.729   2.895  16.334  0.00  0.00    +0.000 A 
ATOM      9  N   UNL     1       4.014   3.190  17.480  0.00  0.00    +0.000 N 
ENDROOT
BRANCH   7  10
ATOM     10  C   UNL     1       5.936   4.132  14.526  0.00  0.00    +0.000 A 
ATOM     11  C   UNL     1       7.118   4.879  14.487  0.00  0.00    +0.000 A 
ATOM     12  C   UNL     1       7.805   5.077  13.288  0.00  0.00    +0.000 A 
ATOM     13  C   UNL     1       7.359   4.461  12.124  0.00  0.00    +0.000 A 
ATOM     14  C   UNL     1       6.235   3.639  12.164  0.00  0.00    +0.000 A 
ATOM     15  C   UNL     1       5.518   3.484  13.356  0.00  0.00    +0.000 A 
ENDBRANCH   7  10
BRANCH   9  16
ATOM     16  C1* UNL     1       3.455   2.175  18.360  0.00  0.00    +0.000 C 
ATOM     17  O4* UNL     1       2.027   2.386  18.445  0.00  0.00    +0.000 OA
ATOM     18  C4* UNL     1       1.667   2.518  19.842  0.00  0.00    +0.000 C 
ATOM     19  C3* UNL     1       2.943   2.802  20.620  0.00  0.00    +0.000 C 
ATOM     20  C2* UNL     1       3.976   2.037  19.803  0.00  0.00    +0.000 C 
BRANCH  19  21
ATOM     21  O3* UNL     1       2.855   2.377  21.977  0.00  0.00    +0.000 OA
ATOM     22  H3* UNL     1       1.997   1.945  22.127  0.00  0.00    +0.000 HD
ENDBRANCH  19  21
BRANCH  20  23
ATOM     23  O2* UNL     1       5.321   2.425  20.038  0.00  0.00    +0.000 OA
ATOM     24  H2* UNL     1       5.879   1.933  19.399  0.00  0.00    +0.000 HD
ENDBRANCH  20  23
BRANCH  18  25
ATOM     25  C5* UNL     1       0.630   3.630  19.985  0.00  0.00    +0.000 C 
BRANCH  25  26
ATOM     26  O5* UNL     1       1.194   4.720  20.716  0.00  0.00    +0.000 OA
ATOM     27  H5* UNL     1       0.781   4.691  21.601  0.00  0.00    +0.000 HD
ENDBRANCH  25  26
ENDBRANCH  18  25
ENDBRANCH   9  16
BRANCH   1  28
ATOM     28  N   UNL     1       5.196   7.354  15.564  0.00  0.00    +0.000 N 
ATOM     29  H   UNL     1       4.486   7.777  14.979  0.00  0.00    +0.000 HD
ATOM     30  H   UNL     1       5.963   6.911  15.075  0.00  0.00    +0.000 HD
ENDBRANCH   1  28
TORSDOF 7
ENDMDL
MODEL 4
REMARK VINA RESULT:      -7.4      0.749      1.401
REMARK  Name = 
REMARK  7 active torsions:
REMARK  status: ('A' for Active; 'I' for Inactive)
REMARK    1  A    between atoms: N_1  and  C_2
REMARK    2  A    between atoms: C_8  and  C_9
REMARK    3  A    between atoms: N_16  and  C1*_17
REMARK    4  A    between atoms: C4*_19  and  C5*_20
REMARK    5  A    between atoms: C5*_20  and  O5*_21
REMARK    6  A    between atoms: C3*_22  and  O3*_23
REMARK    7  A    between atoms: C2*_24  and  O2*_25
REMARK                            x       y       z     vdW  Elec       q    Type
REMARK                         _______ _______ _______ _____ _____    ______ ____
ROOT
ATOM      1  C   UNL     1       1.157   3.941  19.852  0.00  0.00    +0.000 A 
ATOM      2  N   UNL     1       1.110   2.597  19.797  0.00  0.00    +0.000 NA
ATOM      3  C   UNL     1       2.137   1.943  19.244  0.00  0.00    +0.000 A 
ATOM      4  N   UNL     1       3.255   2.464  18.717  0.00  0.00    +0.000 NA
ATOM      5  C   UNL     1       3.264   3.807  18.767  0.00  0.00    +0.000 A 
ATOM      6  C   UNL     1       2.282   4.616  19.328  0.00  0.00    +0.000 A 
ATOM      7  C   UNL     1       2.734   5.973  19.192  0.00  0.00    +0.000 A 
ATOM      8  C   UNL     1       3.951   5.929  18.531  0.00  0.00    +0.000 A 
ATOM      9  N   UNL     1       4.277   4.607  18.293  0.00  0.00    +0.000 N 
ENDROOT
BRANCH   7  10
ATOM     10  C   UNL     1       2.104   7.223  19.615  0.00  0.00    +0.000 A 
ATOM     11  C   UNL     1       1.640   7.369  20.927  0.00  0.00    +0.000 A 
ATOM     12  C   UNL     1       0.888   8.483  21.304  0.00  0.00    +0.000 A 
ATOM     13  C   UNL     1       0.660   9.506  20.390  0.00  0.00    +0.000 A 
ATOM     14  C   UNL     1       1.194   9.419  19.107  0.00  0.00    +0.000 A 
ATOM     15  C   UNL     1       1.903   8.277  18.715  0.00  0.00    +0.000 A 
ENDBRANCH   7  10
BRANCH   9  16
ATOM     16  C1* UNL     1       5.507   4.190  17.637  0.00  0.00    +0.000 C 
ATOM     17  O4* UNL     1       6.590   4.310  18.587  0.00  0.00    +0.000 OA
ATOM     18  C4* UNL     1       7.618   5.148  18.004  0.00  0.00    +0.000 C 
ATOM     19  C3* UNL     1       6.993   5.898  16.837  0.00  0.00    +0.000 C 
ATOM     20  C2* UNL     1       5.963   4.890  16.343  0.00  0.00    +0.000 C 
BRANCH  19  21
ATOM     21  O3* UNL     1       7.955   6.266  15.853  0.00  0.00    +0.000 OA
ATOM     22  H3* UNL     1       7.867   5.683  15.079  0.00  0.00    +0.000 HD
ENDBRANCH  19  21
BRANCH  20  23
ATOM     23  O2* UNL     1       4.947   5.439  15.519  0.00  0.00    +0.000 OA
ATOM     24  H2* UNL     1       4.197   5.676  16.105  0.00  0.00    +0.000 HD
ENDBRANCH  20  23
BRANCH  18  25
ATOM     25  C5* UNL     1       8.166   6.083  19.079  0.00  0.00    +0.000 C 
BRANCH  25  26
ATOM     26  O5* UNL     1       7.929   5.522  20.371  0.00  0.00    +0.000 OA
ATOM     27  H5* UNL     1       8.459   6.052  20.995  0.00  0.00    +0.000 HD
ENDBRANCH  25  26
ENDBRANCH  18  25
ENDBRANCH   9  16
BRANCH   1  28
ATOM     28  N   UNL     1       0.052   4.551  20.426  0.00  0.00    +0.000 N 
ATOM     29  H   UNL     1      -0.795   4.269  19.947  0.00  0.00    +0.000 HD
ATOM     30  H   UNL     1       0.159   5.546  20.580  0.00  0.00    +0.000 HD
ENDBRANCH   1  28
TORSDOF 7
ENDMDL
MODEL 5
REMARK VINA RESULT:      -7.3      0.922      1.243
REMARK  Name = 
REMARK  7 active torsions:
REMARK  status: ('A' for Active; 'I' for Inactive)
REMARK    1  A    between atoms: N_1  and  C_2
REMARK    2  A    between atoms: C_8  and  C_9
REMARK    3  A    between atoms: N_16  and  C1*_17
REMARK    4  A    between atoms: C4*_19  and  C5*_20
REMARK    5  A    between atoms: C5*_20  and  O5*_21
REMARK    6  A    between atoms: C3*_22  and  O3*_23
REMARK    7  A    between atoms: C2*_24  and  O2*_25
REMARK                            x       y       z     vdW  Elec       q    Type
REMARK                         _______ _______ _______ _____ _____    ______ ____
ROOT
ATOM      1  C   UNL     1       1.436   3.614  19.533  0.00  0.00    +0.000 A 
ATOM      2  N   UNL     1       1.547   2.284  19.359  0.00  0.00    +0.000 NA
ATOM      3  C   UNL     1       2.651   1.805  18.775  0.00  0.00    +0.000 A 
ATOM      4  N   UNL     1       3.708   2.498  18.324  0.00  0.00    +0.000 NA
ATOM      5  C   UNL     1       3.558   3.823  18.492  0.00  0.00    +0.000 A 
ATOM      6  C   UNL     1       2.481   4.458  19.097  0.00  0.00    +0.000 A 
ATOM      7  C   UNL     1       2.773   5.866  19.092  0.00  0.00    +0.000 A 
ATOM      8  C   UNL     1       3.995   6.023  18.460  0.00  0.00    +0.000 A 
ATOM      9  N   UNL     1       4.477   4.774  18.114  0.00  0.00    +0.000 N 
ENDROOT
BRANCH   7  10
ATOM     10  C   UNL     1       1.995   6.991  19.608  0.00  0.00    +0.000 A 
ATOM     11  C   UNL     1       1.779   8.121  18.812  0.00  0.00    +0.000 A 
ATOM     12  C   UNL     1       1.187   9.270  19.339  0.00  0.00    +0.000 A 
ATOM     13  C   UNL     1       0.728   9.273  20.652  0.00  0.00    +0.000 A 
ATOM     14  C   UNL     1       0.852   8.124  21.430  0.00  0.00    +0.000 A 
ATOM     15  C   UNL     1       1.494   6.991  20.916  0.00  0.00    +0.000 A 
ENDBRANCH   7  10
BRANCH   9  16
ATOM     16  C1* UNL     1       5.757   4.562  17.454  0.00  0.00    +0.000 C 
ATOM     17  O4* UNL     1       6.785   4.499  18.469  0.00  0.00    +0.000 OA
ATOM     18  C4* UNL     1       7.799   5.484  18.153  0.00  0.00    +0.000 C 
ATOM     19  C3* UNL     1       7.196   6.459  17.152  0.00  0.00    +0.000 C 
ATOM     20  C2* UNL     1       6.242   5.556  16.382  0.00  0.00    +0.000 C 
BRANCH  19  21
ATOM     21  O3* UNL     1       8.187   7.078  16.335  0.00  0.00    +0.000 OA
ATOM     22  H3* UNL     1       8.794   7.591  16.895  0.00  0.00    +0.000 HD
ENDBRANCH  19  21
BRANCH  20  23
ATOM     23  O2* UNL     1       5.242   6.243  15.646  0.00  0.00    +0.000 OA
ATOM     24  H2* UNL     1       5.675   6.611  14.846  0.00  0.00    +0.000 HD
ENDBRANCH  20  23
BRANCH  18  25
ATOM     25  C5* UNL     1       8.247   6.167  19.443  0.00  0.00    +0.000 C 
BRANCH  25  26
ATOM     26  O5* UNL     1       8.180   5.238  20.526  0.00  0.00    +0.000 OA
ATOM     27  H5* UNL     1       7.240   4.990  20.607  0.00  0.00    +0.000 HD
ENDBRANCH  25  26
ENDBRANCH  18  25
ENDBRANCH   9  16
BRANCH   1  28
ATOM     28  N   UNL     1       0.258   4.038  20.131  0.00  0.00    +0.000 N 
ATOM     29  H   UNL     1      -0.220   3.257  20.563  0.00  0.00    +0.000 HD
ATOM     30  H   UNL     1      -0.313   4.635  19.547  0.00  0.00    +0.000 HD
ENDBRANCH   1  28
TORSDOF 7
ENDMDL
MODEL 6
REMARK VINA RESULT:      -6.8      3.234      6.754
REMARK  Name = 
REMARK  7 active torsions:
REMARK  status: ('A' for Active; 'I' for Inactive)
REMARK    1  A    between atoms: N_1  and  C_2
REMARK    2  A    between atoms: C_8  and  C_9
REMARK    3  A    between atoms: N_16  and  C1*_17
REMARK    4  A    between atoms: C4*_19  and  C5*_20
REMARK    5  A    between atoms: C5*_20  and  O5*_21
REMARK    6  A    between atoms: C3*_22  and  O3*_23
REMARK    7  A    between atoms: C2*_24  and  O2*_25
REMARK                            x       y       z     vdW  Elec       q    Type
REMARK                         _______ _______ _______ _____ _____    ______ ____
ROOT
ATOM      1  C   UNL     1       6.906   4.590  17.697  0.00  0.00    +0.000 A 
ATOM      2  N   UNL     1       6.933   4.709  19.037  0.00  0.00    +0.000 NA
ATOM      3  C   UNL     1       5.786   4.587  19.713  0.00  0.00    +0.000 A 
ATOM      4  N   UNL     1       4.562   4.349  19.218  0.00  0.00    +0.000 NA
ATOM      5  C   UNL     1       4.563   4.256  17.878  0.00  0.00    +0.000 A 
ATOM      6  C   UNL     1       5.675   4.341  17.049  0.00  0.00    +0.000 A 
ATOM      7  C   UNL     1       5.209   4.141  15.704  0.00  0.00    +0.000 A 
ATOM      8  C   UNL     1       3.835   3.976  15.775  0.00  0.00    +0.000 A 
ATOM      9  N   UNL     1       3.451   4.027  17.102  0.00  0.00    +0.000 N 
ENDROOT
BRANCH   7  10
ATOM     10  C   UNL     1       5.948   4.119  14.444  0.00  0.00    +0.000 A 
ATOM     11  C   UNL     1       7.044   4.968  14.255  0.00  0.00    +0.000 A 
ATOM     12  C   UNL     1       7.658   5.085  13.006  0.00  0.00    +0.000 A 
ATOM     13  C   UNL     1       7.231   4.289  11.949  0.00  0.00    +0.000 A 
ATOM     14  C   UNL     1       6.201   3.371  12.144  0.00  0.00    +0.000 A 
ATOM     15  C   UNL     1       5.553   3.294  13.383  0.00  0.00    +0.000 A 
ENDBRANCH   7  10
BRANCH   9  16
ATOM     16  C1* UNL     1       2.075   3.863  17.546  0.00  0.00    +0.000 C 
ATOM     17  O4* UNL     1       1.684   5.059  18.258  0.00  0.00    +0.000 OA
ATOM     18  C4* UNL     1       1.211   4.674  19.572  0.00  0.00    +0.000 C 
ATOM     19  C3* UNL     1       1.695   3.256  19.837  0.00  0.00    +0.000 C 
ATOM     20  C2* UNL     1       1.691   2.664  18.433  0.00  0.00    +0.000 C 
BRANCH  19  21
ATOM     21  O3* UNL     1       0.857   2.561  20.756  0.00  0.00    +0.000 OA
ATOM     22  H3* UNL     1       0.216   2.019  20.264  0.00  0.00    +0.000 HD
ENDBRANCH  19  21
BRANCH  20  23
ATOM     23  O2* UNL     1       2.466   1.485  18.287  0.00  0.00    +0.000 OA
ATOM     24  H2* UNL     1       2.093   0.987  17.528  0.00  0.00    +0.000 HD
ENDBRANCH  20  23
BRANCH  18  25
ATOM     25  C5* UNL     1       1.731   5.675  20.601  0.00  0.00    +0.000 C 
BRANCH  25  26
ATOM     26  O5* UNL     1       2.593   5.009  21.526  0.00  0.00    +0.000 OA
ATOM     27  H5* UNL     1       3.318   4.632  20.992  0.00  0.00    +0.000 HD
ENDBRANCH  25  26
ENDBRANCH  18  25
ENDBRANCH   9  16
BRANCH   1  28
ATOM     28  N   UNL     1       8.130   4.743  17.062  0.00  0.00    +0.000 N 
ATOM     29  H   UNL     1       8.870   4.335  17.621  0.00  0.00    +0.000 HD
ATOM     30  H   UNL     1       8.305   5.677  16.716  0.00  0.00    +0.000 HD
ENDBRANCH   1  28
TORSDOF 7
ENDMDL
MODEL 7
REMARK VINA RESULT:      -6.8      1.401      2.591
REMARK  Name = 
REMARK  7 active torsions:
REMARK  status: ('A' for Active; 'I' for Inactive)
REMARK    1  A    between atoms: N_1  and  C_2
REMARK    2  A    between atoms: C_8  and  C_9
REMARK    3  A    between atoms: N_16  and  C1*_17
REMARK    4  A    between atoms: C4*_19  and  C5*_20
REMARK    5  A    between atoms: C5*_20  and  O5*_21
REMARK    6  A    between atoms: C3*_22  and  O3*_23
REMARK    7  A    between atoms: C2*_24  and  O2*_25
REMARK                            x       y       z     vdW  Elec       q    Type
REMARK                         _______ _______ _______ _____ _____    ______ ____
ROOT
ATOM      1  C   UNL     1       2.080   5.141  19.810  0.00  0.00    +0.000 A 
ATOM      2  N   UNL     1       2.588   3.900  19.920  0.00  0.00    +0.000 NA
ATOM      3  C   UNL     1       3.748   3.628  19.313  0.00  0.00    +0.000 A 
ATOM      4  N   UNL     1       4.507   4.458  18.581  0.00  0.00    +0.000 NA
ATOM      5  C   UNL     1       3.963   5.682  18.471  0.00  0.00    +0.000 A 
ATOM      6  C   UNL     1       2.781   6.112  19.061  0.00  0.00    +0.000 A 
ATOM      7  C   UNL     1       2.619   7.496  18.707  0.00  0.00    +0.000 A 
ATOM      8  C   UNL     1       3.691   7.833  17.896  0.00  0.00    +0.000 A 
ATOM      9  N   UNL     1       4.515   6.730  17.773  0.00  0.00    +0.000 N 
ENDROOT
BRANCH   7  10
ATOM     10  C   UNL     1       1.563   8.442  19.062  0.00  0.00    +0.000 A 
ATOM     11  C   UNL     1       0.903   9.167  18.064  0.00  0.00    +0.000 A 
ATOM     12  C   UNL     1       0.013  10.193  18.388  0.00  0.00    +0.000 A 
ATOM     13  C   UNL     1      -0.287  10.452  19.721  0.00  0.00    +0.000 A 
ATOM     14  C   UNL     1       0.291   9.679  20.724  0.00  0.00    +0.000 A 
ATOM     15  C   UNL     1       1.222   8.685  20.399  0.00  0.00    +0.000 A 
ENDBRANCH   7  10
BRANCH   9  16
ATOM     16  C1* UNL     1       5.754   6.736  17.008  0.00  0.00    +0.000 C 
ATOM     17  O4* UNL     1       5.488   6.146  15.714  0.00  0.00    +0.000 OA
ATOM     18  C4* UNL     1       6.417   5.052  15.513  0.00  0.00    +0.000 C 
ATOM     19  C3* UNL     1       7.002   4.689  16.870  0.00  0.00    +0.000 C 
ATOM     20  C2* UNL     1       7.008   6.042  17.571  0.00  0.00    +0.000 C 
BRANCH  19  21
ATOM     21  O3* UNL     1       8.291   4.093  16.762  0.00  0.00    +0.000 OA
ATOM     22  H3* UNL     1       8.886   4.691  16.280  0.00  0.00    +0.000 HD
ENDBRANCH  19  21
BRANCH  20  23
ATOM     23  O2* UNL     1       7.123   5.974  18.984  0.00  0.00    +0.000 OA
ATOM     24  H2* UNL     1       6.757   6.810  19.343  0.00  0.00    +0.000 HD
ENDBRANCH  20  23
BRANCH  18  25
ATOM     25  C5* UNL     1       5.677   3.887  14.860  0.00  0.00    +0.000 C 
BRANCH  25  26
ATOM     26  O5* UNL     1       6.430   3.404  13.746  0.00  0.00    +0.000 OA
ATOM     27  H5* UNL     1       5.943   3.691  12.950  0.00  0.00    +0.000 HD
ENDBRANCH  25  26
ENDBRANCH  18  25
ENDBRANCH   9  16
BRANCH   1  28
ATOM     28  N   UNL     1       0.868   5.346  20.454  0.00  0.00    +0.000 N 
ATOM     29  H   UNL     1       0.719   6.334  20.619  0.00  0.00    +0.000 HD
ATOM     30  H   UNL     1       0.711   4.738  21.247  0.00  0.00    +0.000 HD
ENDBRANCH   1  28
TORSDOF 7
ENDMDL
MODEL 8
REMARK VINA RESULT:      -6.6      9.206     10.569
REMARK  Name = 
REMARK  7 active torsions:
REMARK  status: ('A' for Active; 'I' for Inactive)
REMARK    1  A    between atoms: N_1  and  C_2
REMARK    2  A    between atoms: C_8  and  C_9
REMARK    3  A    between atoms: N_16  and  C1*_17
REMARK    4  A    between atoms: C4*_19  and  C5*_20
REMARK    5  A    between atoms: C5*_20  and  O5*_21
REMARK    6  A    between atoms: C3*_22  and  O3*_23
REMARK    7  A    between atoms: C2*_24  and  O2*_25
REMARK                            x       y       z     vdW  Elec       q    Type
REMARK                         _______ _______ _______ _____ _____    ______ ____
ROOT
ATOM      1  C   UNL     1       7.028  14.733  20.240  0.00  0.00    +0.000 A 
ATOM      2  N   UNL     1       6.832  15.303  19.037  0.00  0.00    +0.000 NA
ATOM      3  C   UNL     1       7.818  15.250  18.135  0.00  0.00    +0.000 A 
ATOM      4  N   UNL     1       9.025  14.679  18.270  0.00  0.00    +0.000 NA
ATOM      5  C   UNL     1       9.199  14.137  19.488  0.00  0.00    +0.000 A 
ATOM      6  C   UNL     1       8.261  14.100  20.513  0.00  0.00    +0.000 A 
ATOM      7  C   UNL     1       8.867  13.388  21.605  0.00  0.00    +0.000 A 
ATOM      8  C   UNL     1      10.151  13.054  21.206  0.00  0.00    +0.000 A 
ATOM      9  N   UNL     1      10.340  13.495  19.910  0.00  0.00    +0.000 N 
ENDROOT
BRANCH   7  10
ATOM     10  C   UNL     1       8.330  13.049  22.921  0.00  0.00    +0.000 A 
ATOM     11  C   UNL     1       8.578  13.881  24.019  0.00  0.00    +0.000 A 
ATOM     12  C   UNL     1       8.221  13.493  25.312  0.00  0.00    +0.000 A 
ATOM     13  C   UNL     1       7.536  12.299  25.511  0.00  0.00    +0.000 A 
ATOM     14  C   UNL     1       7.199  11.503  24.419  0.00  0.00    +0.000 A 
ATOM     15  C   UNL     1       7.604  11.869  23.130  0.00  0.00    +0.000 A 
ENDBRANCH   7  10
BRANCH   9  16
ATOM     16  C1* UNL     1      11.572  13.290  19.164  0.00  0.00    +0.000 C 
ATOM     17  O4* UNL     1      12.134  14.586  18.854  0.00  0.00    +0.000 OA
ATOM     18  C4* UNL     1      12.333  14.665  17.421  0.00  0.00    +0.000 C 
ATOM     19  C3* UNL     1      11.505  13.561  16.780  0.00  0.00    +0.000 C 
ATOM     20  C2* UNL     1      11.552  12.481  17.853  0.00  0.00    +0.000 C 
BRANCH  19  21
ATOM     21  O3* UNL     1      12.036  13.146  15.524  0.00  0.00    +0.000 OA
ATOM     22  H3* UNL     1      12.574  13.863  15.147  0.00  0.00    +0.000 HD
ENDBRANCH  19  21
BRANCH  20  23
ATOM     23  O2* UNL     1      10.551  11.483  17.731  0.00  0.00    +0.000 OA
ATOM     24  H2* UNL     1      10.996  10.615  17.837  0.00  0.00    +0.000 HD
ENDBRANCH  20  23
BRANCH  18  25
ATOM     25  C5* UNL     1      11.931  16.057  16.940  0.00  0.00    +0.000 C 
BRANCH  25  26
ATOM     26  O5* UNL     1      10.842  15.952  16.023  0.00  0.00    +0.000 OA
ATOM     27  H5* UNL     1      10.573  15.014  16.033  0.00  0.00    +0.000 HD
ENDBRANCH  25  26
ENDBRANCH  18  25
ENDBRANCH   9  16
BRANCH   1  28
ATOM     28  N   UNL     1       5.968  14.841  21.128  0.00  0.00    +0.000 N 
ATOM     29  H   UNL     1       5.371  15.619  20.872  0.00  0.00    +0.000 HD
ATOM     30  H   UNL     1       6.236  14.795  22.103  0.00  0.00    +0.000 HD
ENDBRANCH   1  28
TORSDOF 7
ENDMDL
MODEL 9
REMARK VINA RESULT:      -6.4      2.771      4.815
REMARK  Name = 
REMARK  7 active torsions:
REMARK  status: ('A' for Active; 'I' for Inactive)
REMARK    1  A    between atoms: N_1  and  C_2
REMARK    2  A    between atoms: C_8  and  C_9
REMARK    3  A    between atoms: N_16  and  C1*_17
REMARK    4  A    between atoms: C4*_19  and  C5*_20
REMARK    5  A    between atoms: C5*_20  and  O5*_21
REMARK    6  A    between atoms: C3*_22  and  O3*_23
REMARK    7  A    between atoms: C2*_24  and  O2*_25
REMARK                            x       y       z     vdW  Elec       q    Type
REMARK                         _______ _______ _______ _____ _____    ______ ____
ROOT
ATOM      1  C   UNL     1       2.473   8.720  18.066  0.00  0.00    +0.000 A 
ATOM      2  N   UNL     1       3.214   8.275  17.035  0.00  0.00    +0.000 NA
ATOM      3  C   UNL     1       3.649   7.010  17.059  0.00  0.00    +0.000 A 
ATOM      4  N   UNL     1       3.436   6.086  18.007  0.00  0.00    +0.000 NA
ATOM      5  C   UNL     1       2.712   6.566  19.033  0.00  0.00    +0.000 A 
ATOM      6  C   UNL     1       2.179   7.845  19.136  0.00  0.00    +0.000 A 
ATOM      7  C   UNL     1       1.450   7.894  20.373  0.00  0.00    +0.000 A 
ATOM      8  C   UNL     1       1.598   6.656  20.978  0.00  0.00    +0.000 A 
ATOM      9  N   UNL     1       2.351   5.846  20.148  0.00  0.00    +0.000 N 
ENDROOT
BRANCH   7  10
ATOM     10  C   UNL     1       0.687   8.986  20.975  0.00  0.00    +0.000 A 
ATOM     11  C   UNL     1       0.647   9.133  22.366  0.00  0.00    +0.000 A 
ATOM     12  C   UNL     1      -0.207  10.061  22.967  0.00  0.00    +0.000 A 
ATOM     13  C   UNL     1      -0.972  10.911  22.176  0.00  0.00    +0.000 A 
ATOM     14  C   UNL     1      -0.875  10.839  20.788  0.00  0.00    +0.000 A 
ATOM     15  C   UNL     1      -0.058   9.873  20.188  0.00  0.00    +0.000 A 
ENDBRANCH   7  10
BRANCH   9  16
ATOM     16  C1* UNL     1       2.681   4.464  20.460  0.00  0.00    +0.000 C 
ATOM     17  O4* UNL     1       3.878   4.109  19.730  0.00  0.00    +0.000 OA
ATOM     18  C4* UNL     1       3.599   2.926  18.942  0.00  0.00    +0.000 C 
ATOM     19  C3* UNL     1       2.086   2.775  18.861  0.00  0.00    +0.000 C 
ATOM     20  C2* UNL     1       1.650   3.350  20.203  0.00  0.00    +0.000 C 
BRANCH  19  21
ATOM     21  O3* UNL     1       1.688   1.422  18.659  0.00  0.00    +0.000 OA
ATOM     22  H3* UNL     1       1.286   1.330  17.779  0.00  0.00    +0.000 HD
ENDBRANCH  19  21
BRANCH  20  23
ATOM     23  O2* UNL     1       0.281   3.717  20.271  0.00  0.00    +0.000 OA
ATOM     24  H2* UNL     1      -0.221   2.912  20.525  0.00  0.00    +0.000 HD
ENDBRANCH  20  23
BRANCH  18  25
ATOM     25  C5* UNL     1       4.249   3.078  17.570  0.00  0.00    +0.000 C 
BRANCH  25  26
ATOM     26  O5* UNL     1       5.486   3.779  17.700  0.00  0.00    +0.000 OA
ATOM     27  H5* UNL     1       5.250   4.718  17.824  0.00  0.00    +0.000 HD
ENDBRANCH  25  26
ENDBRANCH  18  25
ENDBRANCH   9  16
BRANCH   1  28
ATOM     28  N   UNL     1       2.070  10.045  17.980  0.00  0.00    +0.000 N 
ATOM     29  H   UNL     1       1.107  10.141  18.277  0.00  0.00    +0.000 HD
ATOM     30  H   UNL     1       2.308  10.495  17.105  0.00  0.00    +0.000 HD
ENDBRANCH   1  28
TORSDOF 7
ENDMDL
