MODEL 1
REMARK VINA RESULT:      -9.2      0.000      0.000
REMARK  Name = 
REMARK  9 active torsions:
REMARK  status: ('A' for Active; 'I' for Inactive)
REMARK    1  A    between atoms: C_1  and  C_2
REMARK    2  A    between atoms: C_7  and  C_8
REMARK    3  A    between atoms: C_10  and  O_11
REMARK    4  A    between atoms: O_11  and  C_12
REMARK    5  A    between atoms: C_12  and  C_13
REMARK    6  A    between atoms: C_12  and  C_14
REMARK    7  A    between atoms: N_16  and  C_17
REMARK    8  A    between atoms: C_21  and  N_22
REMARK    9  A    between atoms: C_23  and  C_25
REMARK                            x       y       z     vdW  Elec       q    Type
REMARK                         _______ _______ _______ _____ _____    ______ ____
ROOT
ATOM      1  C   UNL     1       7.087   6.038  17.034  0.00  0.00    +0.000 A 
ATOM      2  C   UNL     1       7.333   5.351  18.229  0.00  0.00    +0.000 A 
ATOM      3  C   UNL     1       7.999   5.987  19.265  0.00  0.00    +0.000 A 
ATOM      4  C   UNL     1       8.406   7.313  19.121  0.00  0.00    +0.000 A 
ATOM      5  C   UNL     1       8.166   8.031  17.945  0.00  0.00    +0.000 A 
ATOM      6  C   UNL     1       7.541   7.366  16.876  0.00  0.00    +0.000 A 
ENDROOT
BRANCH   1  11
ATOM      7  C   UNL     1       5.228   4.584  16.039  0.00  0.00    +0.000 A 
ATOM      8  N   UNL     1       5.121   3.947  14.881  0.00  0.00    +0.000 NA
ATOM      9  C   UNL     1       6.144   4.452  14.138  0.00  0.00    +0.000 A 
ATOM     10  N   UNL     1       6.871   5.398  14.727  0.00  0.00    +0.000 NA
ATOM     11  N   UNL     1       6.383   5.379  15.989  0.00  0.00    +0.000 N 
BRANCH   7  18
ATOM     12  C   UNL     1       3.825   7.069  17.065  0.00  0.00    +0.000 C 
ATOM     13  C   UNL     1       3.580   5.693  17.628  0.00  0.00    +0.000 A 
ATOM     14  C   UNL     1       2.677   5.581  18.706  0.00  0.00    +0.000 A 
ATOM     15  C   UNL     1       2.382   4.344  19.276  0.00  0.00    +0.000 A 
ATOM     16  C   UNL     1       3.008   3.204  18.797  0.00  0.00    +0.000 A 
ATOM     17  C   UNL     1       3.943   3.306  17.765  0.00  0.00    +0.000 A 
ATOM     18  C   UNL     1       4.235   4.537  17.141  0.00  0.00    +0.000 A 
ENDBRANCH   7  18
BRANCH   9  19
ATOM     19  O   UNL     1       6.541   4.106  12.898  0.00  0.00    +0.000 OA
BRANCH  19  20
ATOM     20  C   UNL     1       5.864   2.966  12.366  0.00  0.00    +0.000 C 
ATOM     21  C   UNL     1       4.644   3.454  11.589  0.00  0.00    +0.000 C 
ATOM     22  C   UNL     1       6.822   2.248  11.416  0.00  0.00    +0.000 C 
ENDBRANCH  19  20
ENDBRANCH   9  19
ENDBRANCH   1  11
BRANCH   5  23
ATOM     23  N   UNL     1       8.500   9.409  17.805  0.00  0.00    +0.000 N 
ATOM     24  C   UNL     1       9.040  10.220  18.800  0.00  0.00    +0.000 C 
ATOM     25  O   UNL     1       9.344   9.847  19.931  0.00  0.00    +0.000 OA
ATOM     26  H   UNL     1       8.273   9.843  16.916  0.00  0.00    +0.000 HD
BRANCH  24  27
ATOM     27  C   UNL     1       9.276  11.662  18.504  0.00  0.00    +0.000 A 
ATOM     28  C   UNL     1      10.371  12.288  19.133  0.00  0.00    +0.000 A 
ATOM     29  C   UNL     1      10.663  13.634  18.904  0.00  0.00    +0.000 A 
ATOM     30  C   UNL     1       9.861  14.378  18.043  0.00  0.00    +0.000 A 
ATOM     31  C   UNL     1       8.764  13.775  17.425  0.00  0.00    +0.000 A 
ATOM     32  C   UNL     1       8.475  12.427  17.660  0.00  0.00    +0.000 A 
ATOM     33  F   UNL     1       7.404  11.893  17.055  0.00  0.00    +0.000 F 
ENDBRANCH  24  27
ENDBRANCH   5  23
TORSDOF 6
ENDMDL
MODEL 2
REMARK VINA RESULT:      -9.1      4.412      8.018
REMARK  Name = 
REMARK  9 active torsions:
REMARK  status: ('A' for Active; 'I' for Inactive)
REMARK    1  A    between atoms: C_1  and  C_2
REMARK    2  A    between atoms: C_7  and  C_8
REMARK    3  A    between atoms: C_10  and  O_11
REMARK    4  A    between atoms: O_11  and  C_12
REMARK    5  A    between atoms: C_12  and  C_13
REMARK    6  A    between atoms: C_12  and  C_14
REMARK    7  A    between atoms: N_16  and  C_17
REMARK    8  A    between atoms: C_21  and  N_22
REMARK    9  A    between atoms: C_23  and  C_25
REMARK                            x       y       z     vdW  Elec       q    Type
REMARK                         _______ _______ _______ _____ _____    ______ ____
ROOT
ATOM      1  C   UNL     1       4.894   5.913  17.755  0.00  0.00    +0.000 A 
ATOM      2  C   UNL     1       6.038   5.998  18.558  0.00  0.00    +0.000 A 
ATOM      3  C   UNL     1       7.172   5.277  18.219  0.00  0.00    +0.000 A 
ATOM      4  C   UNL     1       7.177   4.485  17.072  0.00  0.00    +0.000 A 
ATOM      5  C   UNL     1       6.055   4.387  16.243  0.00  0.00    +0.000 A 
ATOM      6  C   UNL     1       4.888   5.074  16.619  0.00  0.00    +0.000 A 
ENDROOT
BRANCH   1  11
ATOM      7  C   UNL     1       2.537   6.272  18.691  0.00  0.00    +0.000 A 
ATOM      8  N   UNL     1       1.664   7.259  18.546  0.00  0.00    +0.000 NA
ATOM      9  C   UNL     1       2.394   8.257  17.978  0.00  0.00    +0.000 A 
ATOM     10  N   UNL     1       3.684   7.990  17.789  0.00  0.00    +0.000 NA
ATOM     11  N   UNL     1       3.746   6.676  18.104  0.00  0.00    +0.000 N 
BRANCH   7  18
ATOM     12  C   UNL     1       1.691   3.706  17.314  0.00  0.00    +0.000 C 
ATOM     13  C   UNL     1       1.895   3.814  18.803  0.00  0.00    +0.000 A 
ATOM     14  C   UNL     1       1.643   2.663  19.580  0.00  0.00    +0.000 A 
ATOM     15  C   UNL     1       1.821   2.672  20.962  0.00  0.00    +0.000 A 
ATOM     16  C   UNL     1       2.226   3.838  21.593  0.00  0.00    +0.000 A 
ATOM     17  C   UNL     1       2.430   4.998  20.843  0.00  0.00    +0.000 A 
ATOM     18  C   UNL     1       2.295   5.012  19.438  0.00  0.00    +0.000 A 
ENDBRANCH   7  18
BRANCH   9  19
ATOM     19  O   UNL     1       1.987   9.469  17.554  0.00  0.00    +0.000 OA
BRANCH  19  20
ATOM     20  C   UNL     1       1.309  10.238  18.550  0.00  0.00    +0.000 C 
ATOM     21  C   UNL     1       1.823  11.673  18.479  0.00  0.00    +0.000 C 
ATOM     22  C   UNL     1      -0.185  10.213  18.229  0.00  0.00    +0.000 C 
ENDBRANCH  19  20
ENDBRANCH   9  19
ENDBRANCH   1  11
BRANCH   5  23
ATOM     23  N   UNL     1       6.064   3.648  15.024  0.00  0.00    +0.000 N 
ATOM     24  C   UNL     1       6.500   4.122  13.790  0.00  0.00    +0.000 C 
ATOM     25  O   UNL     1       6.980   5.234  13.587  0.00  0.00    +0.000 OA
ATOM     26  H   UNL     1       5.667   2.714  15.057  0.00  0.00    +0.000 HD
BRANCH  24  27
ATOM     27  C   UNL     1       6.385   3.234  12.597  0.00  0.00    +0.000 A 
ATOM     28  C   UNL     1       7.577   2.728  12.041  0.00  0.00    +0.000 A 
ATOM     29  C   UNL     1       7.554   1.886  10.927  0.00  0.00    +0.000 A 
ATOM     30  C   UNL     1       6.337   1.539  10.349  0.00  0.00    +0.000 A 
ATOM     31  C   UNL     1       5.149   2.044  10.880  0.00  0.00    +0.000 A 
ATOM     32  C   UNL     1       5.177   2.889  11.994  0.00  0.00    +0.000 A 
ATOM     33  F   UNL     1       4.013   3.362  12.463  0.00  0.00    +0.000 F 
ENDBRANCH  24  27
ENDBRANCH   5  23
TORSDOF 6
ENDMDL
MODEL 3
REMARK VINA RESULT:      -9.0      3.173      6.072
REMARK  Name = 
REMARK  9 active torsions:
REMARK  status: ('A' for Active; 'I' for Inactive)
REMARK    1  A    between atoms: C_1  and  C_2
REMARK    2  A    between atoms: C_7  and  C_8
REMARK    3  A    between atoms: C_10  and  O_11
REMARK    4  A    between atoms: O_11  and  C_12
REMARK    5  A    between atoms: C_12  and  C_13
REMARK    6  A    between atoms: C_12  and  C_14
REMARK    7  A    between atoms: N_16  and  C_17
REMARK    8  A    between atoms: C_21  and  N_22
REMARK    9  A    between atoms: C_23  and  C_25
REMARK                            x       y       z     vdW  Elec       q    Type
REMARK                         _______ _______ _______ _____ _____    ______ ____
ROOT
ATOM      1  C   UNL     1       4.509   4.644  16.635  0.00  0.00    +0.000 A 
ATOM      2  C   UNL     1       3.887   3.419  16.908  0.00  0.00    +0.000 A 
ATOM      3  C   UNL     1       2.831   3.368  17.803  0.00  0.00    +0.000 A 
ATOM      4  C   UNL     1       2.378   4.535  18.415  0.00  0.00    +0.000 A 
ATOM      5  C   UNL     1       2.969   5.776  18.156  0.00  0.00    +0.000 A 
ATOM      6  C   UNL     1       4.077   5.818  17.292  0.00  0.00    +0.000 A 
ENDROOT
BRANCH   1  11
ATOM      7  C   UNL     1       6.710   5.513  15.655  0.00  0.00    +0.000 A 
ATOM      8  N   UNL     1       7.255   5.393  14.452  0.00  0.00    +0.000 NA
ATOM      9  C   UNL     1       6.507   4.428  13.851  0.00  0.00    +0.000 A 
ATOM     10  N   UNL     1       5.547   3.893  14.602  0.00  0.00    +0.000 NA
ATOM     11  N   UNL     1       5.578   4.685  15.698  0.00  0.00    +0.000 N 
BRANCH   7  18
ATOM     12  C   UNL     1       7.735   4.217  18.197  0.00  0.00    +0.000 C 
ATOM     13  C   UNL     1       7.745   5.706  17.969  0.00  0.00    +0.000 A 
ATOM     14  C   UNL     1       8.228   6.522  19.014  0.00  0.00    +0.000 A 
ATOM     15  C   UNL     1       8.286   7.908  18.881  0.00  0.00    +0.000 A 
ATOM     16  C   UNL     1       7.836   8.502  17.713  0.00  0.00    +0.000 A 
ATOM     17  C   UNL     1       7.308   7.711  16.690  0.00  0.00    +0.000 A 
ATOM     18  C   UNL     1       7.270   6.304  16.779  0.00  0.00    +0.000 A 
ENDBRANCH   7  18
BRANCH   9  19
ATOM     19  O   UNL     1       6.584   3.958  12.591  0.00  0.00    +0.000 OA
BRANCH  19  20
ATOM     20  C   UNL     1       5.672   2.894  12.309  0.00  0.00    +0.000 C 
ATOM     21  C   UNL     1       4.504   3.466  11.511  0.00  0.00    +0.000 C 
ATOM     22  C   UNL     1       6.407   1.853  11.466  0.00  0.00    +0.000 C 
ENDBRANCH  19  20
ENDBRANCH   9  19
ENDBRANCH   1  11
BRANCH   5  23
ATOM     23  N   UNL     1       2.472   6.993  18.707  0.00  0.00    +0.000 N 
ATOM     24  C   UNL     1       1.860   7.133  19.949  0.00  0.00    +0.000 C 
ATOM     25  O   UNL     1       1.701   6.230  20.767  0.00  0.00    +0.000 OA
ATOM     26  H   UNL     1       2.525   7.815  18.112  0.00  0.00    +0.000 HD
BRANCH  24  27
ATOM     27  C   UNL     1       1.341   8.473  20.349  0.00  0.00    +0.000 A 
ATOM     28  C   UNL     1       1.175   8.725  21.726  0.00  0.00    +0.000 A 
ATOM     29  C   UNL     1       0.700   9.957  22.183  0.00  0.00    +0.000 A 
ATOM     30  C   UNL     1       0.381  10.955  21.267  0.00  0.00    +0.000 A 
ATOM     31  C   UNL     1       0.526  10.715  19.900  0.00  0.00    +0.000 A 
ATOM     32  C   UNL     1       1.000   9.479  19.448  0.00  0.00    +0.000 A 
ATOM     33  F   UNL     1       1.112   9.287  18.126  0.00  0.00    +0.000 F 
ENDBRANCH  24  27
ENDBRANCH   5  23
TORSDOF 6
ENDMDL
MODEL 4
REMARK VINA RESULT:      -8.9      6.641     10.155
REMARK  Name = 
REMARK  9 active torsions:
REMARK  status: ('A' for Active; 'I' for Inactive)
REMARK    1  A    between atoms: C_1  and  C_2
REMARK    2  A    between atoms: C_7  and  C_8
REMARK    3  A    between atoms: C_10  and  O_11
REMARK    4  A    between atoms: O_11  and  C_12
REMARK    5  A    between atoms: C_12  and  C_13
REMARK    6  A    between atoms: C_12  and  C_14
REMARK    7  A    between atoms: N_16  and  C_17
REMARK    8  A    between atoms: C_21  and  N_22
REMARK    9  A    between atoms: C_23  and  C_25
REMARK                            x       y       z     vdW  Elec       q    Type
REMARK                         _______ _______ _______ _____ _____    ______ ____
ROOT
ATOM      1  C   UNL     1       0.401  10.792  20.633  0.00  0.00    +0.000 A 
ATOM      2  C   UNL     1      -0.076  10.540  21.925  0.00  0.00    +0.000 A 
ATOM      3  C   UNL     1       0.126   9.297  22.504  0.00  0.00    +0.000 A 
ATOM      4  C   UNL     1       0.818   8.309  21.807  0.00  0.00    +0.000 A 
ATOM      5  C   UNL     1       1.317   8.530  20.519  0.00  0.00    +0.000 A 
ATOM      6  C   UNL     1       1.061   9.772  19.912  0.00  0.00    +0.000 A 
ENDROOT
BRANCH   1  11
ATOM      7  C   UNL     1      -0.626  12.480  19.004  0.00  0.00    +0.000 A 
ATOM      8  N   UNL     1      -0.252  13.697  18.631  0.00  0.00    +0.000 NA
ATOM      9  C   UNL     1       0.710  14.030  19.534  0.00  0.00    +0.000 A 
ATOM     10  N   UNL     1       0.948  13.128  20.483  0.00  0.00    +0.000 NA
ATOM     11  N   UNL     1       0.205  12.079  20.061  0.00  0.00    +0.000 N 
BRANCH   7  18
ATOM     12  C   UNL     1      -3.442  12.873  20.057  0.00  0.00    +0.000 C 
ATOM     13  C   UNL     1      -3.103  11.909  18.950  0.00  0.00    +0.000 A 
ATOM     14  C   UNL     1      -4.155  11.136  18.414  0.00  0.00    +0.000 A 
ATOM     15  C   UNL     1      -3.932  10.231  17.378  0.00  0.00    +0.000 A 
ATOM     16  C   UNL     1      -2.649  10.063  16.881  0.00  0.00    +0.000 A 
ATOM     17  C   UNL     1      -1.589  10.783  17.437  0.00  0.00    +0.000 A 
ATOM     18  C   UNL     1      -1.788  11.734  18.460  0.00  0.00    +0.000 A 
ENDBRANCH   7  18
BRANCH   9  19
ATOM     19  O   UNL     1       1.478  15.136  19.585  0.00  0.00    +0.000 OA
BRANCH  19  20
ATOM     20  C   UNL     1       2.130  15.450  18.352  0.00  0.00    +0.000 C 
ATOM     21  C   UNL     1       2.592  16.903  18.411  0.00  0.00    +0.000 C 
ATOM     22  C   UNL     1       3.345  14.532  18.214  0.00  0.00    +0.000 C 
ENDBRANCH  19  20
ENDBRANCH   9  19
ENDBRANCH   1  11
BRANCH   5  23
ATOM     23  N   UNL     1       2.096   7.563  19.820  0.00  0.00    +0.000 N 
ATOM     24  C   UNL     1       2.399   7.590  18.462  0.00  0.00    +0.000 C 
ATOM     25  O   UNL     1       2.070   8.479  17.680  0.00  0.00    +0.000 OA
ATOM     26  H   UNL     1       2.409   6.760  20.357  0.00  0.00    +0.000 HD
BRANCH  24  27
ATOM     27  C   UNL     1       3.180   6.463  17.875  0.00  0.00    +0.000 A 
ATOM     28  C   UNL     1       4.394   6.774  17.232  0.00  0.00    +0.000 A 
ATOM     29  C   UNL     1       5.187   5.775  16.662  0.00  0.00    +0.000 A 
ATOM     30  C   UNL     1       4.775   4.448  16.726  0.00  0.00    +0.000 A 
ATOM     31  C   UNL     1       3.567   4.126  17.347  0.00  0.00    +0.000 A 
ATOM     32  C   UNL     1       2.776   5.131  17.913  0.00  0.00    +0.000 A 
ATOM     33  F   UNL     1       1.617   4.778  18.488  0.00  0.00    +0.000 F 
ENDBRANCH  24  27
ENDBRANCH   5  23
TORSDOF 6
ENDMDL
MODEL 5
REMARK VINA RESULT:      -8.8      3.634      6.322
REMARK  Name = 
REMARK  9 active torsions:
REMARK  status: ('A' for Active; 'I' for Inactive)
REMARK    1  A    between atoms: C_1  and  C_2
REMARK    2  A    between atoms: C_7  and  C_8
REMARK    3  A    between atoms: C_10  and  O_11
REMARK    4  A    between atoms: O_11  and  C_12
REMARK    5  A    between atoms: C_12  and  C_13
REMARK    6  A    between atoms: C_12  and  C_14
REMARK    7  A    between atoms: N_16  and  C_17
REMARK    8  A    between atoms: C_21  and  N_22
REMARK    9  A    between atoms: C_23  and  C_25
REMARK                            x       y       z     vdW  Elec       q    Type
REMARK                         _______ _______ _______ _____ _____    ______ ____
ROOT
ATOM      1  C   UNL     1       4.401   5.657  17.859  0.00  0.00    +0.000 A 
ATOM      2  C   UNL     1       4.129   4.825  18.951  0.00  0.00    +0.000 A 
ATOM      3  C   UNL     1       3.145   5.180  19.860  0.00  0.00    +0.000 A 
ATOM      4  C   UNL     1       2.417   6.354  19.675  0.00  0.00    +0.000 A 
ATOM      5  C   UNL     1       2.656   7.203  18.589  0.00  0.00    +0.000 A 
ATOM      6  C   UNL     1       3.692   6.869  17.700  0.00  0.00    +0.000 A 
ENDROOT
BRANCH   1  11
ATOM      7  C   UNL     1       6.606   5.894  16.579  0.00  0.00    +0.000 A 
ATOM      8  N   UNL     1       7.049   5.336  15.460  0.00  0.00    +0.000 NA
ATOM      9  C   UNL     1       6.161   4.332  15.225  0.00  0.00    +0.000 A 
ATOM     10  N   UNL     1       5.205   4.183  16.139  0.00  0.00    +0.000 NA
ATOM     11  N   UNL     1       5.398   5.269  16.923  0.00  0.00    +0.000 N 
BRANCH   7  18
ATOM     12  C   UNL     1       8.062   5.228  19.154  0.00  0.00    +0.000 C 
ATOM     13  C   UNL     1       8.004   6.619  18.576  0.00  0.00    +0.000 A 
ATOM     14  C   UNL     1       8.635   7.652  19.299  0.00  0.00    +0.000 A 
ATOM     15  C   UNL     1       8.642   8.964  18.829  0.00  0.00    +0.000 A 
ATOM     16  C   UNL     1       7.993   9.268  17.642  0.00  0.00    +0.000 A 
ATOM     17  C   UNL     1       7.321   8.265  16.941  0.00  0.00    +0.000 A 
ATOM     18  C   UNL     1       7.327   6.921  17.371  0.00  0.00    +0.000 A 
ENDBRANCH   7  18
BRANCH   9  19
ATOM     19  O   UNL     1       6.097   3.485  14.179  0.00  0.00    +0.000 OA
BRANCH  19  20
ATOM     20  C   UNL     1       5.899   4.129  12.919  0.00  0.00    +0.000 C 
ATOM     21  C   UNL     1       7.228   4.129  12.169  0.00  0.00    +0.000 C 
ATOM     22  C   UNL     1       4.867   3.321  12.132  0.00  0.00    +0.000 C 
ENDBRANCH  19  20
ENDBRANCH   9  19
ENDBRANCH   1  11
BRANCH   5  23
ATOM     23  N   UNL     1       1.870   8.364  18.336  0.00  0.00    +0.000 N 
ATOM     24  C   UNL     1       1.246   9.150  19.300  0.00  0.00    +0.000 C 
ATOM     25  O   UNL     1       1.321   8.975  20.514  0.00  0.00    +0.000 OA
ATOM     26  H   UNL     1       1.714   8.603  17.361  0.00  0.00    +0.000 HD
BRANCH  24  27
ATOM     27  C   UNL     1       0.409  10.303  18.859  0.00  0.00    +0.000 A 
ATOM     28  C   UNL     1      -0.810  10.015  18.212  0.00  0.00    +0.000 A 
ATOM     29  C   UNL     1      -1.654  11.038  17.773  0.00  0.00    +0.000 A 
ATOM     30  C   UNL     1      -1.290  12.366  17.973  0.00  0.00    +0.000 A 
ATOM     31  C   UNL     1      -0.079  12.666  18.599  0.00  0.00    +0.000 A 
ATOM     32  C   UNL     1       0.764  11.638  19.034  0.00  0.00    +0.000 A 
ATOM     33  F   UNL     1       1.924  11.971  19.618  0.00  0.00    +0.000 F 
ENDBRANCH  24  27
ENDBRANCH   5  23
TORSDOF 6
ENDMDL
MODEL 6
REMARK VINA RESULT:      -8.8      6.679     10.310
REMARK  Name = 
REMARK  9 active torsions:
REMARK  status: ('A' for Active; 'I' for Inactive)
REMARK    1  A    between atoms: C_1  and  C_2
REMARK    2  A    between atoms: C_7  and  C_8
REMARK    3  A    between atoms: C_10  and  O_11
REMARK    4  A    between atoms: O_11  and  C_12
REMARK    5  A    between atoms: C_12  and  C_13
REMARK    6  A    between atoms: C_12  and  C_14
REMARK    7  A    between atoms: N_16  and  C_17
REMARK    8  A    between atoms: C_21  and  N_22
REMARK    9  A    between atoms: C_23  and  C_25
REMARK                            x       y       z     vdW  Elec       q    Type
REMARK                         _______ _______ _______ _____ _____    ______ ____
ROOT
ATOM      1  C   UNL     1       0.492  10.774  20.543  0.00  0.00    +0.000 A 
ATOM      2  C   UNL     1       0.077  10.497  21.851  0.00  0.00    +0.000 A 
ATOM      3  C   UNL     1       0.309   9.244  22.396  0.00  0.00    +0.000 A 
ATOM      4  C   UNL     1       0.968   8.271  21.648  0.00  0.00    +0.000 A 
ATOM      5  C   UNL     1       1.405   8.518  20.342  0.00  0.00    +0.000 A 
ATOM      6  C   UNL     1       1.119   9.771  19.772  0.00  0.00    +0.000 A 
ENDROOT
BRANCH   1  11
ATOM      7  C   UNL     1      -0.587  12.486  18.972  0.00  0.00    +0.000 A 
ATOM      8  N   UNL     1      -0.237  13.716  18.623  0.00  0.00    +0.000 NA
ATOM      9  C   UNL     1       0.734  14.043  19.519  0.00  0.00    +0.000 A 
ATOM     10  N   UNL     1       1.001  13.122  20.441  0.00  0.00    +0.000 NA
ATOM     11  N   UNL     1       0.267  12.072  20.006  0.00  0.00    +0.000 N 
BRANCH   7  18
ATOM     12  C   UNL     1      -3.390  12.804  20.083  0.00  0.00    +0.000 C 
ATOM     13  C   UNL     1      -3.055  11.874  18.945  0.00  0.00    +0.000 A 
ATOM     14  C   UNL     1      -4.103  11.098  18.407  0.00  0.00    +0.000 A 
ATOM     15  C   UNL     1      -3.884  10.225  17.344  0.00  0.00    +0.000 A 
ATOM     16  C   UNL     1      -2.607  10.091  16.821  0.00  0.00    +0.000 A 
ATOM     17  C   UNL     1      -1.549  10.814  17.377  0.00  0.00    +0.000 A 
ATOM     18  C   UNL     1      -1.746  11.735  18.428  0.00  0.00    +0.000 A 
ENDBRANCH   7  18
BRANCH   9  19
ATOM     19  O   UNL     1       1.486  15.160  19.584  0.00  0.00    +0.000 OA
BRANCH  19  20
ATOM     20  C   UNL     1       2.042  15.561  18.330  0.00  0.00    +0.000 C 
ATOM     21  C   UNL     1       2.250  17.072  18.362  0.00  0.00    +0.000 C 
ATOM     22  C   UNL     1       3.392  14.862  18.168  0.00  0.00    +0.000 C 
ENDBRANCH  19  20
ENDBRANCH   9  19
ENDBRANCH   1  11
BRANCH   5  23
ATOM     23  N   UNL     1       2.152   7.566  19.589  0.00  0.00    +0.000 N 
ATOM     24  C   UNL     1       2.157   6.190  19.795  0.00  0.00    +0.000 C 
ATOM     25  O   UNL     1       1.481   5.596  20.632  0.00  0.00    +0.000 OA
ATOM     26  H   UNL     1       2.772   7.938  18.876  0.00  0.00    +0.000 HD
BRANCH  24  27
ATOM     27  C   UNL     1       3.045   5.339  18.952  0.00  0.00    +0.000 A 
ATOM     28  C   UNL     1       4.414   5.293  19.283  0.00  0.00    +0.000 A 
ATOM     29  C   UNL     1       5.311   4.515  18.547  0.00  0.00    +0.000 A 
ATOM     30  C   UNL     1       4.850   3.772  17.464  0.00  0.00    +0.000 A 
ATOM     31  C   UNL     1       3.500   3.819  17.115  0.00  0.00    +0.000 A 
ATOM     32  C   UNL     1       2.607   4.601  17.854  0.00  0.00    +0.000 A 
ATOM     33  F   UNL     1       1.321   4.627  17.475  0.00  0.00    +0.000 F 
ENDBRANCH  24  27
ENDBRANCH   5  23
TORSDOF 6
ENDMDL
MODEL 7
REMARK VINA RESULT:      -8.8      6.421     10.094
REMARK  Name = 
REMARK  9 active torsions:
REMARK  status: ('A' for Active; 'I' for Inactive)
REMARK    1  A    between atoms: C_1  and  C_2
REMARK    2  A    between atoms: C_7  and  C_8
REMARK    3  A    between atoms: C_10  and  O_11
REMARK    4  A    between atoms: O_11  and  C_12
REMARK    5  A    between atoms: C_12  and  C_13
REMARK    6  A    between atoms: C_12  and  C_14
REMARK    7  A    between atoms: N_16  and  C_17
REMARK    8  A    between atoms: C_21  and  N_22
REMARK    9  A    between atoms: C_23  and  C_25
REMARK                            x       y       z     vdW  Elec       q    Type
REMARK                         _______ _______ _______ _____ _____    ______ ____
ROOT
ATOM      1  C   UNL     1       0.491  10.768  20.673  0.00  0.00    +0.000 A 
ATOM      2  C   UNL     1       0.013  10.565  21.973  0.00  0.00    +0.000 A 
ATOM      3  C   UNL     1       0.177   9.331  22.582  0.00  0.00    +0.000 A 
ATOM      4  C   UNL     1       0.831   8.302  21.906  0.00  0.00    +0.000 A 
ATOM      5  C   UNL     1       1.330   8.475  20.611  0.00  0.00    +0.000 A 
ATOM      6  C   UNL     1       1.113   9.710  19.975  0.00  0.00    +0.000 A 
ENDROOT
BRANCH   1  11
ATOM      7  C   UNL     1      -0.493  12.452  19.013  0.00  0.00    +0.000 A 
ATOM      8  N   UNL     1      -0.078  13.644  18.605  0.00  0.00    +0.000 NA
ATOM      9  C   UNL     1       0.907  13.964  19.488  0.00  0.00    +0.000 A 
ATOM     10  N   UNL     1       1.123  13.078  20.457  0.00  0.00    +0.000 NA
ATOM     11  N   UNL     1       0.336  12.047  20.070  0.00  0.00    +0.000 N 
BRANCH   7  18
ATOM     12  C   UNL     1      -3.271  12.938  20.124  0.00  0.00    +0.000 C 
ATOM     13  C   UNL     1      -2.986  11.954  19.020  0.00  0.00    +0.000 A 
ATOM     14  C   UNL     1      -4.072  11.209  18.514  0.00  0.00    +0.000 A 
ATOM     15  C   UNL     1      -3.900  10.288  17.483  0.00  0.00    +0.000 A 
ATOM     16  C   UNL     1      -2.634  10.077  16.959  0.00  0.00    +0.000 A 
ATOM     17  C   UNL     1      -1.541  10.771  17.484  0.00  0.00    +0.000 A 
ATOM     18  C   UNL     1      -1.688  11.736  18.502  0.00  0.00    +0.000 A 
ENDBRANCH   7  18
BRANCH   9  19
ATOM     19  O   UNL     1       1.716  15.042  19.501  0.00  0.00    +0.000 OA
BRANCH  19  20
ATOM     20  C   UNL     1       2.412  15.262  18.272  0.00  0.00    +0.000 C 
ATOM     21  C   UNL     1       2.900  16.708  18.251  0.00  0.00    +0.000 C 
ATOM     22  C   UNL     1       3.612  14.316  18.234  0.00  0.00    +0.000 C 
ENDBRANCH  19  20
ENDBRANCH   9  19
ENDBRANCH   1  11
BRANCH   5  23
ATOM     23  N   UNL     1       2.072   7.465  19.933  0.00  0.00    +0.000 N 
ATOM     24  C   UNL     1       2.284   7.396  18.559  0.00  0.00    +0.000 C 
ATOM     25  O   UNL     1       1.894   8.224  17.739  0.00  0.00    +0.000 OA
ATOM     26  H   UNL     1       2.430   6.705  20.504  0.00  0.00    +0.000 HD
BRANCH  24  27
ATOM     27  C   UNL     1       3.037   6.234  18.004  0.00  0.00    +0.000 A 
ATOM     28  C   UNL     1       2.396   4.979  18.004  0.00  0.00    +0.000 A 
ATOM     29  C   UNL     1       3.032   3.843  17.497  0.00  0.00    +0.000 A 
ATOM     30  C   UNL     1       4.321   3.946  16.983  0.00  0.00    +0.000 A 
ATOM     31  C   UNL     1       4.974   5.180  16.990  0.00  0.00    +0.000 A 
ATOM     32  C   UNL     1       4.334   6.313  17.501  0.00  0.00    +0.000 A 
ATOM     33  F   UNL     1       5.003   7.475  17.500  0.00  0.00    +0.000 F 
ENDBRANCH  24  27
ENDBRANCH   5  23
TORSDOF 6
ENDMDL
MODEL 8
REMARK VINA RESULT:      -8.7      6.421      9.487
REMARK  Name = 
REMARK  9 active torsions:
REMARK  status: ('A' for Active; 'I' for Inactive)
REMARK    1  A    between atoms: C_1  and  C_2
REMARK    2  A    between atoms: C_7  and  C_8
REMARK    3  A    between atoms: C_10  and  O_11
REMARK    4  A    between atoms: O_11  and  C_12
REMARK    5  A    between atoms: C_12  and  C_13
REMARK    6  A    between atoms: C_12  and  C_14
REMARK    7  A    between atoms: N_16  and  C_17
REMARK    8  A    between atoms: C_21  and  N_22
REMARK    9  A    between atoms: C_23  and  C_25
REMARK                            x       y       z     vdW  Elec       q    Type
REMARK                         _______ _______ _______ _____ _____    ______ ____
ROOT
ATOM      1  C   UNL     1       0.563   9.754  19.083  0.00  0.00    +0.000 A 
ATOM      2  C   UNL     1       0.429   9.457  20.444  0.00  0.00    +0.000 A 
ATOM      3  C   UNL     1       1.163   8.421  20.999  0.00  0.00    +0.000 A 
ATOM      4  C   UNL     1       2.046   7.691  20.206  0.00  0.00    +0.000 A 
ATOM      5  C   UNL     1       2.213   7.968  18.845  0.00  0.00    +0.000 A 
ATOM      6  C   UNL     1       1.425   8.982  18.273  0.00  0.00    +0.000 A 
ENDROOT
BRANCH   1  11
ATOM      7  C   UNL     1       0.008  12.219  18.660  0.00  0.00    +0.000 A 
ATOM      8  N   UNL     1      -1.092  12.821  18.231  0.00  0.00    +0.000 NA
ATOM      9  C   UNL     1      -1.860  11.799  17.764  0.00  0.00    +0.000 A 
ATOM     10  N   UNL     1      -1.309  10.589  17.827  0.00  0.00    +0.000 NA
ATOM     11  N   UNL     1      -0.181  10.834  18.533  0.00  0.00    +0.000 N 
BRANCH   7  18
ATOM     12  C   UNL     1       0.478  13.056  21.536  0.00  0.00    +0.000 C 
ATOM     13  C   UNL     1       1.474  13.303  20.433  0.00  0.00    +0.000 A 
ATOM     14  C   UNL     1       2.661  13.988  20.768  0.00  0.00    +0.000 A 
ATOM     15  C   UNL     1       3.641  14.245  19.812  0.00  0.00    +0.000 A 
ATOM     16  C   UNL     1       3.438  13.847  18.500  0.00  0.00    +0.000 A 
ATOM     17  C   UNL     1       2.246  13.213  18.143  0.00  0.00    +0.000 A 
ATOM     18  C   UNL     1       1.250  12.905  19.095  0.00  0.00    +0.000 A 
ENDBRANCH   7  18
BRANCH   9  19
ATOM     19  O   UNL     1      -3.114  11.836  17.272  0.00  0.00    +0.000 OA
BRANCH  19  20
ATOM     20  C   UNL     1      -3.691  10.548  17.050  0.00  0.00    +0.000 C 
ATOM     21  C   UNL     1      -5.035  10.495  17.772  0.00  0.00    +0.000 C 
ATOM     22  C   UNL     1      -3.911  10.383  15.546  0.00  0.00    +0.000 C 
ENDBRANCH  19  20
ENDBRANCH   9  19
ENDBRANCH   1  11
BRANCH   5  23
ATOM     23  N   UNL     1       3.167   7.289  18.035  0.00  0.00    +0.000 N 
ATOM     24  C   UNL     1       3.813   6.100  18.362  0.00  0.00    +0.000 C 
ATOM     25  O   UNL     1       3.617   5.444  19.382  0.00  0.00    +0.000 OA
ATOM     26  H   UNL     1       3.434   7.746  17.167  0.00  0.00    +0.000 HD
BRANCH  24  27
ATOM     27  C   UNL     1       4.833   5.552  17.422  0.00  0.00    +0.000 A 
ATOM     28  C   UNL     1       6.061   6.237  17.318  0.00  0.00    +0.000 A 
ATOM     29  C   UNL     1       7.071   5.785  16.466  0.00  0.00    +0.000 A 
ATOM     30  C   UNL     1       6.866   4.641  15.700  0.00  0.00    +0.000 A 
ATOM     31  C   UNL     1       5.650   3.961  15.781  0.00  0.00    +0.000 A 
ATOM     32  C   UNL     1       4.641   4.419  16.635  0.00  0.00    +0.000 A 
ATOM     33  F   UNL     1       3.484   3.743  16.672  0.00  0.00    +0.000 F 
ENDBRANCH  24  27
ENDBRANCH   5  23
TORSDOF 6
ENDMDL
MODEL 9
REMARK VINA RESULT:      -8.7      1.113      1.432
REMARK  Name = 
REMARK  9 active torsions:
REMARK  status: ('A' for Active; 'I' for Inactive)
REMARK    1  A    between atoms: C_1  and  C_2
REMARK    2  A    between atoms: C_7  and  C_8
REMARK    3  A    between atoms: C_10  and  O_11
REMARK    4  A    between atoms: O_11  and  C_12
REMARK    5  A    between atoms: C_12  and  C_13
REMARK    6  A    between atoms: C_12  and  C_14
REMARK    7  A    between atoms: N_16  and  C_17
REMARK    8  A    between atoms: C_21  and  N_22
REMARK    9  A    between atoms: C_23  and  C_25
REMARK                            x       y       z     vdW  Elec       q    Type
REMARK                         _______ _______ _______ _____ _____    ______ ____
ROOT
ATOM      1  C   UNL     1       7.003   5.904  17.463  0.00  0.00    +0.000 A 
ATOM      2  C   UNL     1       7.374   5.323  18.682  0.00  0.00    +0.000 A 
ATOM      3  C   UNL     1       8.139   6.045  19.584  0.00  0.00    +0.000 A 
ATOM      4  C   UNL     1       8.522   7.351  19.284  0.00  0.00    +0.000 A 
ATOM      5  C   UNL     1       8.160   7.964  18.080  0.00  0.00    +0.000 A 
ATOM      6  C   UNL     1       7.432   7.211  17.143  0.00  0.00    +0.000 A 
ENDROOT
BRANCH   1  11
ATOM      7  C   UNL     1       4.941   4.567  16.742  0.00  0.00    +0.000 A 
ATOM      8  N   UNL     1       4.730   3.733  15.733  0.00  0.00    +0.000 NA
ATOM      9  C   UNL     1       5.808   3.924  14.924  0.00  0.00    +0.000 A 
ATOM     10  N   UNL     1       6.672   4.853  15.326  0.00  0.00    +0.000 NA
ATOM     11  N   UNL     1       6.200   5.158  16.557  0.00  0.00    +0.000 N 
BRANCH   7  18
ATOM     12  C   UNL     1       3.762   7.340  17.085  0.00  0.00    +0.000 C 
ATOM     13  C   UNL     1       3.413   6.180  17.981  0.00  0.00    +0.000 A 
ATOM     14  C   UNL     1       2.519   6.423  19.044  0.00  0.00    +0.000 A 
ATOM     15  C   UNL     1       2.131   5.403  19.911  0.00  0.00    +0.000 A 
ATOM     16  C   UNL     1       2.654   4.130  19.746  0.00  0.00    +0.000 A 
ATOM     17  C   UNL     1       3.580   3.886  18.729  0.00  0.00    +0.000 A 
ATOM     18  C   UNL     1       3.963   4.887  17.812  0.00  0.00    +0.000 A 
ENDBRANCH   7  18
BRANCH   9  19
ATOM     19  O   UNL     1       6.137   3.283  13.786  0.00  0.00    +0.000 OA
BRANCH  19  20
ATOM     20  C   UNL     1       5.848   4.021  12.597  0.00  0.00    +0.000 C 
ATOM     21  C   UNL     1       7.129   4.124  11.774  0.00  0.00    +0.000 C 
ATOM     22  C   UNL     1       4.793   3.246  11.806  0.00  0.00    +0.000 C 
ENDBRANCH  19  20
ENDBRANCH   9  19
ENDBRANCH   1  11
BRANCH   5  23
ATOM     23  N   UNL     1       8.471   9.324  17.787  0.00  0.00    +0.000 N 
ATOM     24  C   UNL     1       9.098  10.219  18.650  0.00  0.00    +0.000 C 
ATOM     25  O   UNL     1       9.511   9.948  19.775  0.00  0.00    +0.000 OA
ATOM     26  H   UNL     1       8.157   9.677  16.888  0.00  0.00    +0.000 HD
BRANCH  24  27
ATOM     27  C   UNL     1       9.296  11.629  18.205  0.00  0.00    +0.000 A 
ATOM     28  C   UNL     1       8.169  12.476  18.197  0.00  0.00    +0.000 A 
ATOM     29  C   UNL     1       8.272  13.811  17.800  0.00  0.00    +0.000 A 
ATOM     30  C   UNL     1       9.505  14.319  17.403  0.00  0.00    +0.000 A 
ATOM     31  C   UNL     1      10.626  13.488  17.391  0.00  0.00    +0.000 A 
ATOM     32  C   UNL     1      10.517  12.151  17.788  0.00  0.00    +0.000 A 
ATOM     33  F   UNL     1      11.617  11.385  17.749  0.00  0.00    +0.000 F 
ENDBRANCH  24  27
ENDBRANCH   5  23
TORSDOF 6
ENDMDL
