MODEL 1
REMARK VINA RESULT:      -8.5      0.000      0.000
REMARK  Name = 
REMARK  5 active torsions:
REMARK  status: ('A' for Active; 'I' for Inactive)
REMARK    1  A    between atoms: N_1  and  C_2
REMARK    2  A    between atoms: C_5  and  C_6
REMARK    3  A    between atoms: N_8  and  C_9
REMARK    4  A    between atoms: C_12  and  N_13
REMARK    5  A    between atoms: C_25  and  N_26
REMARK                            x       y       z     vdW  Elec       q    Type
REMARK                         _______ _______ _______ _____ _____    ______ ____
ROOT
ATOM      1  C   UNL     1       1.438   7.936  21.065  0.00  0.00    +0.000 A 
ATOM      2  C   UNL     1       1.971   9.072  21.738  0.00  0.00    +0.000 A 
ATOM      3  C   UNL     1       1.115  10.025  22.318  0.00  0.00    +0.000 A 
ATOM      4  C   UNL     1      -0.279   9.858  22.280  0.00  0.00    +0.000 A 
ATOM      5  C   UNL     1      -0.769   8.626  21.797  0.00  0.00    +0.000 A 
ATOM      6  C   UNL     1       0.060   7.733  21.132  0.00  0.00    +0.000 A 
ENDROOT
BRANCH   4   7
ATOM      7  N   UNL     1      -1.174  10.931  22.682  0.00  0.00    +0.000 NA
ATOM      8  C   UNL     1      -1.860  11.759  21.904  0.00  0.00    +0.000 A 
ATOM      9  C   UNL     1      -2.984  12.475  22.465  0.00  0.00    +0.000 A 
ATOM     10  C   UNL     1      -3.380  12.350  23.813  0.00  0.00    +0.000 A 
ATOM     11  C   UNL     1      -4.516  13.035  24.285  0.00  0.00    +0.000 A 
ATOM     12  C   UNL     1      -5.217  13.907  23.450  0.00  0.00    +0.000 A 
ATOM     13  C   UNL     1      -4.855  14.024  22.122  0.00  0.00    +0.000 A 
ATOM     14  C   UNL     1      -3.805  13.260  21.616  0.00  0.00    +0.000 A 
ATOM     15  N   UNL     1      -3.689  13.143  20.286  0.00  0.00    +0.000 N 
ATOM     16  C   UNL     1      -2.759  12.346  19.723  0.00  0.00    +0.000 A 
ATOM     17  C   UNL     1      -2.951  11.894  18.425  0.00  0.00    +0.000 A 
ATOM     18  C   UNL     1      -2.038  11.031  17.841  0.00  0.00    +0.000 A 
ATOM     19  C   UNL     1      -0.803  10.836  18.450  0.00  0.00    +0.000 A 
ATOM     20  C   UNL     1      -0.580  11.338  19.740  0.00  0.00    +0.000 A 
ATOM     21  C   UNL     1      -1.681  11.843  20.474  0.00  0.00    +0.000 A 
ATOM     22  H   UNL     1      -4.405  13.594  19.671  0.00  0.00    +0.000 HD
BRANCH  19  23
ATOM     23  N   UNL     1       0.182  10.048  17.816  0.00  0.00    +0.000 N 
ATOM     24  H   UNL     1       1.029   9.774  18.334  0.00  0.00    +0.000 HD
ATOM     25  H   UNL     1       0.132   9.834  16.806  0.00  0.00    +0.000 HD
ENDBRANCH  19  23
ENDBRANCH   4   7
BRANCH   1  28
ATOM     26  C   UNL     1       2.540   7.186  18.953  0.00  0.00    +0.000 C 
ATOM     27  O   UNL     1       2.239   8.220  18.389  0.00  0.00    +0.000 OA
ATOM     28  N   UNL     1       2.204   7.016  20.268  0.00  0.00    +0.000 N 
ATOM     29  H   UNL     1       2.545   6.183  20.761  0.00  0.00    +0.000 HD
BRANCH  26  33
ATOM     30  C   UNL     1       4.945   4.328  16.759  0.00  0.00    +0.000 A 
ATOM     31  C   UNL     1       5.260   5.692  16.771  0.00  0.00    +0.000 A 
ATOM     32  C   UNL     1       4.454   6.595  17.457  0.00  0.00    +0.000 A 
ATOM     33  C   UNL     1       3.344   6.158  18.202  0.00  0.00    +0.000 A 
ATOM     34  C   UNL     1       3.011   4.785  18.173  0.00  0.00    +0.000 A 
ATOM     35  C   UNL     1       3.815   3.878  17.456  0.00  0.00    +0.000 A 
BRANCH  30  36
ATOM     36  N   UNL     1       5.763   3.416  16.048  0.00  0.00    +0.000 N 
ATOM     37  H   UNL     1       6.270   3.714  15.201  0.00  0.00    +0.000 HD
ATOM     38  H   UNL     1       5.875   2.444  16.373  0.00  0.00    +0.000 HD
ENDBRANCH  30  36
ENDBRANCH  26  33
ENDBRANCH   1  28
TORSDOF 5
ENDMDL
MODEL 2
REMARK VINA RESULT:      -8.0      1.244      1.754
REMARK  Name = 
REMARK  5 active torsions:
REMARK  status: ('A' for Active; 'I' for Inactive)
REMARK    1  A    between atoms: N_1  and  C_2
REMARK    2  A    between atoms: C_5  and  C_6
REMARK    3  A    between atoms: N_8  and  C_9
REMARK    4  A    between atoms: C_12  and  N_13
REMARK    5  A    between atoms: C_25  and  N_26
REMARK                            x       y       z     vdW  Elec       q    Type
REMARK                         _______ _______ _______ _____ _____    ______ ____
ROOT
ATOM      1  C   UNL     1       1.126   9.326  20.448  0.00  0.00    +0.000 A 
ATOM      2  C   UNL     1       1.382  10.710  20.236  0.00  0.00    +0.000 A 
ATOM      3  C   UNL     1       0.454  11.681  20.656  0.00  0.00    +0.000 A 
ATOM      4  C   UNL     1      -0.723  11.308  21.325  0.00  0.00    +0.000 A 
ATOM      5  C   UNL     1      -0.849   9.955  21.708  0.00  0.00    +0.000 A 
ATOM      6  C   UNL     1       0.007   8.984  21.209  0.00  0.00    +0.000 A 
ENDROOT
BRANCH   4   7
ATOM      7  N   UNL     1      -1.783  12.273  21.571  0.00  0.00    +0.000 NA
ATOM      8  C   UNL     1      -2.800  12.591  20.780  0.00  0.00    +0.000 A 
ATOM      9  C   UNL     1      -3.950  13.254  21.352  0.00  0.00    +0.000 A 
ATOM     10  C   UNL     1      -4.038  13.600  22.717  0.00  0.00    +0.000 A 
ATOM     11  C   UNL     1      -5.208  14.198  23.223  0.00  0.00    +0.000 A 
ATOM     12  C   UNL     1      -6.262  14.531  22.370  0.00  0.00    +0.000 A 
ATOM     13  C   UNL     1      -6.200  14.180  21.035  0.00  0.00    +0.000 A 
ATOM     14  C   UNL     1      -5.096  13.481  20.549  0.00  0.00    +0.000 A 
ATOM     15  N   UNL     1      -5.204  12.874  19.358  0.00  0.00    +0.000 N 
ATOM     16  C   UNL     1      -4.215  12.101  18.865  0.00  0.00    +0.000 A 
ATOM     17  C   UNL     1      -4.518  11.149  17.902  0.00  0.00    +0.000 A 
ATOM     18  C   UNL     1      -3.531  10.306  17.416  0.00  0.00    +0.000 A 
ATOM     19  C   UNL     1      -2.199  10.591  17.691  0.00  0.00    +0.000 A 
ATOM     20  C   UNL     1      -1.883  11.591  18.621  0.00  0.00    +0.000 A 
ATOM     21  C   UNL     1      -2.921  12.137  19.415  0.00  0.00    +0.000 A 
ATOM     22  H   UNL     1      -6.117  12.911  18.849  0.00  0.00    +0.000 HD
BRANCH  19  23
ATOM     23  N   UNL     1      -1.174   9.808  17.115  0.00  0.00    +0.000 N 
ATOM     24  H   UNL     1      -0.869   8.942  17.581  0.00  0.00    +0.000 HD
ATOM     25  H   UNL     1      -0.639  10.141  16.297  0.00  0.00    +0.000 HD
ENDBRANCH  19  23
ENDBRANCH   4   7
BRANCH   1  28
ATOM     26  C   UNL     1       2.077   8.008  18.552  0.00  0.00    +0.000 C 
ATOM     27  O   UNL     1       1.614   8.783  17.737  0.00  0.00    +0.000 OA
ATOM     28  N   UNL     1       1.896   8.250  19.886  0.00  0.00    +0.000 N 
ATOM     29  H   UNL     1       2.370   7.644  20.566  0.00  0.00    +0.000 HD
BRANCH  26  33
ATOM     30  C   UNL     1       4.347   4.583  17.180  0.00  0.00    +0.000 A 
ATOM     31  C   UNL     1       3.134   4.430  17.862  0.00  0.00    +0.000 A 
ATOM     32  C   UNL     1       2.439   5.545  18.321  0.00  0.00    +0.000 A 
ATOM     33  C   UNL     1       2.901   6.848  18.062  0.00  0.00    +0.000 A 
ATOM     34  C   UNL     1       4.136   7.004  17.392  0.00  0.00    +0.000 A 
ATOM     35  C   UNL     1       4.849   5.872  16.952  0.00  0.00    +0.000 A 
BRANCH  30  36
ATOM     36  N   UNL     1       5.056   3.444  16.726  0.00  0.00    +0.000 N 
ATOM     37  H   UNL     1       4.656   2.499  16.832  0.00  0.00    +0.000 HD
ATOM     38  H   UNL     1       5.975   3.541  16.272  0.00  0.00    +0.000 HD
ENDBRANCH  30  36
ENDBRANCH  26  33
ENDBRANCH   1  28
TORSDOF 5
ENDMDL
MODEL 3
REMARK VINA RESULT:      -8.0      2.304     10.307
REMARK  Name = 
REMARK  5 active torsions:
REMARK  status: ('A' for Active; 'I' for Inactive)
REMARK    1  A    between atoms: N_1  and  C_2
REMARK    2  A    between atoms: C_5  and  C_6
REMARK    3  A    between atoms: N_8  and  C_9
REMARK    4  A    between atoms: C_12  and  N_13
REMARK    5  A    between atoms: C_25  and  N_26
REMARK                            x       y       z     vdW  Elec       q    Type
REMARK                         _______ _______ _______ _____ _____    ______ ____
ROOT
ATOM      1  C   UNL     1       0.677   9.174  19.918  0.00  0.00    +0.000 A 
ATOM      2  C   UNL     1       0.757   9.235  18.498  0.00  0.00    +0.000 A 
ATOM      3  C   UNL     1       1.729   8.491  17.805  0.00  0.00    +0.000 A 
ATOM      4  C   UNL     1       2.614   7.646  18.494  0.00  0.00    +0.000 A 
ATOM      5  C   UNL     1       2.375   7.444  19.870  0.00  0.00    +0.000 A 
ATOM      6  C   UNL     1       1.490   8.249  20.573  0.00  0.00    +0.000 A 
ENDROOT
BRANCH   4   7
ATOM      7  N   UNL     1       3.752   7.042  17.820  0.00  0.00    +0.000 NA
ATOM      8  C   UNL     1       4.033   5.753  17.683  0.00  0.00    +0.000 A 
ATOM      9  C   UNL     1       4.965   5.346  16.655  0.00  0.00    +0.000 A 
ATOM     10  C   UNL     1       5.613   6.261  15.798  0.00  0.00    +0.000 A 
ATOM     11  C   UNL     1       6.471   5.796  14.784  0.00  0.00    +0.000 A 
ATOM     12  C   UNL     1       6.757   4.435  14.663  0.00  0.00    +0.000 A 
ATOM     13  C   UNL     1       6.116   3.524  15.481  0.00  0.00    +0.000 A 
ATOM     14  C   UNL     1       5.174   3.965  16.410  0.00  0.00    +0.000 A 
ATOM     15  N   UNL     1       4.341   3.062  16.946  0.00  0.00    +0.000 N 
ATOM     16  C   UNL     1       3.344   3.423  17.777  0.00  0.00    +0.000 A 
ATOM     17  C   UNL     1       2.257   2.575  17.939  0.00  0.00    +0.000 A 
ATOM     18  C   UNL     1       1.194   2.946  18.746  0.00  0.00    +0.000 A 
ATOM     19  C   UNL     1       1.336   4.034  19.599  0.00  0.00    +0.000 A 
ATOM     20  C   UNL     1       2.459   4.864  19.481  0.00  0.00    +0.000 A 
ATOM     21  C   UNL     1       3.312   4.703  18.362  0.00  0.00    +0.000 A 
ATOM     22  H   UNL     1       4.397   2.067  16.628  0.00  0.00    +0.000 HD
BRANCH  19  23
ATOM     23  N   UNL     1       0.305   4.361  20.508  0.00  0.00    +0.000 N 
ATOM     24  H   UNL     1       0.237   5.319  20.880  0.00  0.00    +0.000 HD
ATOM     25  H   UNL     1      -0.315   3.635  20.901  0.00  0.00    +0.000 HD
ENDBRANCH  19  23
ENDBRANCH   4   7
BRANCH   1  28
ATOM     26  C   UNL     1       0.270  11.220  21.292  0.00  0.00    +0.000 C 
ATOM     27  O   UNL     1       1.383  11.645  21.049  0.00  0.00    +0.000 OA
ATOM     28  N   UNL     1      -0.133  10.038  20.735  0.00  0.00    +0.000 N 
ATOM     29  H   UNL     1      -1.104   9.735  20.869  0.00  0.00    +0.000 HD
BRANCH  26  33
ATOM     30  C   UNL     1      -2.317  13.729  23.695  0.00  0.00    +0.000 A 
ATOM     31  C   UNL     1      -1.191  14.249  23.047  0.00  0.00    +0.000 A 
ATOM     32  C   UNL     1      -0.357  13.417  22.308  0.00  0.00    +0.000 A 
ATOM     33  C   UNL     1      -0.654  12.052  22.140  0.00  0.00    +0.000 A 
ATOM     34  C   UNL     1      -1.779  11.520  22.811  0.00  0.00    +0.000 A 
ATOM     35  C   UNL     1      -2.606  12.362  23.580  0.00  0.00    +0.000 A 
BRANCH  30  36
ATOM     36  N   UNL     1      -3.156  14.580  24.457  0.00  0.00    +0.000 N 
ATOM     37  H   UNL     1      -3.635  14.228  25.299  0.00  0.00    +0.000 HD
ATOM     38  H   UNL     1      -3.290  15.566  24.189  0.00  0.00    +0.000 HD
ENDBRANCH  30  36
ENDBRANCH  26  33
ENDBRANCH   1  28
TORSDOF 5
ENDMDL
MODEL 4
REMARK VINA RESULT:      -7.7      1.139      1.391
REMARK  Name = 
REMARK  5 active torsions:
REMARK  status: ('A' for Active; 'I' for Inactive)
REMARK    1  A    between atoms: N_1  and  C_2
REMARK    2  A    between atoms: C_5  and  C_6
REMARK    3  A    between atoms: N_8  and  C_9
REMARK    4  A    between atoms: C_12  and  N_13
REMARK    5  A    between atoms: C_25  and  N_26
REMARK                            x       y       z     vdW  Elec       q    Type
REMARK                         _______ _______ _______ _____ _____    ______ ____
ROOT
ATOM      1  C   UNL     1       1.120   8.802  21.220  0.00  0.00    +0.000 A 
ATOM      2  C   UNL     1       1.513  10.147  20.967  0.00  0.00    +0.000 A 
ATOM      3  C   UNL     1       0.690  11.217  21.363  0.00  0.00    +0.000 A 
ATOM      4  C   UNL     1      -0.514  10.984  22.046  0.00  0.00    +0.000 A 
ATOM      5  C   UNL     1      -0.773   9.662  22.467  0.00  0.00    +0.000 A 
ATOM      6  C   UNL     1      -0.022   8.596  21.993  0.00  0.00    +0.000 A 
ENDROOT
BRANCH   4   7
ATOM      7  N   UNL     1      -1.470  12.057  22.268  0.00  0.00    +0.000 NA
ATOM      8  C   UNL     1      -2.349  12.561  21.411  0.00  0.00    +0.000 A 
ATOM      9  C   UNL     1      -3.466  13.324  21.922  0.00  0.00    +0.000 A 
ATOM     10  C   UNL     1      -3.658  13.578  23.296  0.00  0.00    +0.000 A 
ATOM     11  C   UNL     1      -4.795  14.285  23.734  0.00  0.00    +0.000 A 
ATOM     12  C   UNL     1      -5.703  14.811  22.813  0.00  0.00    +0.000 A 
ATOM     13  C   UNL     1      -5.540  14.553  21.465  0.00  0.00    +0.000 A 
ATOM     14  C   UNL     1      -4.482  13.755  21.032  0.00  0.00    +0.000 A 
ATOM     15  N   UNL     1      -4.533  13.254  19.790  0.00  0.00    +0.000 N 
ATOM     16  C   UNL     1      -3.598  12.397  19.332  0.00  0.00    +0.000 A 
ATOM     17  C   UNL     1      -3.908  11.565  18.266  0.00  0.00    +0.000 A 
ATOM     18  C   UNL     1      -2.984  10.638  17.809  0.00  0.00    +0.000 A 
ATOM     19  C   UNL     1      -1.664  10.728  18.237  0.00  0.00    +0.000 A 
ATOM     20  C   UNL     1      -1.332  11.609  19.276  0.00  0.00    +0.000 A 
ATOM     21  C   UNL     1      -2.376  12.226  20.007  0.00  0.00    +0.000 A 
ATOM     22  H   UNL     1      -5.375  13.445  19.199  0.00  0.00    +0.000 HD
BRANCH  19  23
ATOM     23  N   UNL     1      -0.685   9.864  17.700  0.00  0.00    +0.000 N 
ATOM     24  H   UNL     1       0.259   9.842  18.111  0.00  0.00    +0.000 HD
ATOM     25  H   UNL     1      -0.855   9.335  16.829  0.00  0.00    +0.000 HD
ENDBRANCH  19  23
ENDBRANCH   4   7
BRANCH   1  28
ATOM     26  C   UNL     1       2.111   7.442  19.375  0.00  0.00    +0.000 C 
ATOM     27  O   UNL     1       1.914   8.330  18.568  0.00  0.00    +0.000 OA
ATOM     28  N   UNL     1       1.775   7.639  20.685  0.00  0.00    +0.000 N 
ATOM     29  H   UNL     1       2.032   6.922  21.374  0.00  0.00    +0.000 HD
BRANCH  26  33
ATOM     30  C   UNL     1       3.963   3.789  17.964  0.00  0.00    +0.000 A 
ATOM     31  C   UNL     1       2.649   4.124  17.615  0.00  0.00    +0.000 A 
ATOM     32  C   UNL     1       2.066   5.287  18.107  0.00  0.00    +0.000 A 
ATOM     33  C   UNL     1       2.793   6.182  18.912  0.00  0.00    +0.000 A 
ATOM     34  C   UNL     1       4.112   5.835  19.283  0.00  0.00    +0.000 A 
ATOM     35  C   UNL     1       4.690   4.643  18.803  0.00  0.00    +0.000 A 
BRANCH  30  36
ATOM     36  N   UNL     1       4.547   2.596  17.469  0.00  0.00    +0.000 N 
ATOM     37  H   UNL     1       5.445   2.256  17.844  0.00  0.00    +0.000 HD
ATOM     38  H   UNL     1       4.078   2.044  16.736  0.00  0.00    +0.000 HD
ENDBRANCH  30  36
ENDBRANCH  26  33
ENDBRANCH   1  28
TORSDOF 5
ENDMDL
MODEL 5
REMARK VINA RESULT:      -7.6      1.048      1.225
REMARK  Name = 
REMARK  5 active torsions:
REMARK  status: ('A' for Active; 'I' for Inactive)
REMARK    1  A    between atoms: N_1  and  C_2
REMARK    2  A    between atoms: C_5  and  C_6
REMARK    3  A    between atoms: N_8  and  C_9
REMARK    4  A    between atoms: C_12  and  N_13
REMARK    5  A    between atoms: C_25  and  N_26
REMARK                            x       y       z     vdW  Elec       q    Type
REMARK                         _______ _______ _______ _____ _____    ______ ____
ROOT
ATOM      1  C   UNL     1       1.453   8.086  21.047  0.00  0.00    +0.000 A 
ATOM      2  C   UNL     1       1.922   9.026  22.007  0.00  0.00    +0.000 A 
ATOM      3  C   UNL     1       1.020   9.870  22.680  0.00  0.00    +0.000 A 
ATOM      4  C   UNL     1      -0.362   9.777  22.447  0.00  0.00    +0.000 A 
ATOM      5  C   UNL     1      -0.813   8.699  21.655  0.00  0.00    +0.000 A 
ATOM      6  C   UNL     1       0.073   7.933  20.911  0.00  0.00    +0.000 A 
ENDROOT
BRANCH   4   7
ATOM      7  N   UNL     1      -1.279  10.777  22.968  0.00  0.00    +0.000 NA
ATOM      8  C   UNL     1      -1.957  11.697  22.294  0.00  0.00    +0.000 A 
ATOM      9  C   UNL     1      -3.103  12.320  22.918  0.00  0.00    +0.000 A 
ATOM     10  C   UNL     1      -3.528  12.010  24.227  0.00  0.00    +0.000 A 
ATOM     11  C   UNL     1      -4.683  12.614  24.759  0.00  0.00    +0.000 A 
ATOM     12  C   UNL     1      -5.376  13.585  24.033  0.00  0.00    +0.000 A 
ATOM     13  C   UNL     1      -4.985  13.885  22.742  0.00  0.00    +0.000 A 
ATOM     14  C   UNL     1      -3.913  13.205  22.163  0.00  0.00    +0.000 A 
ATOM     15  N   UNL     1      -3.765  13.270  20.833  0.00  0.00    +0.000 N 
ATOM     16  C   UNL     1      -2.813  12.565  20.190  0.00  0.00    +0.000 A 
ATOM     17  C   UNL     1      -2.970  12.291  18.839  0.00  0.00    +0.000 A 
ATOM     18  C   UNL     1      -2.033  11.523  18.166  0.00  0.00    +0.000 A 
ATOM     19  C   UNL     1      -0.810  11.259  18.773  0.00  0.00    +0.000 A 
ATOM     20  C   UNL     1      -0.623  11.584  20.124  0.00  0.00    +0.000 A 
ATOM     21  C   UNL     1      -1.747  11.975  20.893  0.00  0.00    +0.000 A 
ATOM     22  H   UNL     1      -4.473  13.794  20.267  0.00  0.00    +0.000 HD
BRANCH  19  23
ATOM     23  N   UNL     1       0.199  10.573  18.062  0.00  0.00    +0.000 N 
ATOM     24  H   UNL     1      -0.019  10.141  17.153  0.00  0.00    +0.000 HD
ATOM     25  H   UNL     1       1.124  10.392  18.484  0.00  0.00    +0.000 HD
ENDBRANCH  19  23
ENDBRANCH   4   7
BRANCH   1  28
ATOM     26  C   UNL     1       2.420   5.963  20.154  0.00  0.00    +0.000 C 
ATOM     27  O   UNL     1       1.735   5.296  20.905  0.00  0.00    +0.000 OA
ATOM     28  N   UNL     1       2.292   7.324  20.161  0.00  0.00    +0.000 N 
ATOM     29  H   UNL     1       2.804   7.872  19.459  0.00  0.00    +0.000 HD
BRANCH  26  33
ATOM     30  C   UNL     1       4.935   3.906  17.290  0.00  0.00    +0.000 A 
ATOM     31  C   UNL     1       3.544   3.941  17.147  0.00  0.00    +0.000 A 
ATOM     32  C   UNL     1       2.755   4.581  18.098  0.00  0.00    +0.000 A 
ATOM     33  C   UNL     1       3.333   5.257  19.187  0.00  0.00    +0.000 A 
ATOM     34  C   UNL     1       4.736   5.205  19.345  0.00  0.00    +0.000 A 
ATOM     35  C   UNL     1       5.529   4.534  18.393  0.00  0.00    +0.000 A 
BRANCH  30  36
ATOM     36  N   UNL     1       5.732   3.242  16.325  0.00  0.00    +0.000 N 
ATOM     37  H   UNL     1       6.651   2.849  16.581  0.00  0.00    +0.000 HD
ATOM     38  H   UNL     1       5.402   3.129  15.355  0.00  0.00    +0.000 HD
ENDBRANCH  30  36
ENDBRANCH  26  33
ENDBRANCH   1  28
TORSDOF 5
ENDMDL
MODEL 6
REMARK VINA RESULT:      -7.6      1.418      1.793
REMARK  Name = 
REMARK  5 active torsions:
REMARK  status: ('A' for Active; 'I' for Inactive)
REMARK    1  A    between atoms: N_1  and  C_2
REMARK    2  A    between atoms: C_5  and  C_6
REMARK    3  A    between atoms: N_8  and  C_9
REMARK    4  A    between atoms: C_12  and  N_13
REMARK    5  A    between atoms: C_25  and  N_26
REMARK                            x       y       z     vdW  Elec       q    Type
REMARK                         _______ _______ _______ _____ _____    ______ ____
ROOT
ATOM      1  C   UNL     1       1.162   9.728  19.484  0.00  0.00    +0.000 A 
ATOM      2  C   UNL     1       1.318  11.138  19.363  0.00  0.00    +0.000 A 
ATOM      3  C   UNL     1       0.426  12.013  20.012  0.00  0.00    +0.000 A 
ATOM      4  C   UNL     1      -0.609  11.516  20.820  0.00  0.00    +0.000 A 
ATOM      5  C   UNL     1      -0.608  10.130  21.091  0.00  0.00    +0.000 A 
ATOM      6  C   UNL     1       0.199   9.257  20.376  0.00  0.00    +0.000 A 
ENDROOT
BRANCH   4   7
ATOM      7  N   UNL     1      -1.658  12.391  21.317  0.00  0.00    +0.000 NA
ATOM      8  C   UNL     1      -2.832  12.658  20.762  0.00  0.00    +0.000 A 
ATOM      9  C   UNL     1      -3.884  13.216  21.583  0.00  0.00    +0.000 A 
ATOM     10  C   UNL     1      -3.716  13.510  22.952  0.00  0.00    +0.000 A 
ATOM     11  C   UNL     1      -4.795  14.004  23.709  0.00  0.00    +0.000 A 
ATOM     12  C   UNL     1      -6.020  14.285  23.101  0.00  0.00    +0.000 A 
ATOM     13  C   UNL     1      -6.207  13.983  21.765  0.00  0.00    +0.000 A 
ATOM     14  C   UNL     1      -5.181  13.384  21.036  0.00  0.00    +0.000 A 
ATOM     15  N   UNL     1      -5.488  12.809  19.865  0.00  0.00    +0.000 N 
ATOM     16  C   UNL     1      -4.572  12.128  19.148  0.00  0.00    +0.000 A 
ATOM     17  C   UNL     1      -5.000  11.187  18.222  0.00  0.00    +0.000 A 
ATOM     18  C   UNL     1      -4.079  10.435  17.510  0.00  0.00    +0.000 A 
ATOM     19  C   UNL     1      -2.741  10.809  17.525  0.00  0.00    +0.000 A 
ATOM     20  C   UNL     1      -2.309  11.799  18.419  0.00  0.00    +0.000 A 
ATOM     21  C   UNL     1      -3.198  12.241  19.429  0.00  0.00    +0.000 A 
ATOM     22  H   UNL     1      -6.486  12.794  19.551  0.00  0.00    +0.000 HD
BRANCH  19  23
ATOM     23  N   UNL     1      -1.805  10.123  16.720  0.00  0.00    +0.000 N 
ATOM     24  H   UNL     1      -1.598   9.132  16.909  0.00  0.00    +0.000 HD
ATOM     25  H   UNL     1      -1.233  10.621  16.018  0.00  0.00    +0.000 HD
ENDBRANCH  19  23
ENDBRANCH   4   7
BRANCH   1  28
ATOM     26  C   UNL     1       2.333   7.545  19.168  0.00  0.00    +0.000 C 
ATOM     27  O   UNL     1       2.072   7.202  20.306  0.00  0.00    +0.000 OA
ATOM     28  N   UNL     1       1.880   8.751  18.711  0.00  0.00    +0.000 N 
ATOM     29  H   UNL     1       2.023   8.990  17.722  0.00  0.00    +0.000 HD
BRANCH  26  33
ATOM     30  C   UNL     1       4.572   4.901  16.569  0.00  0.00    +0.000 A 
ATOM     31  C   UNL     1       4.833   6.275  16.613  0.00  0.00    +0.000 A 
ATOM     32  C   UNL     1       4.079   7.109  17.432  0.00  0.00    +0.000 A 
ATOM     33  C   UNL     1       3.082   6.590  18.278  0.00  0.00    +0.000 A 
ATOM     34  C   UNL     1       2.802   5.206  18.219  0.00  0.00    +0.000 A 
ATOM     35  C   UNL     1       3.552   4.369  17.368  0.00  0.00    +0.000 A 
BRANCH  30  36
ATOM     36  N   UNL     1       5.336   4.059  15.723  0.00  0.00    +0.000 N 
ATOM     37  H   UNL     1       5.866   3.265  16.112  0.00  0.00    +0.000 HD
ATOM     38  H   UNL     1       5.364   4.219  14.705  0.00  0.00    +0.000 HD
ENDBRANCH  30  36
ENDBRANCH  26  33
ENDBRANCH   1  28
TORSDOF 5
ENDMDL
MODEL 7
REMARK VINA RESULT:      -7.6      1.845      2.206
REMARK  Name = 
REMARK  5 active torsions:
REMARK  status: ('A' for Active; 'I' for Inactive)
REMARK    1  A    between atoms: N_1  and  C_2
REMARK    2  A    between atoms: C_5  and  C_6
REMARK    3  A    between atoms: N_8  and  C_9
REMARK    4  A    between atoms: C_12  and  N_13
REMARK    5  A    between atoms: C_25  and  N_26
REMARK                            x       y       z     vdW  Elec       q    Type
REMARK                         _______ _______ _______ _____ _____    ______ ____
ROOT
ATOM      1  C   UNL     1       1.450   8.487  19.878  0.00  0.00    +0.000 A 
ATOM      2  C   UNL     1       1.594   8.437  21.294  0.00  0.00    +0.000 A 
ATOM      3  C   UNL     1       0.773   9.225  22.122  0.00  0.00    +0.000 A 
ATOM      4  C   UNL     1      -0.227  10.045  21.574  0.00  0.00    +0.000 A 
ATOM      5  C   UNL     1      -0.485   9.913  20.193  0.00  0.00    +0.000 A 
ATOM      6  C   UNL     1       0.383   9.221  19.361  0.00  0.00    +0.000 A 
ENDROOT
BRANCH   4   7
ATOM      7  N   UNL     1      -0.932  11.017  22.394  0.00  0.00    +0.000 NA
ATOM      8  C   UNL     1      -0.958  12.336  22.258  0.00  0.00    +0.000 A 
ATOM      9  C   UNL     1      -2.016  13.085  22.901  0.00  0.00    +0.000 A 
ATOM     10  C   UNL     1      -3.017  12.479  23.688  0.00  0.00    +0.000 A 
ATOM     11  C   UNL     1      -4.049  13.258  24.244  0.00  0.00    +0.000 A 
ATOM     12  C   UNL     1      -4.052  14.646  24.094  0.00  0.00    +0.000 A 
ATOM     13  C   UNL     1      -3.090  15.252  23.309  0.00  0.00    +0.000 A 
ATOM     14  C   UNL     1      -2.133  14.476  22.657  0.00  0.00    +0.000 A 
ATOM     15  N   UNL     1      -1.433  15.038  21.660  0.00  0.00    +0.000 N 
ATOM     16  C   UNL     1      -0.559  14.327  20.920  0.00  0.00    +0.000 A 
ATOM     17  C   UNL     1      -0.215  14.784  19.656  0.00  0.00    +0.000 A 
ATOM     18  C   UNL     1       0.640  14.046  18.853  0.00  0.00    +0.000 A 
ATOM     19  C   UNL     1       1.359  12.996  19.412  0.00  0.00    +0.000 A 
ATOM     20  C   UNL     1       1.055  12.563  20.711  0.00  0.00    +0.000 A 
ATOM     21  C   UNL     1      -0.112  13.061  21.340  0.00  0.00    +0.000 A 
ATOM     22  H   UNL     1      -1.649  16.022  21.379  0.00  0.00    +0.000 HD
BRANCH  19  23
ATOM     23  N   UNL     1       2.316  12.302  18.639  0.00  0.00    +0.000 N 
ATOM     24  H   UNL     1       3.316  12.524  18.744  0.00  0.00    +0.000 HD
ATOM     25  H   UNL     1       2.032  11.657  17.884  0.00  0.00    +0.000 HD
ENDBRANCH  19  23
ENDBRANCH   4   7
BRANCH   1  28
ATOM     26  C   UNL     1       2.619   6.552  18.816  0.00  0.00    +0.000 C 
ATOM     27  O   UNL     1       2.002   5.760  19.502  0.00  0.00    +0.000 OA
ATOM     28  N   UNL     1       2.359   7.889  18.937  0.00  0.00    +0.000 N 
ATOM     29  H   UNL     1       2.814   8.542  18.288  0.00  0.00    +0.000 HD
BRANCH  26  33
ATOM     30  C   UNL     1       5.373   4.903  15.908  0.00  0.00    +0.000 A 
ATOM     31  C   UNL     1       4.522   4.082  16.656  0.00  0.00    +0.000 A 
ATOM     32  C   UNL     1       3.669   4.632  17.607  0.00  0.00    +0.000 A 
ATOM     33  C   UNL     1       3.594   6.024  17.799  0.00  0.00    +0.000 A 
ATOM     34  C   UNL     1       4.469   6.853  17.060  0.00  0.00    +0.000 A 
ATOM     35  C   UNL     1       5.349   6.289  16.117  0.00  0.00    +0.000 A 
BRANCH  30  36
ATOM     36  N   UNL     1       6.249   4.335  14.950  0.00  0.00    +0.000 N 
ATOM     37  H   UNL     1       6.184   3.334  14.707  0.00  0.00    +0.000 HD
ATOM     38  H   UNL     1       6.954   4.914  14.471  0.00  0.00    +0.000 HD
ENDBRANCH  30  36
ENDBRANCH  26  33
ENDBRANCH   1  28
TORSDOF 5
ENDMDL
MODEL 8
REMARK VINA RESULT:      -7.5      1.844      2.365
REMARK  Name = 
REMARK  5 active torsions:
REMARK  status: ('A' for Active; 'I' for Inactive)
REMARK    1  A    between atoms: N_1  and  C_2
REMARK    2  A    between atoms: C_5  and  C_6
REMARK    3  A    between atoms: N_8  and  C_9
REMARK    4  A    between atoms: C_12  and  N_13
REMARK    5  A    between atoms: C_25  and  N_26
REMARK                            x       y       z     vdW  Elec       q    Type
REMARK                         _______ _______ _______ _____ _____    ______ ____
ROOT
ATOM      1  C   UNL     1       1.736   9.355  18.151  0.00  0.00    +0.000 A 
ATOM      2  C   UNL     1       0.433   8.890  18.484  0.00  0.00    +0.000 A 
ATOM      3  C   UNL     1      -0.461   9.717  19.189  0.00  0.00    +0.000 A 
ATOM      4  C   UNL     1      -0.101  11.026  19.545  0.00  0.00    +0.000 A 
ATOM      5  C   UNL     1       1.108  11.529  19.020  0.00  0.00    +0.000 A 
ATOM      6  C   UNL     1       2.035  10.691  18.416  0.00  0.00    +0.000 A 
ENDROOT
BRANCH   4   7
ATOM      7  N   UNL     1      -0.924  11.810  20.453  0.00  0.00    +0.000 NA
ATOM      8  C   UNL     1      -2.169  12.231  20.272  0.00  0.00    +0.000 A 
ATOM      9  C   UNL     1      -2.945  12.635  21.424  0.00  0.00    +0.000 A 
ATOM     10  C   UNL     1      -2.433  12.622  22.738  0.00  0.00    +0.000 A 
ATOM     11  C   UNL     1      -3.257  12.978  23.823  0.00  0.00    +0.000 A 
ATOM     12  C   UNL     1      -4.561  13.425  23.608  0.00  0.00    +0.000 A 
ATOM     13  C   UNL     1      -5.084  13.424  22.328  0.00  0.00    +0.000 A 
ATOM     14  C   UNL     1      -4.315  12.961  21.262  0.00  0.00    +0.000 A 
ATOM     15  N   UNL     1      -4.938  12.662  20.114  0.00  0.00    +0.000 N 
ATOM     16  C   UNL     1      -4.279  12.119  19.070  0.00  0.00    +0.000 A 
ATOM     17  C   UNL     1      -4.994  11.415  18.111  0.00  0.00    +0.000 A 
ATOM     18  C   UNL     1      -4.335  10.803  17.057  0.00  0.00    +0.000 A 
ATOM     19  C   UNL     1      -3.004  11.118  16.813  0.00  0.00    +0.000 A 
ATOM     20  C   UNL     1      -2.289  11.877  17.750  0.00  0.00    +0.000 A 
ATOM     21  C   UNL     1      -2.874  12.122  19.017  0.00  0.00    +0.000 A 
ATOM     22  H   UNL     1      -5.979  12.749  20.062  0.00  0.00    +0.000 HD
BRANCH  19  23
ATOM     23  N   UNL     1      -2.347  10.590  15.680  0.00  0.00    +0.000 N 
ATOM     24  H   UNL     1      -2.594   9.650  15.338  0.00  0.00    +0.000 HD
ATOM     25  H   UNL     1      -1.541  11.074  15.251  0.00  0.00    +0.000 HD
ENDBRANCH  19  23
ENDBRANCH   4   7
BRANCH   1  28
ATOM     26  C   UNL     1       3.231   7.354  18.148  0.00  0.00    +0.000 C 
ATOM     27  O   UNL     1       2.664   6.887  19.118  0.00  0.00    +0.000 OA
ATOM     28  N   UNL     1       2.792   8.535  17.618  0.00  0.00    +0.000 N 
ATOM     29  H   UNL     1       3.214   8.872  16.745  0.00  0.00    +0.000 HD
BRANCH  26  33
ATOM     30  C   UNL     1       6.539   5.200  16.364  0.00  0.00    +0.000 A 
ATOM     31  C   UNL     1       6.690   6.507  16.842  0.00  0.00    +0.000 A 
ATOM     32  C   UNL     1       5.605   7.189  17.382  0.00  0.00    +0.000 A 
ATOM     33  C   UNL     1       4.350   6.569  17.517  0.00  0.00    +0.000 A 
ATOM     34  C   UNL     1       4.189   5.258  17.015  0.00  0.00    +0.000 A 
ATOM     35  C   UNL     1       5.285   4.580  16.446  0.00  0.00    +0.000 A 
BRANCH  30  36
ATOM     36  N   UNL     1       7.645   4.515  15.804  0.00  0.00    +0.000 N 
ATOM     37  H   UNL     1       8.013   4.779  14.878  0.00  0.00    +0.000 HD
ATOM     38  H   UNL     1       8.108   3.751  16.319  0.00  0.00    +0.000 HD
ENDBRANCH  30  36
ENDBRANCH  26  33
ENDBRANCH   1  28
TORSDOF 5
ENDMDL
MODEL 9
REMARK VINA RESULT:      -7.4      1.741      2.424
REMARK  Name = 
REMARK  5 active torsions:
REMARK  status: ('A' for Active; 'I' for Inactive)
REMARK    1  A    between atoms: N_1  and  C_2
REMARK    2  A    between atoms: C_5  and  C_6
REMARK    3  A    between atoms: N_8  and  C_9
REMARK    4  A    between atoms: C_12  and  N_13
REMARK    5  A    between atoms: C_25  and  N_26
REMARK                            x       y       z     vdW  Elec       q    Type
REMARK                         _______ _______ _______ _____ _____    ______ ____
ROOT
ATOM      1  C   UNL     1       1.631   9.210  18.462  0.00  0.00    +0.000 A 
ATOM      2  C   UNL     1       0.637   8.899  19.433  0.00  0.00    +0.000 A 
ATOM      3  C   UNL     1      -0.005   9.924  20.150  0.00  0.00    +0.000 A 
ATOM      4  C   UNL     1       0.292  11.273  19.899  0.00  0.00    +0.000 A 
ATOM      5  C   UNL     1       1.120  11.557  18.791  0.00  0.00    +0.000 A 
ATOM      6  C   UNL     1       1.833  10.554  18.150  0.00  0.00    +0.000 A 
ENDROOT
BRANCH   4   7
ATOM      7  N   UNL     1      -0.200  12.325  20.773  0.00  0.00    +0.000 NA
ATOM      8  C   UNL     1      -1.393  12.906  20.765  0.00  0.00    +0.000 A 
ATOM      9  C   UNL     1      -1.831  13.624  21.941  0.00  0.00    +0.000 A 
ATOM     10  C   UNL     1      -1.037  13.756  23.100  0.00  0.00    +0.000 A 
ATOM     11  C   UNL     1      -1.542  14.424  24.232  0.00  0.00    +0.000 A 
ATOM     12  C   UNL     1      -2.797  15.034  24.197  0.00  0.00    +0.000 A 
ATOM     13  C   UNL     1      -3.595  14.896  23.077  0.00  0.00    +0.000 A 
ATOM     14  C   UNL     1      -3.152  14.135  21.995  0.00  0.00    +0.000 A 
ATOM     15  N   UNL     1      -4.053  13.747  21.082  0.00  0.00    +0.000 N 
ATOM     16  C   UNL     1      -3.720  12.932  20.061  0.00  0.00    +0.000 A 
ATOM     17  C   UNL     1      -4.715  12.198  19.430  0.00  0.00    +0.000 A 
ATOM     18  C   UNL     1      -4.394  11.313  18.413  0.00  0.00    +0.000 A 
ATOM     19  C   UNL     1      -3.126  11.361  17.847  0.00  0.00    +0.000 A 
ATOM     20  C   UNL     1      -2.129  12.144  18.445  0.00  0.00    +0.000 A 
ATOM     21  C   UNL     1      -2.374  12.697  19.726  0.00  0.00    +0.000 A 
ATOM     22  H   UNL     1      -5.059  13.992  21.224  0.00  0.00    +0.000 HD
BRANCH  19  23
ATOM     23  N   UNL     1      -2.815  10.544  16.737  0.00  0.00    +0.000 N 
ATOM     24  H   UNL     1      -3.551  10.300  16.059  0.00  0.00    +0.000 HD
ATOM     25  H   UNL     1      -1.892  10.087  16.648  0.00  0.00    +0.000 HD
ENDBRANCH  19  23
ENDBRANCH   4   7
BRANCH   1  28
ATOM     26  C   UNL     1       2.934   7.081  18.379  0.00  0.00    +0.000 C 
ATOM     27  O   UNL     1       2.546   6.761  19.486  0.00  0.00    +0.000 OA
ATOM     28  N   UNL     1       2.488   8.247  17.823  0.00  0.00    +0.000 N 
ATOM     29  H   UNL     1       2.745   8.462  16.852  0.00  0.00    +0.000 HD
BRANCH  26  33
ATOM     30  C   UNL     1       5.455   4.262  16.267  0.00  0.00    +0.000 A 
ATOM     31  C   UNL     1       4.458   3.831  17.150  0.00  0.00    +0.000 A 
ATOM     32  C   UNL     1       3.682   4.757  17.841  0.00  0.00    +0.000 A 
ATOM     33  C   UNL     1       3.836   6.138  17.627  0.00  0.00    +0.000 A 
ATOM     34  C   UNL     1       4.856   6.576  16.753  0.00  0.00    +0.000 A 
ATOM     35  C   UNL     1       5.656   5.635  16.075  0.00  0.00    +0.000 A 
BRANCH  30  36
ATOM     36  N   UNL     1       6.249   3.314  15.575  0.00  0.00    +0.000 N 
ATOM     37  H   UNL     1       6.642   2.498  16.068  0.00  0.00    +0.000 HD
ATOM     38  H   UNL     1       6.437   3.419  14.567  0.00  0.00    +0.000 HD
ENDBRANCH  30  36
ENDBRANCH  26  33
ENDBRANCH   1  28
TORSDOF 5
ENDMDL
