MODEL 1
REMARK VINA RESULT:      -7.3      0.000      0.000
REMARK  Name = 
REMARK  2 active torsions:
REMARK  status: ('A' for Active; 'I' for Inactive)
REMARK    1  A    between atoms: C_3  and  C_4
REMARK    2  A    between atoms: C_5  and  C_6
REMARK                            x       y       z     vdW  Elec       q    Type
REMARK                         _______ _______ _______ _____ _____    ______ ____
ROOT
ATOM      1  O   UNL     1       2.582   5.885  20.590  0.00  0.00    +0.000 OA
ATOM      2  C   UNL     1       2.242   6.701  19.741  0.00  0.00    +0.000 A 
ATOM      3  C   UNL     1       2.466   6.495  18.284  0.00  0.00    +0.000 A 
ATOM      4  C   UNL     1       2.450   7.603  17.523  0.00  0.00    +0.000 A 
ATOM      5  O   UNL     1       2.191   8.885  17.953  0.00  0.00    +0.000 OA
ATOM      6  C   UNL     1       1.667   9.029  19.214  0.00  0.00    +0.000 A 
ATOM      7  C   UNL     1       1.166  10.279  19.574  0.00  0.00    +0.000 A 
ATOM      8  C   UNL     1       0.569  10.449  20.828  0.00  0.00    +0.000 A 
ATOM      9  C   UNL     1       0.478   9.369  21.711  0.00  0.00    +0.000 A 
ATOM     10 CL   UNL     1      -0.305   9.577  23.229  0.00  0.00    +0.000 Cl
ATOM     11  C   UNL     1       1.012   8.129  21.371  0.00  0.00    +0.000 A 
ATOM     12  C   UNL     1       1.618   7.975  20.123  0.00  0.00    +0.000 A 
ENDROOT
BRANCH   3  13
ATOM     13  C   UNL     1       2.727   5.177  17.739  0.00  0.00    +0.000 C 
ATOM     14  C   UNL     1       3.936   4.604  17.593  0.00  0.00    +0.000 C 
BRANCH  14  15
ATOM     15  C   UNL     1       5.204   5.214  18.000  0.00  0.00    +0.000 A 
ATOM     16  C   UNL     1       5.924   6.017  17.115  0.00  0.00    +0.000 A 
ATOM     17  C   UNL     1       7.167   6.518  17.496  0.00  0.00    +0.000 A 
ATOM     18  C   UNL     1       7.646   6.204  18.758  0.00  0.00    +0.000 A 
ATOM     19  N   UNL     1       6.967   5.454  19.652  0.00  0.00    +0.000 NA
ATOM     20  C   UNL     1       5.761   4.980  19.254  0.00  0.00    +0.000 A 
ENDBRANCH  14  15
ENDBRANCH   3  13
TORSDOF 2
ENDMDL
MODEL 2
REMARK VINA RESULT:      -7.2      2.411      3.749
REMARK  Name = 
REMARK  2 active torsions:
REMARK  status: ('A' for Active; 'I' for Inactive)
REMARK    1  A    between atoms: C_3  and  C_4
REMARK    2  A    between atoms: C_5  and  C_6
REMARK                            x       y       z     vdW  Elec       q    Type
REMARK                         _______ _______ _______ _____ _____    ______ ____
ROOT
ATOM      1  O   UNL     1       3.910   6.197  16.519  0.00  0.00    +0.000 OA
ATOM      2  C   UNL     1       3.822   5.212  17.242  0.00  0.00    +0.000 A 
ATOM      3  C   UNL     1       4.427   3.897  16.898  0.00  0.00    +0.000 A 
ATOM      4  C   UNL     1       3.912   2.827  17.528  0.00  0.00    +0.000 A 
ATOM      5  O   UNL     1       2.929   2.843  18.492  0.00  0.00    +0.000 OA
ATOM      6  C   UNL     1       2.607   4.061  19.040  0.00  0.00    +0.000 A 
ATOM      7  C   UNL     1       1.806   4.073  20.180  0.00  0.00    +0.000 A 
ATOM      8  C   UNL     1       1.508   5.289  20.802  0.00  0.00    +0.000 A 
ATOM      9  C   UNL     1       2.013   6.485  20.279  0.00  0.00    +0.000 A 
ATOM     10 CL   UNL     1       1.683   7.969  21.083  0.00  0.00    +0.000 Cl
ATOM     11  C   UNL     1       2.780   6.481  19.118  0.00  0.00    +0.000 A 
ATOM     12  C   UNL     1       3.060   5.262  18.498  0.00  0.00    +0.000 A 
ENDROOT
BRANCH   3  13
ATOM     13  C   UNL     1       5.482   3.788  15.909  0.00  0.00    +0.000 C 
ATOM     14  C   UNL     1       6.692   4.373  15.972  0.00  0.00    +0.000 C 
BRANCH  14  15
ATOM     15  C   UNL     1       7.162   5.201  17.086  0.00  0.00    +0.000 A 
ATOM     16  C   UNL     1       7.263   6.586  16.951  0.00  0.00    +0.000 A 
ATOM     17  C   UNL     1       7.790   7.343  17.994  0.00  0.00    +0.000 A 
ATOM     18  C   UNL     1       8.194   6.686  19.146  0.00  0.00    +0.000 A 
ATOM     19  N   UNL     1       8.086   5.353  19.325  0.00  0.00    +0.000 NA
ATOM     20  C   UNL     1       7.570   4.642  18.294  0.00  0.00    +0.000 A 
ENDBRANCH  14  15
ENDBRANCH   3  13
TORSDOF 2
ENDMDL
MODEL 3
REMARK VINA RESULT:      -7.1      4.152      6.128
REMARK  Name = 
REMARK  2 active torsions:
REMARK  status: ('A' for Active; 'I' for Inactive)
REMARK    1  A    between atoms: C_3  and  C_4
REMARK    2  A    between atoms: C_5  and  C_6
REMARK                            x       y       z     vdW  Elec       q    Type
REMARK                         _______ _______ _______ _____ _____    ______ ____
ROOT
ATOM      1  O   UNL     1       3.900   6.599  16.929  0.00  0.00    +0.000 OA
ATOM      2  C   UNL     1       4.730   5.808  17.360  0.00  0.00    +0.000 A 
ATOM      3  C   UNL     1       4.476   4.345  17.469  0.00  0.00    +0.000 A 
ATOM      4  C   UNL     1       5.263   3.672  18.325  0.00  0.00    +0.000 A 
ATOM      5  O   UNL     1       6.306   4.194  19.058  0.00  0.00    +0.000 OA
ATOM      6  C   UNL     1       6.746   5.450  18.716  0.00  0.00    +0.000 A 
ATOM      7  C   UNL     1       7.947   5.893  19.266  0.00  0.00    +0.000 A 
ATOM      8  C   UNL     1       8.458   7.140  18.895  0.00  0.00    +0.000 A 
ATOM      9  C   UNL     1       7.765   7.935  17.976  0.00  0.00    +0.000 A 
ATOM     10 CL   UNL     1       8.430   9.444  17.487  0.00  0.00    +0.000 Cl
ATOM     11  C   UNL     1       6.545   7.513  17.454  0.00  0.00    +0.000 A 
ATOM     12  C   UNL     1       6.038   6.272  17.843  0.00  0.00    +0.000 A 
ENDROOT
BRANCH   3  13
ATOM     13  C   UNL     1       3.412   3.707  16.719  0.00  0.00    +0.000 C 
ATOM     14  C   UNL     1       2.270   3.210  17.229  0.00  0.00    +0.000 C 
BRANCH  14  15
ATOM     15  C   UNL     1       1.893   3.268  18.644  0.00  0.00    +0.000 A 
ATOM     16  C   UNL     1       1.508   4.474  19.230  0.00  0.00    +0.000 A 
ATOM     17  C   UNL     1       1.235   4.521  20.595  0.00  0.00    +0.000 A 
ATOM     18  C   UNL     1       1.349   3.352  21.330  0.00  0.00    +0.000 A 
ATOM     19  N   UNL     1       1.691   2.161  20.795  0.00  0.00    +0.000 NA
ATOM     20  C   UNL     1       1.951   2.146  19.465  0.00  0.00    +0.000 A 
ENDBRANCH  14  15
ENDBRANCH   3  13
TORSDOF 2
ENDMDL
MODEL 4
REMARK VINA RESULT:      -6.9      0.792      1.149
REMARK  Name = 
REMARK  2 active torsions:
REMARK  status: ('A' for Active; 'I' for Inactive)
REMARK    1  A    between atoms: C_3  and  C_4
REMARK    2  A    between atoms: C_5  and  C_6
REMARK                            x       y       z     vdW  Elec       q    Type
REMARK                         _______ _______ _______ _____ _____    ______ ____
ROOT
ATOM      1  O   UNL     1       2.807   5.758  20.486  0.00  0.00    +0.000 OA
ATOM      2  C   UNL     1       2.437   6.551  19.628  0.00  0.00    +0.000 A 
ATOM      3  C   UNL     1       2.671   6.338  18.174  0.00  0.00    +0.000 A 
ATOM      4  C   UNL     1       2.612   7.435  17.400  0.00  0.00    +0.000 A 
ATOM      5  O   UNL     1       2.303   8.711  17.815  0.00  0.00    +0.000 OA
ATOM      6  C   UNL     1       1.773   8.849  19.075  0.00  0.00    +0.000 A 
ATOM      7  C   UNL     1       1.224  10.083  19.420  0.00  0.00    +0.000 A 
ATOM      8  C   UNL     1       0.620  10.243  20.671  0.00  0.00    +0.000 A 
ATOM      9  C   UNL     1       0.569   9.171  21.567  0.00  0.00    +0.000 A 
ATOM     10 CL   UNL     1      -0.223   9.366  23.081  0.00  0.00    +0.000 Cl
ATOM     11  C   UNL     1       1.151   7.949  21.241  0.00  0.00    +0.000 A 
ATOM     12  C   UNL     1       1.763   7.804  19.995  0.00  0.00    +0.000 A 
ENDROOT
BRANCH   3  13
ATOM     13  C   UNL     1       2.982   5.025  17.644  0.00  0.00    +0.000 C 
ATOM     14  C   UNL     1       4.213   4.546  17.383  0.00  0.00    +0.000 C 
BRANCH  14  15
ATOM     15  C   UNL     1       5.461   5.273  17.629  0.00  0.00    +0.000 A 
ATOM     16  C   UNL     1       6.145   5.125  18.835  0.00  0.00    +0.000 A 
ATOM     17  C   UNL     1       7.284   5.889  19.080  0.00  0.00    +0.000 A 
ATOM     18  C   UNL     1       7.706   6.775  18.101  0.00  0.00    +0.000 A 
ATOM     19  N   UNL     1       7.087   6.926  16.911  0.00  0.00    +0.000 NA
ATOM     20  C   UNL     1       5.983   6.170  16.701  0.00  0.00    +0.000 A 
ENDBRANCH  14  15
ENDBRANCH   3  13
TORSDOF 2
ENDMDL
MODEL 5
REMARK VINA RESULT:      -6.7      2.461      3.898
REMARK  Name = 
REMARK  2 active torsions:
REMARK  status: ('A' for Active; 'I' for Inactive)
REMARK    1  A    between atoms: C_3  and  C_4
REMARK    2  A    between atoms: C_5  and  C_6
REMARK                            x       y       z     vdW  Elec       q    Type
REMARK                         _______ _______ _______ _____ _____    ______ ____
ROOT
ATOM      1  O   UNL     1       4.057   6.259  16.352  0.00  0.00    +0.000 OA
ATOM      2  C   UNL     1       3.966   5.297  17.105  0.00  0.00    +0.000 A 
ATOM      3  C   UNL     1       4.568   3.970  16.802  0.00  0.00    +0.000 A 
ATOM      4  C   UNL     1       4.051   2.922  17.466  0.00  0.00    +0.000 A 
ATOM      5  O   UNL     1       3.069   2.970  18.429  0.00  0.00    +0.000 OA
ATOM      6  C   UNL     1       2.751   4.206  18.939  0.00  0.00    +0.000 A 
ATOM      7  C   UNL     1       1.951   4.255  20.080  0.00  0.00    +0.000 A 
ATOM      8  C   UNL     1       1.658   5.492  20.663  0.00  0.00    +0.000 A 
ATOM      9  C   UNL     1       2.165   6.669  20.103  0.00  0.00    +0.000 A 
ATOM     10 CL   UNL     1       1.840   8.178  20.861  0.00  0.00    +0.000 Cl
ATOM     11  C   UNL     1       2.931   6.626  18.942  0.00  0.00    +0.000 A 
ATOM     12  C   UNL     1       3.207   5.388  18.360  0.00  0.00    +0.000 A 
ENDROOT
BRANCH   3  13
ATOM     13  C   UNL     1       5.621   3.827  15.816  0.00  0.00    +0.000 C 
ATOM     14  C   UNL     1       6.830   4.417  15.855  0.00  0.00    +0.000 C 
BRANCH  14  15
ATOM     15  C   UNL     1       7.300   5.285  16.938  0.00  0.00    +0.000 A 
ATOM     16  C   UNL     1       7.640   4.752  18.181  0.00  0.00    +0.000 A 
ATOM     17  C   UNL     1       8.004   5.605  19.220  0.00  0.00    +0.000 A 
ATOM     18  C   UNL     1       8.024   6.970  18.976  0.00  0.00    +0.000 A 
ATOM     19  N   UNL     1       7.729   7.521  17.780  0.00  0.00    +0.000 NA
ATOM     20  C   UNL     1       7.378   6.667  16.789  0.00  0.00    +0.000 A 
ENDBRANCH  14  15
ENDBRANCH   3  13
TORSDOF 2
ENDMDL
MODEL 6
REMARK VINA RESULT:      -6.7      4.232      6.166
REMARK  Name = 
REMARK  2 active torsions:
REMARK  status: ('A' for Active; 'I' for Inactive)
REMARK    1  A    between atoms: C_3  and  C_4
REMARK    2  A    between atoms: C_5  and  C_6
REMARK                            x       y       z     vdW  Elec       q    Type
REMARK                         _______ _______ _______ _____ _____    ______ ____
ROOT
ATOM      1  O   UNL     1       3.914   6.693  16.942  0.00  0.00    +0.000 OA
ATOM      2  C   UNL     1       4.775   5.917  17.338  0.00  0.00    +0.000 A 
ATOM      3  C   UNL     1       4.562   4.447  17.428  0.00  0.00    +0.000 A 
ATOM      4  C   UNL     1       5.388   3.780  18.253  0.00  0.00    +0.000 A 
ATOM      5  O   UNL     1       6.434   4.317  18.969  0.00  0.00    +0.000 OA
ATOM      6  C   UNL     1       6.832   5.589  18.639  0.00  0.00    +0.000 A 
ATOM      7  C   UNL     1       8.035   6.055  19.168  0.00  0.00    +0.000 A 
ATOM      8  C   UNL     1       8.503   7.322  18.806  0.00  0.00    +0.000 A 
ATOM      9  C   UNL     1       7.767   8.113  17.918  0.00  0.00    +0.000 A 
ATOM     10 CL   UNL     1       8.380   9.648  17.440  0.00  0.00    +0.000 Cl
ATOM     11  C   UNL     1       6.547   7.668  17.419  0.00  0.00    +0.000 A 
ATOM     12  C   UNL     1       6.082   6.408  17.798  0.00  0.00    +0.000 A 
ENDROOT
BRANCH   3  13
ATOM     13  C   UNL     1       3.497   3.793  16.693  0.00  0.00    +0.000 C 
ATOM     14  C   UNL     1       2.377   3.264  17.221  0.00  0.00    +0.000 C 
BRANCH  14  15
ATOM     15  C   UNL     1       2.029   3.297  18.644  0.00  0.00    +0.000 A 
ATOM     16  C   UNL     1       2.190   2.165  19.442  0.00  0.00    +0.000 A 
ATOM     17  C   UNL     1       1.775   2.195  20.772  0.00  0.00    +0.000 A 
ATOM     18  C   UNL     1       1.217   3.365  21.261  0.00  0.00    +0.000 A 
ATOM     19  N   UNL     1       1.070   4.489  20.528  0.00  0.00    +0.000 NA
ATOM     20  C   UNL     1       1.482   4.430  19.239  0.00  0.00    +0.000 A 
ENDBRANCH  14  15
ENDBRANCH   3  13
TORSDOF 2
ENDMDL
MODEL 7
REMARK VINA RESULT:      -6.6      2.139      3.510
REMARK  Name = 
REMARK  2 active torsions:
REMARK  status: ('A' for Active; 'I' for Inactive)
REMARK    1  A    between atoms: C_3  and  C_4
REMARK    2  A    between atoms: C_5  and  C_6
REMARK                            x       y       z     vdW  Elec       q    Type
REMARK                         _______ _______ _______ _____ _____    ______ ____
ROOT
ATOM      1  O   UNL     1       1.672   9.082  17.346  0.00  0.00    +0.000 OA
ATOM      2  C   UNL     1       1.833   8.627  18.472  0.00  0.00    +0.000 A 
ATOM      3  C   UNL     1       2.635   7.404  18.746  0.00  0.00    +0.000 A 
ATOM      4  C   UNL     1       2.386   6.783  19.911  0.00  0.00    +0.000 A 
ATOM      5  O   UNL     1       1.510   7.201  20.888  0.00  0.00    +0.000 OA
ATOM      6  C   UNL     1       1.022   8.481  20.786  0.00  0.00    +0.000 A 
ATOM      7  C   UNL     1       0.341   9.010  21.881  0.00  0.00    +0.000 A 
ATOM      8  C   UNL     1      -0.116  10.331  21.838  0.00  0.00    +0.000 A 
ATOM      9  C   UNL     1       0.110  11.113  20.701  0.00  0.00    +0.000 A 
ATOM     10 CL   UNL     1      -0.411  12.752  20.680  0.00  0.00    +0.000 Cl
ATOM     11  C   UNL     1       0.754  10.577  19.590  0.00  0.00    +0.000 A 
ATOM     12  C   UNL     1       1.195   9.253  19.639  0.00  0.00    +0.000 A 
ENDROOT
BRANCH   3  13
ATOM     13  C   UNL     1       3.595   6.901  17.783  0.00  0.00    +0.000 C 
ATOM     14  C   UNL     1       3.839   5.606  17.507  0.00  0.00    +0.000 C 
BRANCH  14  15
ATOM     15  C   UNL     1       3.135   4.476  18.118  0.00  0.00    +0.000 A 
ATOM     16  C   UNL     1       1.850   4.127  17.701  0.00  0.00    +0.000 A 
ATOM     17  C   UNL     1       1.169   3.102  18.354  0.00  0.00    +0.000 A 
ATOM     18  C   UNL     1       1.802   2.453  19.402  0.00  0.00    +0.000 A 
ATOM     19  N   UNL     1       3.053   2.743  19.816  0.00  0.00    +0.000 NA
ATOM     20  C   UNL     1       3.692   3.743  19.163  0.00  0.00    +0.000 A 
ENDBRANCH  14  15
ENDBRANCH   3  13
TORSDOF 2
ENDMDL
MODEL 8
REMARK VINA RESULT:      -6.6      3.996      6.714
REMARK  Name = 
REMARK  2 active torsions:
REMARK  status: ('A' for Active; 'I' for Inactive)
REMARK    1  A    between atoms: C_3  and  C_4
REMARK    2  A    between atoms: C_5  and  C_6
REMARK                            x       y       z     vdW  Elec       q    Type
REMARK                         _______ _______ _______ _____ _____    ______ ____
ROOT
ATOM      1  O   UNL     1       3.664   7.531  16.834  0.00  0.00    +0.000 OA
ATOM      2  C   UNL     1       4.190   6.629  17.475  0.00  0.00    +0.000 A 
ATOM      3  C   UNL     1       3.833   6.324  18.888  0.00  0.00    +0.000 A 
ATOM      4  C   UNL     1       4.745   5.631  19.590  0.00  0.00    +0.000 A 
ATOM      5  O   UNL     1       5.937   5.134  19.113  0.00  0.00    +0.000 OA
ATOM      6  C   UNL     1       6.114   5.129  17.751  0.00  0.00    +0.000 A 
ATOM      7  C   UNL     1       7.191   4.409  17.236  0.00  0.00    +0.000 A 
ATOM      8  C   UNL     1       7.367   4.329  15.851  0.00  0.00    +0.000 A 
ATOM      9  C   UNL     1       6.467   4.968  14.992  0.00  0.00    +0.000 A 
ATOM     10 CL   UNL     1       6.665   4.818  13.290  0.00  0.00    +0.000 Cl
ATOM     11  C   UNL     1       5.414   5.720  15.503  0.00  0.00    +0.000 A 
ATOM     12  C   UNL     1       5.255   5.804  16.888  0.00  0.00    +0.000 A 
ENDROOT
BRANCH   3  13
ATOM     13  C   UNL     1       2.589   6.790  19.468  0.00  0.00    +0.000 C 
ATOM     14  C   UNL     1       1.532   6.024  19.799  0.00  0.00    +0.000 C 
BRANCH  14  15
ATOM     15  C   UNL     1       1.480   4.567  19.657  0.00  0.00    +0.000 A 
ATOM     16  C   UNL     1       1.577   3.739  20.776  0.00  0.00    +0.000 A 
ATOM     17  C   UNL     1       1.609   2.356  20.609  0.00  0.00    +0.000 A 
ATOM     18  C   UNL     1       1.536   1.846  19.322  0.00  0.00    +0.000 A 
ATOM     19  N   UNL     1       1.413   2.613  18.218  0.00  0.00    +0.000 NA
ATOM     20  C   UNL     1       1.384   3.954  18.411  0.00  0.00    +0.000 A 
ENDBRANCH  14  15
ENDBRANCH   3  13
TORSDOF 2
ENDMDL
MODEL 9
REMARK VINA RESULT:      -6.6      2.393      3.668
REMARK  Name = 
REMARK  2 active torsions:
REMARK  status: ('A' for Active; 'I' for Inactive)
REMARK    1  A    between atoms: C_3  and  C_4
REMARK    2  A    between atoms: C_5  and  C_6
REMARK                            x       y       z     vdW  Elec       q    Type
REMARK                         _______ _______ _______ _____ _____    ______ ____
ROOT
ATOM      1  O   UNL     1       1.699   9.078  17.360  0.00  0.00    +0.000 OA
ATOM      2  C   UNL     1       1.842   8.627  18.490  0.00  0.00    +0.000 A 
ATOM      3  C   UNL     1       2.627   7.395  18.777  0.00  0.00    +0.000 A 
ATOM      4  C   UNL     1       2.358   6.783  19.943  0.00  0.00    +0.000 A 
ATOM      5  O   UNL     1       1.477   7.216  20.908  0.00  0.00    +0.000 OA
ATOM      6  C   UNL     1       1.005   8.502  20.795  0.00  0.00    +0.000 A 
ATOM      7  C   UNL     1       0.320   9.043  21.881  0.00  0.00    +0.000 A 
ATOM      8  C   UNL     1      -0.121  10.369  21.827  0.00  0.00    +0.000 A 
ATOM      9  C   UNL     1       0.126  11.144  20.689  0.00  0.00    +0.000 A 
ATOM     10 CL   UNL     1      -0.375  12.789  20.655  0.00  0.00    +0.000 Cl
ATOM     11  C   UNL     1       0.776  10.594  19.587  0.00  0.00    +0.000 A 
ATOM     12  C   UNL     1       1.200   9.266  19.647  0.00  0.00    +0.000 A 
ENDROOT
BRANCH   3  13
ATOM     13  C   UNL     1       3.591   6.877  17.827  0.00  0.00    +0.000 C 
ATOM     14  C   UNL     1       3.791   5.580  17.526  0.00  0.00    +0.000 C 
BRANCH  14  15
ATOM     15  C   UNL     1       3.027   4.465  18.092  0.00  0.00    +0.000 A 
ATOM     16  C   UNL     1       3.584   3.646  19.074  0.00  0.00    +0.000 A 
ATOM     17  C   UNL     1       2.871   2.543  19.537  0.00  0.00    +0.000 A 
ATOM     18  C   UNL     1       1.615   2.299  19.004  0.00  0.00    +0.000 A 
ATOM     19  N   UNL     1       1.031   3.083  18.074  0.00  0.00    +0.000 NA
ATOM     20  C   UNL     1       1.748   4.149  17.642  0.00  0.00    +0.000 A 
ENDBRANCH  14  15
ENDBRANCH   3  13
TORSDOF 2
ENDMDL
