MODEL 1
REMARK VINA RESULT:      -8.9      0.000      0.000
REMARK  Name = 
REMARK  3 active torsions:
REMARK  status: ('A' for Active; 'I' for Inactive)
REMARK    1  A    between atoms: C_1  and  N_2
REMARK    2  A    between atoms: C_10  and  O_11
REMARK    3  A    between atoms: O_11  and  C_12
REMARK                            x       y       z     vdW  Elec       q    Type
REMARK                         _______ _______ _______ _____ _____    ______ ____
ROOT
ATOM      1  C   UNL     1       9.251  11.020  18.913  0.00  0.00    +0.000 C 
ATOM      2  N   UNL     1       9.308   9.608  19.202  0.00  0.00    +0.000 N 
ATOM      3  C   UNL     1       8.512   8.729  18.506  0.00  0.00    +0.000 C 
ATOM      4  O   UNL     1       7.809   9.069  17.561  0.00  0.00    +0.000 OA
ATOM      5  N   UNL     1       8.581   7.457  19.033  0.00  0.00    +0.000 N 
ATOM      6  C   UNL     1       7.746   6.490  18.530  0.00  0.00    +0.000 A 
ATOM      7  N   UNL     1       7.112   5.587  19.237  0.00  0.00    +0.000 NA
ATOM      8  C   UNL     1       6.254   4.978  18.350  0.00  0.00    +0.000 A 
ATOM      9  C   UNL     1       5.227   4.054  18.581  0.00  0.00    +0.000 A 
ATOM     10  C   UNL     1       4.489   3.585  17.486  0.00  0.00    +0.000 A 
ATOM     11  C   UNL     1       4.763   4.043  16.188  0.00  0.00    +0.000 A 
ATOM     12  C   UNL     1       5.799   4.947  15.936  0.00  0.00    +0.000 A 
ATOM     13  C   UNL     1       6.494   5.413  17.050  0.00  0.00    +0.000 A 
ATOM     14  N   UNL     1       7.457   6.376  17.196  0.00  0.00    +0.000 N 
ATOM     15  H   UNL     1      10.178   9.230  19.550  0.00  0.00    +0.000 HD
ATOM     16  H   UNL     1       8.725   7.395  20.030  0.00  0.00    +0.000 HD
ATOM     17  H   UNL     1       7.819   6.979  16.473  0.00  0.00    +0.000 HD
ENDROOT
BRANCH  10  18
ATOM     18  O   UNL     1       3.455   2.724  17.785  0.00  0.00    +0.000 OA
BRANCH  18  19
ATOM     19  C   UNL     1       2.790   2.893  18.974  0.00  0.00    +0.000 A 
ATOM     20  C   UNL     1       3.294   2.479  20.209  0.00  0.00    +0.000 A 
ATOM     21  C   UNL     1       2.547   2.663  21.376  0.00  0.00    +0.000 A 
ATOM     22  C   UNL     1       1.318   3.317  21.319  0.00  0.00    +0.000 A 
ATOM     23  C   UNL     1       0.836   3.787  20.099  0.00  0.00    +0.000 A 
ATOM     24  C   UNL     1       1.569   3.578  18.928  0.00  0.00    +0.000 A 
ENDBRANCH  18  19
ENDBRANCH  10  18
TORSDOF 2
ENDMDL
MODEL 2
REMARK VINA RESULT:      -8.9      0.663      1.099
REMARK  Name = 
REMARK  3 active torsions:
REMARK  status: ('A' for Active; 'I' for Inactive)
REMARK    1  A    between atoms: C_1  and  N_2
REMARK    2  A    between atoms: C_10  and  O_11
REMARK    3  A    between atoms: O_11  and  C_12
REMARK                            x       y       z     vdW  Elec       q    Type
REMARK                         _______ _______ _______ _____ _____    ______ ____
ROOT
ATOM      1  C   UNL     1       9.284  11.311  19.146  0.00  0.00    +0.000 C 
ATOM      2  N   UNL     1       9.361   9.882  19.327  0.00  0.00    +0.000 N 
ATOM      3  C   UNL     1       8.584   9.047  18.561  0.00  0.00    +0.000 C 
ATOM      4  O   UNL     1       7.880   9.447  17.640  0.00  0.00    +0.000 OA
ATOM      5  N   UNL     1       8.670   7.740  18.990  0.00  0.00    +0.000 N 
ATOM      6  C   UNL     1       7.853   6.802  18.409  0.00  0.00    +0.000 A 
ATOM      7  N   UNL     1       7.231   5.837  19.040  0.00  0.00    +0.000 NA
ATOM      8  C   UNL     1       6.387   5.284  18.104  0.00  0.00    +0.000 A 
ATOM      9  C   UNL     1       5.374   4.329  18.257  0.00  0.00    +0.000 A 
ATOM     10  C   UNL     1       4.650   3.934  17.125  0.00  0.00    +0.000 A 
ATOM     11  C   UNL     1       4.923   4.494  15.867  0.00  0.00    +0.000 A 
ATOM     12  C   UNL     1       5.946   5.431  15.691  0.00  0.00    +0.000 A 
ATOM     13  C   UNL     1       6.627   5.821  16.842  0.00  0.00    +0.000 A 
ATOM     14  N   UNL     1       7.574   6.784  17.068  0.00  0.00    +0.000 N 
ATOM     15  H   UNL     1      10.236   9.493  19.651  0.00  0.00    +0.000 HD
ATOM     16  H   UNL     1       8.810   7.604  19.980  0.00  0.00    +0.000 HD
ATOM     17  H   UNL     1       7.930   7.447  16.395  0.00  0.00    +0.000 HD
ENDROOT
BRANCH  10  18
ATOM     18  O   UNL     1       3.627   3.037  17.350  0.00  0.00    +0.000 OA
BRANCH  18  19
ATOM     19  C   UNL     1       2.788   3.260  18.412  0.00  0.00    +0.000 A 
ATOM     20  C   UNL     1       2.168   4.485  18.666  0.00  0.00    +0.000 A 
ATOM     21  C   UNL     1       1.344   4.644  19.784  0.00  0.00    +0.000 A 
ATOM     22  C   UNL     1       1.089   3.558  20.619  0.00  0.00    +0.000 A 
ATOM     23  C   UNL     1       1.655   2.316  20.338  0.00  0.00    +0.000 A 
ATOM     24  C   UNL     1       2.502   2.164  19.237  0.00  0.00    +0.000 A 
ENDBRANCH  18  19
ENDBRANCH  10  18
TORSDOF 2
ENDMDL
MODEL 3
REMARK VINA RESULT:      -8.2      5.805      7.806
REMARK  Name = 
REMARK  3 active torsions:
REMARK  status: ('A' for Active; 'I' for Inactive)
REMARK    1  A    between atoms: C_1  and  N_2
REMARK    2  A    between atoms: C_10  and  O_11
REMARK    3  A    between atoms: O_11  and  C_12
REMARK                            x       y       z     vdW  Elec       q    Type
REMARK                         _______ _______ _______ _____ _____    ______ ____
ROOT
ATOM      1  C   UNL     1       3.674   1.463  18.258  0.00  0.00    +0.000 C 
ATOM      2  N   UNL     1       4.176   2.809  18.118  0.00  0.00    +0.000 N 
ATOM      3  C   UNL     1       3.481   3.863  18.662  0.00  0.00    +0.000 C 
ATOM      4  O   UNL     1       2.485   3.718  19.361  0.00  0.00    +0.000 OA
ATOM      5  N   UNL     1       4.022   5.074  18.284  0.00  0.00    +0.000 N 
ATOM      6  C   UNL     1       3.366   6.227  18.640  0.00  0.00    +0.000 A 
ATOM      7  N   UNL     1       3.208   7.280  17.877  0.00  0.00    +0.000 NA
ATOM      8  C   UNL     1       2.333   8.090  18.564  0.00  0.00    +0.000 A 
ATOM      9  C   UNL     1       1.688   9.266  18.160  0.00  0.00    +0.000 A 
ATOM     10  C   UNL     1       0.831   9.904  19.066  0.00  0.00    +0.000 A 
ATOM     11  C   UNL     1       0.613   9.370  20.346  0.00  0.00    +0.000 A 
ATOM     12  C   UNL     1       1.266   8.211  20.774  0.00  0.00    +0.000 A 
ATOM     13  C   UNL     1       2.089   7.587  19.839  0.00  0.00    +0.000 A 
ATOM     14  N   UNL     1       2.768   6.398  19.860  0.00  0.00    +0.000 N 
ATOM     15  H   UNL     1       5.175   2.935  18.040  0.00  0.00    +0.000 HD
ATOM     16  H   UNL     1       4.442   5.108  17.367  0.00  0.00    +0.000 HD
ATOM     17  H   UNL     1       2.749   5.707  20.596  0.00  0.00    +0.000 HD
ENDROOT
BRANCH  10  18
ATOM     18  O   UNL     1       0.180  11.022  18.589  0.00  0.00    +0.000 OA
BRANCH  18  19
ATOM     19  C   UNL     1      -1.159  10.924  18.304  0.00  0.00    +0.000 A 
ATOM     20  C   UNL     1      -2.133  11.752  18.864  0.00  0.00    +0.000 A 
ATOM     21  C   UNL     1      -3.482  11.576  18.543  0.00  0.00    +0.000 A 
ATOM     22  C   UNL     1      -3.855  10.608  17.614  0.00  0.00    +0.000 A 
ATOM     23  C   UNL     1      -2.882   9.818  17.003  0.00  0.00    +0.000 A 
ATOM     24  C   UNL     1      -1.536   9.974  17.345  0.00  0.00    +0.000 A 
ENDBRANCH  18  19
ENDBRANCH  10  18
TORSDOF 2
ENDMDL
MODEL 4
REMARK VINA RESULT:      -8.2      6.603      7.568
REMARK  Name = 
REMARK  3 active torsions:
REMARK  status: ('A' for Active; 'I' for Inactive)
REMARK    1  A    between atoms: C_1  and  N_2
REMARK    2  A    between atoms: C_10  and  O_11
REMARK    3  A    between atoms: O_11  and  C_12
REMARK                            x       y       z     vdW  Elec       q    Type
REMARK                         _______ _______ _______ _____ _____    ______ ____
ROOT
ATOM      1  C   UNL     1      -4.802  12.106  17.477  0.00  0.00    +0.000 C 
ATOM      2  N   UNL     1      -3.738  12.066  18.451  0.00  0.00    +0.000 N 
ATOM      3  C   UNL     1      -2.589  11.360  18.187  0.00  0.00    +0.000 C 
ATOM      4  O   UNL     1      -2.364  10.828  17.105  0.00  0.00    +0.000 OA
ATOM      5  N   UNL     1      -1.767  11.298  19.292  0.00  0.00    +0.000 N 
ATOM      6  C   UNL     1      -0.638  10.520  19.230  0.00  0.00    +0.000 A 
ATOM      7  N   UNL     1      -0.189   9.750  20.191  0.00  0.00    +0.000 NA
ATOM      8  C   UNL     1       0.829   9.022  19.618  0.00  0.00    +0.000 A 
ATOM      9  C   UNL     1       1.558   7.939  20.126  0.00  0.00    +0.000 A 
ATOM     10  C   UNL     1       2.555   7.368  19.324  0.00  0.00    +0.000 A 
ATOM     11  C   UNL     1       2.808   7.861  18.034  0.00  0.00    +0.000 A 
ATOM     12  C   UNL     1       2.107   8.956  17.520  0.00  0.00    +0.000 A 
ATOM     13  C   UNL     1       1.104   9.481  18.333  0.00  0.00    +0.000 A 
ATOM     14  N   UNL     1       0.154  10.443  18.115  0.00  0.00    +0.000 N 
ATOM     15  H   UNL     1      -3.635  12.856  19.073  0.00  0.00    +0.000 HD
ATOM     16  H   UNL     1      -2.228  11.280  20.190  0.00  0.00    +0.000 HD
ATOM     17  H   UNL     1      -0.015  10.937  17.252  0.00  0.00    +0.000 HD
ENDROOT
BRANCH  10  18
ATOM     18  O   UNL     1       3.196   6.269  19.856  0.00  0.00    +0.000 OA
BRANCH  18  19
ATOM     19  C   UNL     1       2.508   5.083  19.920  0.00  0.00    +0.000 A 
ATOM     20  C   UNL     1       2.201   4.430  21.115  0.00  0.00    +0.000 A 
ATOM     21  C   UNL     1       1.518   3.210  21.100  0.00  0.00    +0.000 A 
ATOM     22  C   UNL     1       1.088   2.669  19.891  0.00  0.00    +0.000 A 
ATOM     23  C   UNL     1       1.337   3.346  18.698  0.00  0.00    +0.000 A 
ATOM     24  C   UNL     1       2.045   4.551  18.710  0.00  0.00    +0.000 A 
ENDBRANCH  18  19
ENDBRANCH  10  18
TORSDOF 2
ENDMDL
MODEL 5
REMARK VINA RESULT:      -8.2      5.884      7.873
REMARK  Name = 
REMARK  3 active torsions:
REMARK  status: ('A' for Active; 'I' for Inactive)
REMARK    1  A    between atoms: C_1  and  N_2
REMARK    2  A    between atoms: C_10  and  O_11
REMARK    3  A    between atoms: O_11  and  C_12
REMARK                            x       y       z     vdW  Elec       q    Type
REMARK                         _______ _______ _______ _____ _____    ______ ____
ROOT
ATOM      1  C   UNL     1       3.574   1.494  18.692  0.00  0.00    +0.000 C 
ATOM      2  N   UNL     1       4.065   2.826  18.437  0.00  0.00    +0.000 N 
ATOM      3  C   UNL     1       3.388   3.916  18.931  0.00  0.00    +0.000 C 
ATOM      4  O   UNL     1       2.421   3.820  19.678  0.00  0.00    +0.000 OA
ATOM      5  N   UNL     1       3.909   5.098  18.447  0.00  0.00    +0.000 N 
ATOM      6  C   UNL     1       3.264   6.272  18.745  0.00  0.00    +0.000 A 
ATOM      7  N   UNL     1       3.072   7.268  17.916  0.00  0.00    +0.000 NA
ATOM      8  C   UNL     1       2.222   8.124  18.578  0.00  0.00    +0.000 A 
ATOM      9  C   UNL     1       1.557   9.267  18.116  0.00  0.00    +0.000 A 
ATOM     10  C   UNL     1       0.733   9.968  19.007  0.00  0.00    +0.000 A 
ATOM     11  C   UNL     1       0.568   9.527  20.329  0.00  0.00    +0.000 A 
ATOM     12  C   UNL     1       1.241   8.402  20.813  0.00  0.00    +0.000 A 
ATOM     13  C   UNL     1       2.029   7.713  19.893  0.00  0.00    +0.000 A 
ATOM     14  N   UNL     1       2.713   6.529  19.973  0.00  0.00    +0.000 N 
ATOM     15  H   UNL     1       5.060   2.948  18.311  0.00  0.00    +0.000 HD
ATOM     16  H   UNL     1       4.293   5.066  17.514  0.00  0.00    +0.000 HD
ATOM     17  H   UNL     1       2.725   5.893  20.756  0.00  0.00    +0.000 HD
ENDROOT
BRANCH  10  18
ATOM     18  O   UNL     1       0.060  11.049  18.478  0.00  0.00    +0.000 OA
BRANCH  18  19
ATOM     19  C   UNL     1      -1.273  10.905  18.184  0.00  0.00    +0.000 A 
ATOM     20  C   UNL     1      -1.772   9.946  17.301  0.00  0.00    +0.000 A 
ATOM     21  C   UNL     1      -3.142   9.876  17.032  0.00  0.00    +0.000 A 
ATOM     22  C   UNL     1      -4.025  10.728  17.693  0.00  0.00    +0.000 A 
ATOM     23  C   UNL     1      -3.540  11.647  18.622  0.00  0.00    +0.000 A 
ATOM     24  C   UNL     1      -2.168  11.737  18.870  0.00  0.00    +0.000 A 
ENDBRANCH  18  19
ENDBRANCH  10  18
TORSDOF 2
ENDMDL
MODEL 6
REMARK VINA RESULT:      -8.2      1.055      1.252
REMARK  Name = 
REMARK  3 active torsions:
REMARK  status: ('A' for Active; 'I' for Inactive)
REMARK    1  A    between atoms: C_1  and  N_2
REMARK    2  A    between atoms: C_10  and  O_11
REMARK    3  A    between atoms: O_11  and  C_12
REMARK                            x       y       z     vdW  Elec       q    Type
REMARK                         _______ _______ _______ _____ _____    ______ ____
ROOT
ATOM      1  C   UNL     1       9.155  11.940  19.059  0.00  0.00    +0.000 C 
ATOM      2  N   UNL     1       9.440  10.525  19.077  0.00  0.00    +0.000 N 
ATOM      3  C   UNL     1       8.579   9.641  18.473  0.00  0.00    +0.000 C 
ATOM      4  O   UNL     1       7.606   9.997  17.817  0.00  0.00    +0.000 OA
ATOM      5  N   UNL     1       8.927   8.333  18.738  0.00  0.00    +0.000 N 
ATOM      6  C   UNL     1       8.092   7.331  18.312  0.00  0.00    +0.000 A 
ATOM      7  N   UNL     1       7.783   6.255  18.994  0.00  0.00    +0.000 NA
ATOM      8  C   UNL     1       6.779   5.652  18.271  0.00  0.00    +0.000 A 
ATOM      9  C   UNL     1       5.963   4.562  18.600  0.00  0.00    +0.000 A 
ATOM     10  C   UNL     1       5.001   4.142  17.672  0.00  0.00    +0.000 A 
ATOM     11  C   UNL     1       4.848   4.807  16.446  0.00  0.00    +0.000 A 
ATOM     12  C   UNL     1       5.669   5.881  16.091  0.00  0.00    +0.000 A 
ATOM     13  C   UNL     1       6.596   6.290  17.048  0.00  0.00    +0.000 A 
ATOM     14  N   UNL     1       7.454   7.357  17.100  0.00  0.00    +0.000 N 
ATOM     15  H   UNL     1      10.408  10.238  19.116  0.00  0.00    +0.000 HD
ATOM     16  H   UNL     1       9.352   8.159  19.637  0.00  0.00    +0.000 HD
ATOM     17  H   UNL     1       7.532   8.100  16.422  0.00  0.00    +0.000 HD
ENDROOT
BRANCH  10  18
ATOM     18  O   UNL     1       4.190   3.104  18.079  0.00  0.00    +0.000 OA
BRANCH  18  19
ATOM     19  C   UNL     1       3.073   3.401  18.819  0.00  0.00    +0.000 A 
ATOM     20  C   UNL     1       1.859   2.721  18.698  0.00  0.00    +0.000 A 
ATOM     21  C   UNL     1       0.756   3.098  19.470  0.00  0.00    +0.000 A 
ATOM     22  C   UNL     1       0.881   4.119  20.409  0.00  0.00    +0.000 A 
ATOM     23  C   UNL     1       2.106   4.763  20.579  0.00  0.00    +0.000 A 
ATOM     24  C   UNL     1       3.201   4.406  19.787  0.00  0.00    +0.000 A 
ENDBRANCH  18  19
ENDBRANCH  10  18
TORSDOF 2
ENDMDL
MODEL 7
REMARK VINA RESULT:      -8.1      6.830      7.771
REMARK  Name = 
REMARK  3 active torsions:
REMARK  status: ('A' for Active; 'I' for Inactive)
REMARK    1  A    between atoms: C_1  and  N_2
REMARK    2  A    between atoms: C_10  and  O_11
REMARK    3  A    between atoms: O_11  and  C_12
REMARK                            x       y       z     vdW  Elec       q    Type
REMARK                         _______ _______ _______ _____ _____    ______ ____
ROOT
ATOM      1  C   UNL     1      -4.756  13.010  19.779  0.00  0.00    +0.000 C 
ATOM      2  N   UNL     1      -3.479  12.817  20.421  0.00  0.00    +0.000 N 
ATOM      3  C   UNL     1      -2.523  12.025  19.829  0.00  0.00    +0.000 C 
ATOM      4  O   UNL     1      -2.657  11.537  18.712  0.00  0.00    +0.000 OA
ATOM      5  N   UNL     1      -1.444  11.825  20.663  0.00  0.00    +0.000 N 
ATOM      6  C   UNL     1      -0.461  10.951  20.269  0.00  0.00    +0.000 A 
ATOM      7  N   UNL     1       0.149  10.090  21.046  0.00  0.00    +0.000 NA
ATOM      8  C   UNL     1       0.892   9.306  20.194  0.00  0.00    +0.000 A 
ATOM      9  C   UNL     1       1.615   8.133  20.449  0.00  0.00    +0.000 A 
ATOM     10  C   UNL     1       2.292   7.520  19.387  0.00  0.00    +0.000 A 
ATOM     11  C   UNL     1       2.236   8.060  18.093  0.00  0.00    +0.000 A 
ATOM     12  C   UNL     1       1.540   9.241  17.824  0.00  0.00    +0.000 A 
ATOM     13  C   UNL     1       0.855   9.810  18.897  0.00  0.00    +0.000 A 
ATOM     14  N   UNL     1      -0.013  10.866  18.978  0.00  0.00    +0.000 N 
ATOM     15  H   UNL     1      -3.129  13.557  21.013  0.00  0.00    +0.000 HD
ATOM     16  H   UNL     1      -1.644  11.798  21.652  0.00  0.00    +0.000 HD
ATOM     17  H   UNL     1      -0.358  11.421  18.209  0.00  0.00    +0.000 HD
ENDROOT
BRANCH  10  18
ATOM     18  O   UNL     1       2.935   6.338  19.689  0.00  0.00    +0.000 OA
BRANCH  18  19
ATOM     19  C   UNL     1       2.251   5.161  19.513  0.00  0.00    +0.000 A 
ATOM     20  C   UNL     1       1.480   4.557  20.508  0.00  0.00    +0.000 A 
ATOM     21  C   UNL     1       0.831   3.343  20.262  0.00  0.00    +0.000 A 
ATOM     22  C   UNL     1       0.903   2.760  18.999  0.00  0.00    +0.000 A 
ATOM     23  C   UNL     1       1.621   3.389  17.982  0.00  0.00    +0.000 A 
ATOM     24  C   UNL     1       2.294   4.587  18.236  0.00  0.00    +0.000 A 
ENDBRANCH  18  19
ENDBRANCH  10  18
TORSDOF 2
ENDMDL
MODEL 8
REMARK VINA RESULT:      -7.8      4.035      6.671
REMARK  Name = 
REMARK  3 active torsions:
REMARK  status: ('A' for Active; 'I' for Inactive)
REMARK    1  A    between atoms: C_1  and  N_2
REMARK    2  A    between atoms: C_10  and  O_11
REMARK    3  A    between atoms: O_11  and  C_12
REMARK                            x       y       z     vdW  Elec       q    Type
REMARK                         _______ _______ _______ _____ _____    ______ ____
ROOT
ATOM      1  C   UNL     1       0.451   9.296  22.392  0.00  0.00    +0.000 C 
ATOM      2  N   UNL     1       0.800   9.321  20.992  0.00  0.00    +0.000 N 
ATOM      3  C   UNL     1       1.382   8.221  20.408  0.00  0.00    +0.000 C 
ATOM      4  O   UNL     1       1.538   7.156  20.994  0.00  0.00    +0.000 OA
ATOM      5  N   UNL     1       1.793   8.491  19.119  0.00  0.00    +0.000 N 
ATOM      6  C   UNL     1       2.509   7.534  18.444  0.00  0.00    +0.000 A 
ATOM      7  N   UNL     1       3.545   7.759  17.674  0.00  0.00    +0.000 NA
ATOM      8  C   UNL     1       4.049   6.512  17.381  0.00  0.00    +0.000 A 
ATOM      9  C   UNL     1       5.236   6.150  16.732  0.00  0.00    +0.000 A 
ATOM     10  C   UNL     1       5.518   4.788  16.562  0.00  0.00    +0.000 A 
ATOM     11  C   UNL     1       4.637   3.808  17.044  0.00  0.00    +0.000 A 
ATOM     12  C   UNL     1       3.437   4.150  17.673  0.00  0.00    +0.000 A 
ATOM     13  C   UNL     1       3.202   5.512  17.851  0.00  0.00    +0.000 A 
ATOM     14  N   UNL     1       2.222   6.196  18.520  0.00  0.00    +0.000 N 
ATOM     15  H   UNL     1       0.251   9.906  20.378  0.00  0.00    +0.000 HD
ATOM     16  H   UNL     1       2.099   9.436  18.938  0.00  0.00    +0.000 HD
ATOM     17  H   UNL     1       1.478   5.796  19.072  0.00  0.00    +0.000 HD
ENDROOT
BRANCH  10  18
ATOM     18  O   UNL     1       6.728   4.496  15.969  0.00  0.00    +0.000 OA
BRANCH  18  19
ATOM     19  C   UNL     1       6.776   4.397  14.601  0.00  0.00    +0.000 A 
ATOM     20  C   UNL     1       5.953   3.550  13.857  0.00  0.00    +0.000 A 
ATOM     21  C   UNL     1       6.077   3.485  12.466  0.00  0.00    +0.000 A 
ATOM     22  C   UNL     1       6.986   4.312  11.809  0.00  0.00    +0.000 A 
ATOM     23  C   UNL     1       7.768   5.205  12.540  0.00  0.00    +0.000 A 
ATOM     24  C   UNL     1       7.665   5.249  13.933  0.00  0.00    +0.000 A 
ENDBRANCH  18  19
ENDBRANCH  10  18
TORSDOF 2
ENDMDL
MODEL 9
REMARK VINA RESULT:      -7.7      6.790      7.515
REMARK  Name = 
REMARK  3 active torsions:
REMARK  status: ('A' for Active; 'I' for Inactive)
REMARK    1  A    between atoms: C_1  and  N_2
REMARK    2  A    between atoms: C_10  and  O_11
REMARK    3  A    between atoms: O_11  and  C_12
REMARK                            x       y       z     vdW  Elec       q    Type
REMARK                         _______ _______ _______ _____ _____    ______ ____
ROOT
ATOM      1  C   UNL     1      -0.368  16.389  19.424  0.00  0.00    +0.000 C 
ATOM      2  N   UNL     1      -0.609  15.143  18.738  0.00  0.00    +0.000 N 
ATOM      3  C   UNL     1      -0.334  13.949  19.361  0.00  0.00    +0.000 C 
ATOM      4  O   UNL     1       0.021  13.872  20.532  0.00  0.00    +0.000 OA
ATOM      5  N   UNL     1      -0.468  12.883  18.496  0.00  0.00    +0.000 N 
ATOM      6  C   UNL     1      -0.104  11.633  18.931  0.00  0.00    +0.000 A 
ATOM      7  N   UNL     1       0.541  10.738  18.224  0.00  0.00    +0.000 NA
ATOM      8  C   UNL     1       0.858   9.740  19.117  0.00  0.00    +0.000 A 
ATOM      9  C   UNL     1       1.678   8.616  18.957  0.00  0.00    +0.000 A 
ATOM     10  C   UNL     1       1.839   7.744  20.042  0.00  0.00    +0.000 A 
ATOM     11  C   UNL     1       1.204   8.000  21.268  0.00  0.00    +0.000 A 
ATOM     12  C   UNL     1       0.364   9.104  21.439  0.00  0.00    +0.000 A 
ATOM     13  C   UNL     1       0.249   9.964  20.349  0.00  0.00    +0.000 A 
ATOM     14  N   UNL     1      -0.365  11.180  20.197  0.00  0.00    +0.000 N 
ATOM     15  H   UNL     1      -1.345  15.118  18.047  0.00  0.00    +0.000 HD
ATOM     16  H   UNL     1      -0.240  13.063  17.529  0.00  0.00    +0.000 HD
ATOM     17  H   UNL     1      -0.834  11.710  20.915  0.00  0.00    +0.000 HD
ENDROOT
BRANCH  10  18
ATOM     18  O   UNL     1       2.703   6.689  19.841  0.00  0.00    +0.000 OA
BRANCH  18  19
ATOM     19  C   UNL     1       2.171   5.451  19.581  0.00  0.00    +0.000 A 
ATOM     20  C   UNL     1       1.592   4.636  20.556  0.00  0.00    +0.000 A 
ATOM     21  C   UNL     1       1.092   3.375  20.219  0.00  0.00    +0.000 A 
ATOM     22  C   UNL     1       1.115   2.949  18.893  0.00  0.00    +0.000 A 
ATOM     23  C   UNL     1       1.636   3.782  17.904  0.00  0.00    +0.000 A 
ATOM     24  C   UNL     1       2.163   5.031  18.244  0.00  0.00    +0.000 A 
ENDBRANCH  18  19
ENDBRANCH  10  18
TORSDOF 2
ENDMDL
