MODEL 1
REMARK VINA RESULT:      -7.3      0.000      0.000
REMARK  Name = 
REMARK  4 active torsions:
REMARK  status: ('A' for Active; 'I' for Inactive)
REMARK    1  A    between atoms: C_1  and  C_2
REMARK    2  A    between atoms: C_5  and  S_6
REMARK    3  A    between atoms: S_6  and  N_9
REMARK    4  A    between atoms: C_16  and  C_17
REMARK                            x       y       z     vdW  Elec       q    Type
REMARK                         _______ _______ _______ _____ _____    ______ ____
ROOT
ATOM      1  S   UNL     1       5.886   5.081  17.507  0.00  0.00    +0.000 S 
ATOM      2  O   UNL     1       5.807   6.528  17.574  0.00  0.00    +0.000 OA
ATOM      3  O   UNL     1       7.002   4.382  18.103  0.00  0.00    +0.000 OA
ENDROOT
BRANCH   1   4
ATOM      4  N   UNL     1       5.805   4.701  15.904  0.00  0.00    +0.000 N 
ATOM      5  C   UNL     1       6.780   4.933  14.938  0.00  0.00    +0.000 C 
ATOM      6  O   UNL     1       7.835   5.508  15.164  0.00  0.00    +0.000 OA
ATOM      7  N   UNL     1       6.471   4.380  13.708  0.00  0.00    +0.000 N 
ATOM      8  N   UNL     1       5.239   3.830  13.427  0.00  0.00    +0.000 NA
ATOM      9  C   UNL     1       5.368   3.257  12.273  0.00  0.00    +0.000 C 
ATOM     10  C   UNL     1       6.754   3.226  11.710  0.00  0.00    +0.000 C 
ATOM     11  C   UNL     1       7.428   4.244  12.616  0.00  0.00    +0.000 C 
ATOM     12  C   UNL     1       7.696   5.557  11.889  0.00  0.00    +0.000 C 
ATOM     13  H   UNL     1       5.029   4.119  15.611  0.00  0.00    +0.000 HD
ENDBRANCH   1   4
BRANCH   1  18
ATOM     14  C   UNL     1       0.707   2.879  19.810  0.00  0.00    +0.000 C 
ATOM     15  C   UNL     1       1.988   3.418  19.243  0.00  0.00    +0.000 A 
ATOM     16  C   UNL     1       1.970   4.245  18.115  0.00  0.00    +0.000 A 
ATOM     17  C   UNL     1       3.163   4.741  17.586  0.00  0.00    +0.000 A 
ATOM     18  C   UNL     1       4.380   4.442  18.207  0.00  0.00    +0.000 A 
ATOM     19  C   UNL     1       4.414   3.595  19.315  0.00  0.00    +0.000 A 
ATOM     20  C   UNL     1       3.217   3.087  19.831  0.00  0.00    +0.000 A 
ENDBRANCH   1  18
TORSDOF 2
ENDMDL
MODEL 2
REMARK VINA RESULT:      -7.3      0.176      1.112
REMARK  Name = 
REMARK  4 active torsions:
REMARK  status: ('A' for Active; 'I' for Inactive)
REMARK    1  A    between atoms: C_1  and  C_2
REMARK    2  A    between atoms: C_5  and  S_6
REMARK    3  A    between atoms: S_6  and  N_9
REMARK    4  A    between atoms: C_16  and  C_17
REMARK                            x       y       z     vdW  Elec       q    Type
REMARK                         _______ _______ _______ _____ _____    ______ ____
ROOT
ATOM      1  S   UNL     1       5.836   5.092  17.553  0.00  0.00    +0.000 S 
ATOM      2  O   UNL     1       5.790   6.541  17.611  0.00  0.00    +0.000 OA
ATOM      3  O   UNL     1       6.932   4.370  18.159  0.00  0.00    +0.000 OA
ENDROOT
BRANCH   1   4
ATOM      4  N   UNL     1       5.755   4.704  15.952  0.00  0.00    +0.000 N 
ATOM      5  C   UNL     1       6.730   4.930  14.985  0.00  0.00    +0.000 C 
ATOM      6  O   UNL     1       7.785   5.505  15.209  0.00  0.00    +0.000 OA
ATOM      7  N   UNL     1       6.421   4.372  13.758  0.00  0.00    +0.000 N 
ATOM      8  N   UNL     1       5.189   3.821  13.479  0.00  0.00    +0.000 NA
ATOM      9  C   UNL     1       5.318   3.243  12.328  0.00  0.00    +0.000 C 
ATOM     10  C   UNL     1       6.703   3.208  11.765  0.00  0.00    +0.000 C 
ATOM     11  C   UNL     1       7.379   4.229  12.667  0.00  0.00    +0.000 C 
ATOM     12  C   UNL     1       7.647   5.539  11.933  0.00  0.00    +0.000 C 
ATOM     13  H   UNL     1       4.978   4.122  15.662  0.00  0.00    +0.000 HD
ENDBRANCH   1   4
BRANCH   1  18
ATOM     14  C   UNL     1       0.665   3.051  20.015  0.00  0.00    +0.000 C 
ATOM     15  C   UNL     1       1.938   3.559  19.407  0.00  0.00    +0.000 A 
ATOM     16  C   UNL     1       3.174   3.041  19.812  0.00  0.00    +0.000 A 
ATOM     17  C   UNL     1       4.357   3.519  19.249  0.00  0.00    +0.000 A 
ATOM     18  C   UNL     1       4.311   4.493  18.248  0.00  0.00    +0.000 A 
ATOM     19  C   UNL     1       3.089   5.040  17.855  0.00  0.00    +0.000 A 
ATOM     20  C   UNL     1       1.905   4.569  18.434  0.00  0.00    +0.000 A 
ENDBRANCH   1  18
TORSDOF 2
ENDMDL
MODEL 3
REMARK VINA RESULT:      -7.2      2.313      6.436
REMARK  Name = 
REMARK  4 active torsions:
REMARK  status: ('A' for Active; 'I' for Inactive)
REMARK    1  A    between atoms: C_1  and  C_2
REMARK    2  A    between atoms: C_5  and  S_6
REMARK    3  A    between atoms: S_6  and  N_9
REMARK    4  A    between atoms: C_16  and  C_17
REMARK                            x       y       z     vdW  Elec       q    Type
REMARK                         _______ _______ _______ _____ _____    ______ ____
ROOT
ATOM      1  S   UNL     1       6.919   5.135  17.975  0.00  0.00    +0.000 S 
ATOM      2  O   UNL     1       8.071   4.381  18.433  0.00  0.00    +0.000 OA
ATOM      3  O   UNL     1       6.915   6.578  18.045  0.00  0.00    +0.000 OA
ENDROOT
BRANCH   1   4
ATOM      4  N   UNL     1       5.632   4.549  18.826  0.00  0.00    +0.000 N 
ATOM      5  C   UNL     1       4.383   5.146  18.971  0.00  0.00    +0.000 C 
ATOM      6  O   UNL     1       4.095   6.238  18.502  0.00  0.00    +0.000 OA
ATOM      7  N   UNL     1       3.471   4.346  19.635  0.00  0.00    +0.000 N 
ATOM      8  N   UNL     1       3.826   3.167  20.255  0.00  0.00    +0.000 NA
ATOM      9  C   UNL     1       2.712   2.607  20.602  0.00  0.00    +0.000 C 
ATOM     10  C   UNL     1       1.465   3.276  20.119  0.00  0.00    +0.000 C 
ATOM     11  C   UNL     1       2.038   4.614  19.679  0.00  0.00    +0.000 C 
ATOM     12  C   UNL     1       1.669   5.732  20.648  0.00  0.00    +0.000 C 
ATOM     13  H   UNL     1       5.706   3.599  19.168  0.00  0.00    +0.000 HD
ENDBRANCH   1   4
BRANCH   1  18
ATOM     14  C   UNL     1       5.783   3.490  12.232  0.00  0.00    +0.000 C 
ATOM     15  C   UNL     1       6.065   3.900  13.648  0.00  0.00    +0.000 A 
ATOM     16  C   UNL     1       5.258   3.439  14.694  0.00  0.00    +0.000 A 
ATOM     17  C   UNL     1       5.519   3.826  16.009  0.00  0.00    +0.000 A 
ATOM     18  C   UNL     1       6.614   4.649  16.290  0.00  0.00    +0.000 A 
ATOM     19  C   UNL     1       7.409   5.139  15.255  0.00  0.00    +0.000 A 
ATOM     20  C   UNL     1       7.134   4.761  13.936  0.00  0.00    +0.000 A 
ENDBRANCH   1  18
TORSDOF 2
ENDMDL
MODEL 4
REMARK VINA RESULT:      -7.2      2.324      6.451
REMARK  Name = 
REMARK  4 active torsions:
REMARK  status: ('A' for Active; 'I' for Inactive)
REMARK    1  A    between atoms: C_1  and  C_2
REMARK    2  A    between atoms: C_5  and  S_6
REMARK    3  A    between atoms: S_6  and  N_9
REMARK    4  A    between atoms: C_16  and  C_17
REMARK                            x       y       z     vdW  Elec       q    Type
REMARK                         _______ _______ _______ _____ _____    ______ ____
ROOT
ATOM      1  S   UNL     1       6.909   5.134  17.973  0.00  0.00    +0.000 S 
ATOM      2  O   UNL     1       8.066   4.368  18.397  0.00  0.00    +0.000 OA
ATOM      3  O   UNL     1       6.918   6.577  18.057  0.00  0.00    +0.000 OA
ENDROOT
BRANCH   1   4
ATOM      4  N   UNL     1       5.638   4.549  18.846  0.00  0.00    +0.000 N 
ATOM      5  C   UNL     1       4.380   5.129  18.985  0.00  0.00    +0.000 C 
ATOM      6  O   UNL     1       4.072   6.204  18.491  0.00  0.00    +0.000 OA
ATOM      7  N   UNL     1       3.486   4.331  19.674  0.00  0.00    +0.000 N 
ATOM      8  N   UNL     1       3.864   3.174  20.320  0.00  0.00    +0.000 NA
ATOM      9  C   UNL     1       2.761   2.604  20.689  0.00  0.00    +0.000 C 
ATOM     10  C   UNL     1       1.500   3.240  20.197  0.00  0.00    +0.000 C 
ATOM     11  C   UNL     1       2.048   4.576  19.721  0.00  0.00    +0.000 C 
ATOM     12  C   UNL     1       1.667   5.712  20.665  0.00  0.00    +0.000 C 
ATOM     13  H   UNL     1       5.729   3.609  19.211  0.00  0.00    +0.000 HD
ENDBRANCH   1   4
BRANCH   1  18
ATOM     14  C   UNL     1       5.821   3.524  12.211  0.00  0.00    +0.000 C 
ATOM     15  C   UNL     1       6.088   3.917  13.634  0.00  0.00    +0.000 A 
ATOM     16  C   UNL     1       7.166   4.752  13.949  0.00  0.00    +0.000 A 
ATOM     17  C   UNL     1       7.415   5.112  15.274  0.00  0.00    +0.000 A 
ATOM     18  C   UNL     1       6.564   4.668  16.290  0.00  0.00    +0.000 A 
ATOM     19  C   UNL     1       5.503   3.811  15.995  0.00  0.00    +0.000 A 
ATOM     20  C   UNL     1       5.266   3.440  14.667  0.00  0.00    +0.000 A 
ENDBRANCH   1  18
TORSDOF 2
ENDMDL
MODEL 5
REMARK VINA RESULT:      -7.1      2.139      6.641
REMARK  Name = 
REMARK  4 active torsions:
REMARK  status: ('A' for Active; 'I' for Inactive)
REMARK    1  A    between atoms: C_1  and  C_2
REMARK    2  A    between atoms: C_5  and  S_6
REMARK    3  A    between atoms: S_6  and  N_9
REMARK    4  A    between atoms: C_16  and  C_17
REMARK                            x       y       z     vdW  Elec       q    Type
REMARK                         _______ _______ _______ _____ _____    ______ ____
ROOT
ATOM      1  S   UNL     1       5.999   5.145  17.662  0.00  0.00    +0.000 S 
ATOM      2  O   UNL     1       7.128   4.605  18.395  0.00  0.00    +0.000 OA
ATOM      3  O   UNL     1       5.672   6.550  17.755  0.00  0.00    +0.000 OA
ENDROOT
BRANCH   1   4
ATOM      4  N   UNL     1       4.692   4.255  18.131  0.00  0.00    +0.000 N 
ATOM      5  C   UNL     1       3.924   4.435  19.278  0.00  0.00    +0.000 C 
ATOM      6  O   UNL     1       4.163   5.281  20.127  0.00  0.00    +0.000 OA
ATOM      7  N   UNL     1       2.814   3.612  19.325  0.00  0.00    +0.000 N 
ATOM      8  N   UNL     1       2.606   2.589  18.425  0.00  0.00    +0.000 NA
ATOM      9  C   UNL     1       1.406   2.161  18.654  0.00  0.00    +0.000 C 
ATOM     10  C   UNL     1       0.607   2.953  19.640  0.00  0.00    +0.000 C 
ATOM     11  C   UNL     1       1.713   3.786  20.267  0.00  0.00    +0.000 C 
ATOM     12  C   UNL     1       2.052   3.307  21.675  0.00  0.00    +0.000 C 
ATOM     13  H   UNL     1       4.323   3.595  17.457  0.00  0.00    +0.000 HD
ENDBRANCH   1   4
BRANCH   1  18
ATOM     14  C   UNL     1       6.745   3.762  11.788  0.00  0.00    +0.000 C 
ATOM     15  C   UNL     1       6.564   4.108  13.237  0.00  0.00    +0.000 A 
ATOM     16  C   UNL     1       5.404   3.720  13.918  0.00  0.00    +0.000 A 
ATOM     17  C   UNL     1       5.236   4.047  15.264  0.00  0.00    +0.000 A 
ATOM     18  C   UNL     1       6.244   4.733  15.948  0.00  0.00    +0.000 A 
ATOM     19  C   UNL     1       7.391   5.151  15.274  0.00  0.00    +0.000 A 
ATOM     20  C   UNL     1       7.549   4.835  13.920  0.00  0.00    +0.000 A 
ENDBRANCH   1  18
TORSDOF 2
ENDMDL
MODEL 6
REMARK VINA RESULT:      -7.1      2.109      6.656
REMARK  Name = 
REMARK  4 active torsions:
REMARK  status: ('A' for Active; 'I' for Inactive)
REMARK    1  A    between atoms: C_1  and  C_2
REMARK    2  A    between atoms: C_5  and  S_6
REMARK    3  A    between atoms: S_6  and  N_9
REMARK    4  A    between atoms: C_16  and  C_17
REMARK                            x       y       z     vdW  Elec       q    Type
REMARK                         _______ _______ _______ _____ _____    ______ ____
ROOT
ATOM      1  S   UNL     1       6.115   5.082  17.616  0.00  0.00    +0.000 S 
ATOM      2  O   UNL     1       7.251   4.485  18.292  0.00  0.00    +0.000 OA
ATOM      3  O   UNL     1       5.836   6.493  17.762  0.00  0.00    +0.000 OA
ENDROOT
BRANCH   1   4
ATOM      4  N   UNL     1       4.797   4.219  18.105  0.00  0.00    +0.000 N 
ATOM      5  C   UNL     1       4.019   4.446  19.237  0.00  0.00    +0.000 C 
ATOM      6  O   UNL     1       4.257   5.321  20.057  0.00  0.00    +0.000 OA
ATOM      7  N   UNL     1       2.903   3.633  19.303  0.00  0.00    +0.000 N 
ATOM      8  N   UNL     1       2.696   2.580  18.439  0.00  0.00    +0.000 NA
ATOM      9  C   UNL     1       1.490   2.170  18.672  0.00  0.00    +0.000 C 
ATOM     10  C   UNL     1       0.688   3.002  19.621  0.00  0.00    +0.000 C 
ATOM     11  C   UNL     1       1.795   3.849  20.228  0.00  0.00    +0.000 C 
ATOM     12  C   UNL     1       2.117   3.420  21.655  0.00  0.00    +0.000 C 
ATOM     13  H   UNL     1       4.429   3.538  17.451  0.00  0.00    +0.000 HD
ENDBRANCH   1   4
BRANCH   1  18
ATOM     14  C   UNL     1       6.796   3.807  11.710  0.00  0.00    +0.000 C 
ATOM     15  C   UNL     1       6.626   4.118  13.168  0.00  0.00    +0.000 A 
ATOM     16  C   UNL     1       7.578   4.888  13.845  0.00  0.00    +0.000 A 
ATOM     17  C   UNL     1       7.419   5.171  15.202  0.00  0.00    +0.000 A 
ATOM     18  C   UNL     1       6.287   4.715  15.883  0.00  0.00    +0.000 A 
ATOM     19  C   UNL     1       5.345   3.921  15.229  0.00  0.00    +0.000 A 
ATOM     20  C   UNL     1       5.516   3.626  13.871  0.00  0.00    +0.000 A 
ENDBRANCH   1  18
TORSDOF 2
ENDMDL
MODEL 7
REMARK VINA RESULT:      -6.9      2.310      6.560
REMARK  Name = 
REMARK  4 active torsions:
REMARK  status: ('A' for Active; 'I' for Inactive)
REMARK    1  A    between atoms: C_1  and  C_2
REMARK    2  A    between atoms: C_5  and  S_6
REMARK    3  A    between atoms: S_6  and  N_9
REMARK    4  A    between atoms: C_16  and  C_17
REMARK                            x       y       z     vdW  Elec       q    Type
REMARK                         _______ _______ _______ _____ _____    ______ ____
ROOT
ATOM      1  S   UNL     1       6.771   5.440  17.859  0.00  0.00    +0.000 S 
ATOM      2  O   UNL     1       7.623   4.488  18.545  0.00  0.00    +0.000 OA
ATOM      3  O   UNL     1       7.133   6.838  17.805  0.00  0.00    +0.000 OA
ENDROOT
BRANCH   1   4
ATOM      4  N   UNL     1       5.283   5.294  18.555  0.00  0.00    +0.000 N 
ATOM      5  C   UNL     1       4.717   4.139  19.085  0.00  0.00    +0.000 C 
ATOM      6  O   UNL     1       5.260   3.044  19.058  0.00  0.00    +0.000 OA
ATOM      7  N   UNL     1       3.508   4.365  19.718  0.00  0.00    +0.000 N 
ATOM      8  N   UNL     1       2.848   5.573  19.654  0.00  0.00    +0.000 NA
ATOM      9  C   UNL     1       1.869   5.481  20.495  0.00  0.00    +0.000 C 
ATOM     10  C   UNL     1       1.847   4.247  21.340  0.00  0.00    +0.000 C 
ATOM     11  C   UNL     1       2.849   3.391  20.581  0.00  0.00    +0.000 C 
ATOM     12  C   UNL     1       2.162   2.273  19.804  0.00  0.00    +0.000 C 
ATOM     13  H   UNL     1       4.779   6.153  18.740  0.00  0.00    +0.000 HD
ENDBRANCH   1   4
BRANCH   1  18
ATOM     14  C   UNL     1       5.956   3.432  12.177  0.00  0.00    +0.000 C 
ATOM     15  C   UNL     1       6.159   3.932  13.577  0.00  0.00    +0.000 A 
ATOM     16  C   UNL     1       5.236   3.620  14.582  0.00  0.00    +0.000 A 
ATOM     17  C   UNL     1       5.425   4.091  15.882  0.00  0.00    +0.000 A 
ATOM     18  C   UNL     1       6.560   4.846  16.195  0.00  0.00    +0.000 A 
ATOM     19  C   UNL     1       7.473   5.188  15.197  0.00  0.00    +0.000 A 
ATOM     20  C   UNL     1       7.271   4.728  13.891  0.00  0.00    +0.000 A 
ENDBRANCH   1  18
TORSDOF 2
ENDMDL
MODEL 8
REMARK VINA RESULT:      -6.9      2.352      6.568
REMARK  Name = 
REMARK  4 active torsions:
REMARK  status: ('A' for Active; 'I' for Inactive)
REMARK    1  A    between atoms: C_1  and  C_2
REMARK    2  A    between atoms: C_5  and  S_6
REMARK    3  A    between atoms: S_6  and  N_9
REMARK    4  A    between atoms: C_16  and  C_17
REMARK                            x       y       z     vdW  Elec       q    Type
REMARK                         _______ _______ _______ _____ _____    ______ ____
ROOT
ATOM      1  S   UNL     1       6.613   5.728  17.838  0.00  0.00    +0.000 S 
ATOM      2  O   UNL     1       7.560   4.873  18.527  0.00  0.00    +0.000 OA
ATOM      3  O   UNL     1       6.848   7.151  17.742  0.00  0.00    +0.000 OA
ENDROOT
BRANCH   1   4
ATOM      4  N   UNL     1       5.158   5.469  18.572  0.00  0.00    +0.000 N 
ATOM      5  C   UNL     1       4.662   4.257  19.042  0.00  0.00    +0.000 C 
ATOM      6  O   UNL     1       5.251   3.192  18.923  0.00  0.00    +0.000 OA
ATOM      7  N   UNL     1       3.468   4.386  19.728  0.00  0.00    +0.000 N 
ATOM      8  N   UNL     1       2.755   5.565  19.767  0.00  0.00    +0.000 NA
ATOM      9  C   UNL     1       1.812   5.373  20.632  0.00  0.00    +0.000 C 
ATOM     10  C   UNL     1       1.873   4.086  21.392  0.00  0.00    +0.000 C 
ATOM     11  C   UNL     1       2.883   3.329  20.545  0.00  0.00    +0.000 C 
ATOM     12  C   UNL     1       2.217   2.234  19.718  0.00  0.00    +0.000 C 
ATOM     13  H   UNL     1       4.625   6.291  18.831  0.00  0.00    +0.000 HD
ENDBRANCH   1   4
BRANCH   1  18
ATOM     14  C   UNL     1       6.039   3.451  12.229  0.00  0.00    +0.000 C 
ATOM     15  C   UNL     1       6.177   4.009  13.615  0.00  0.00    +0.000 A 
ATOM     16  C   UNL     1       7.395   4.551  14.043  0.00  0.00    +0.000 A 
ATOM     17  C   UNL     1       7.522   5.065  15.334  0.00  0.00    +0.000 A 
ATOM     18  C   UNL     1       6.420   5.075  16.194  0.00  0.00    +0.000 A 
ATOM     19  C   UNL     1       5.209   4.512  15.791  0.00  0.00    +0.000 A 
ATOM     20  C   UNL     1       5.090   3.982  14.501  0.00  0.00    +0.000 A 
ENDBRANCH   1  18
TORSDOF 2
ENDMDL
MODEL 9
REMARK VINA RESULT:      -6.7      3.516      6.818
REMARK  Name = 
REMARK  4 active torsions:
REMARK  status: ('A' for Active; 'I' for Inactive)
REMARK    1  A    between atoms: C_1  and  C_2
REMARK    2  A    between atoms: C_5  and  S_6
REMARK    3  A    between atoms: S_6  and  N_9
REMARK    4  A    between atoms: C_16  and  C_17
REMARK                            x       y       z     vdW  Elec       q    Type
REMARK                         _______ _______ _______ _____ _____    ______ ____
ROOT
ATOM      1  S   UNL     1       5.653   4.959  16.899  0.00  0.00    +0.000 S 
ATOM      2  O   UNL     1       4.941   5.464  15.740  0.00  0.00    +0.000 OA
ATOM      3  O   UNL     1       6.453   3.760  16.799  0.00  0.00    +0.000 OA
ENDROOT
BRANCH   1   4
ATOM      4  N   UNL     1       4.512   4.752  18.071  0.00  0.00    +0.000 N 
ATOM      5  C   UNL     1       3.576   3.725  18.157  0.00  0.00    +0.000 C 
ATOM      6  O   UNL     1       3.458   2.845  17.317  0.00  0.00    +0.000 OA
ATOM      7  N   UNL     1       2.843   3.753  19.329  0.00  0.00    +0.000 N 
ATOM      8  N   UNL     1       2.902   4.802  20.221  0.00  0.00    +0.000 NA
ATOM      9  C   UNL     1       2.243   4.410  21.264  0.00  0.00    +0.000 C 
ATOM     10  C   UNL     1       1.790   2.985  21.254  0.00  0.00    +0.000 C 
ATOM     11  C   UNL     1       2.001   2.652  19.786  0.00  0.00    +0.000 C 
ATOM     12  C   UNL     1       0.678   2.559  19.032  0.00  0.00    +0.000 C 
ATOM     13  H   UNL     1       4.580   5.351  18.885  0.00  0.00    +0.000 HD
ENDBRANCH   1   4
BRANCH   1  18
ATOM     14  C   UNL     1       9.105   9.534  18.931  0.00  0.00    +0.000 C 
ATOM     15  C   UNL     1       8.254   8.403  18.434  0.00  0.00    +0.000 A 
ATOM     16  C   UNL     1       7.287   8.624  17.446  0.00  0.00    +0.000 A 
ATOM     17  C   UNL     1       6.493   7.572  16.990  0.00  0.00    +0.000 A 
ATOM     18  C   UNL     1       6.686   6.281  17.492  0.00  0.00    +0.000 A 
ATOM     19  C   UNL     1       7.625   6.052  18.498  0.00  0.00    +0.000 A 
ATOM     20  C   UNL     1       8.408   7.114  18.965  0.00  0.00    +0.000 A 
ENDBRANCH   1  18
TORSDOF 2
ENDMDL
