MODEL 1
REMARK VINA RESULT:      -8.8      0.000      0.000
REMARK  Name = 
REMARK  7 active torsions:
REMARK  status: ('A' for Active; 'I' for Inactive)
REMARK    1  A    between atoms: C_1  and  O_2
REMARK    2  A    between atoms: O_2  and  C_3
REMARK    3  A    between atoms: C_3  and  C_4
REMARK    4  A    between atoms: C_7  and  C_8
REMARK    5  A    between atoms: C_8  and  N_9
REMARK    6  A    between atoms: C_12  and  C_13
REMARK    7  A    between atoms: N_20  and  C_21
REMARK                            x       y       z     vdW  Elec       q    Type
REMARK                         _______ _______ _______ _____ _____    ______ ____
ROOT
ATOM      1  C   UNL     1       2.017   7.079  19.948  0.00  0.00    +0.000 A 
ATOM      2  C   UNL     1       1.743   7.377  21.296  0.00  0.00    +0.000 A 
ATOM      3  C   UNL     1       1.135   8.609  21.653  0.00  0.00    +0.000 A 
ATOM      4  C   UNL     1       0.899   9.557  20.654  0.00  0.00    +0.000 A 
ATOM      5  C   UNL     1       1.480   9.402  19.413  0.00  0.00    +0.000 A 
ATOM      6  C   UNL     1       1.982   8.158  19.025  0.00  0.00    +0.000 A 
ATOM      7  C   UNL     1       1.283  10.693  18.686  0.00  0.00    +0.000 C 
ATOM      8  N   UNL     1      -0.027  11.158  19.161  0.00  0.00    +0.000 N 
ATOM      9  C   UNL     1      -0.131  10.640  20.499  0.00  0.00    +0.000 C 
ATOM     10  O   UNL     1      -1.019  10.866  21.311  0.00  0.00    +0.000 OA
ENDROOT
BRANCH   8  11
ATOM     11  C   UNL     1      -1.248  11.036  18.275  0.00  0.00    +0.000 C 
ATOM     12  C   UNL     1      -1.968   9.661  18.178  0.00  0.00    +0.000 C 
ATOM     13  C   UNL     1      -3.269   9.687  17.331  0.00  0.00    +0.000 C 
ATOM     14  C   UNL     1      -4.064  10.980  17.333  0.00  0.00    +0.000 C 
ATOM     15  O   UNL     1      -5.250  11.012  17.031  0.00  0.00    +0.000 OA
ATOM     16  N   UNL     1      -3.386  12.112  17.686  0.00  0.00    +0.000 N 
ATOM     17  C   UNL     1      -2.351  12.077  18.583  0.00  0.00    +0.000 C 
ATOM     18  O   UNL     1      -2.433  12.789  19.581  0.00  0.00    +0.000 OA
ATOM     19  H   UNL     1      -4.047  12.852  17.902  0.00  0.00    +0.000 HD
ENDBRANCH   8  11
BRANCH   1  23
ATOM     20  N   UNL     1       4.598   4.452  18.074  0.00  0.00    +0.000 NA
ATOM     21  C   UNL     1       4.537   4.592  19.537  0.00  0.00    +0.000 C 
ATOM     22  C   UNL     1       3.107   4.646  20.092  0.00  0.00    +0.000 C 
ATOM     23  C   UNL     1       2.153   5.643  19.392  0.00  0.00    +0.000 C 
ATOM     24  C   UNL     1       2.323   5.508  17.875  0.00  0.00    +0.000 C 
ATOM     25  C   UNL     1       3.788   5.505  17.424  0.00  0.00    +0.000 C 
BRANCH  20  26
ATOM     26  C   UNL     1       6.002   4.530  17.584  0.00  0.00    +0.000 C 
BRANCH  26  30
ATOM     27  C   UNL     1       8.143   8.317  18.136  0.00  0.00    +0.000 A 
ATOM     28  C   UNL     1       8.435   7.203  18.933  0.00  0.00    +0.000 A 
ATOM     29  C   UNL     1       7.733   5.992  18.778  0.00  0.00    +0.000 A 
ATOM     30  C   UNL     1       6.730   5.853  17.808  0.00  0.00    +0.000 A 
ATOM     31  C   UNL     1       6.450   6.963  16.998  0.00  0.00    +0.000 A 
ATOM     32  C   UNL     1       7.131   8.177  17.175  0.00  0.00    +0.000 A 
BRANCH  27  33
ATOM     33  C   UNL     1       8.841   9.656  18.271  0.00  0.00    +0.000 C 
BRANCH  33  35
ATOM     34  C   UNL     1      10.034  11.071  19.768  0.00  0.00    +0.000 C 
ATOM     35  O   UNL     1       9.007  10.101  19.618  0.00  0.00    +0.000 OA
ENDBRANCH  33  35
ENDBRANCH  27  33
ENDBRANCH  26  30
ENDBRANCH  20  26
ENDBRANCH   1  23
TORSDOF 6
ENDMDL
MODEL 2
REMARK VINA RESULT:      -8.7      0.580      1.003
REMARK  Name = 
REMARK  7 active torsions:
REMARK  status: ('A' for Active; 'I' for Inactive)
REMARK    1  A    between atoms: C_1  and  O_2
REMARK    2  A    between atoms: O_2  and  C_3
REMARK    3  A    between atoms: C_3  and  C_4
REMARK    4  A    between atoms: C_7  and  C_8
REMARK    5  A    between atoms: C_8  and  N_9
REMARK    6  A    between atoms: C_12  and  C_13
REMARK    7  A    between atoms: N_20  and  C_21
REMARK                            x       y       z     vdW  Elec       q    Type
REMARK                         _______ _______ _______ _____ _____    ______ ____
ROOT
ATOM      1  C   UNL     1       2.166   6.842  19.627  0.00  0.00    +0.000 A 
ATOM      2  C   UNL     1       1.839   7.040  20.982  0.00  0.00    +0.000 A 
ATOM      3  C   UNL     1       1.212   8.241  21.405  0.00  0.00    +0.000 A 
ATOM      4  C   UNL     1       1.007   9.258  20.469  0.00  0.00    +0.000 A 
ATOM      5  C   UNL     1       1.636   9.197  19.243  0.00  0.00    +0.000 A 
ATOM      6  C   UNL     1       2.159   7.986  18.784  0.00  0.00    +0.000 A 
ATOM      7  C   UNL     1       1.458  10.537  18.605  0.00  0.00    +0.000 C 
ATOM      8  N   UNL     1       0.128  10.961  19.063  0.00  0.00    +0.000 N 
ATOM      9  C   UNL     1      -0.022  10.346  20.355  0.00  0.00    +0.000 C 
ATOM     10  O   UNL     1      -0.942  10.509  21.147  0.00  0.00    +0.000 OA
ENDROOT
BRANCH   8  11
ATOM     11  C   UNL     1      -1.058  10.900  18.124  0.00  0.00    +0.000 C 
ATOM     12  C   UNL     1      -1.894   9.591  18.059  0.00  0.00    +0.000 C 
ATOM     13  C   UNL     1      -3.149   9.686  17.150  0.00  0.00    +0.000 C 
ATOM     14  C   UNL     1      -3.823  11.043  17.050  0.00  0.00    +0.000 C 
ATOM     15  O   UNL     1      -4.987  11.162  16.688  0.00  0.00    +0.000 OA
ATOM     16  N   UNL     1      -3.061  12.128  17.380  0.00  0.00    +0.000 N 
ATOM     17  C   UNL     1      -2.076  12.048  18.327  0.00  0.00    +0.000 C 
ATOM     18  O   UNL     1      -2.137  12.817  19.284  0.00  0.00    +0.000 OA
ATOM     19  H   UNL     1      -3.662  12.933  17.526  0.00  0.00    +0.000 HD
ENDBRANCH   8  11
BRANCH   1  23
ATOM     20  N   UNL     1       4.863   4.322  17.770  0.00  0.00    +0.000 NA
ATOM     21  C   UNL     1       4.682   4.350  19.230  0.00  0.00    +0.000 C 
ATOM     22  C   UNL     1       3.212   4.386  19.668  0.00  0.00    +0.000 C 
ATOM     23  C   UNL     1       2.331   5.451  18.973  0.00  0.00    +0.000 C 
ATOM     24  C   UNL     1       2.625   5.430  17.470  0.00  0.00    +0.000 C 
ATOM     25  C   UNL     1       4.122   5.436  17.141  0.00  0.00    +0.000 C 
BRANCH  20  26
ATOM     26  C   UNL     1       6.303   4.413  17.404  0.00  0.00    +0.000 C 
BRANCH  26  30
ATOM     27  C   UNL     1       8.273   8.189  18.447  0.00  0.00    +0.000 A 
ATOM     28  C   UNL     1       7.446   8.097  17.322  0.00  0.00    +0.000 A 
ATOM     29  C   UNL     1       6.830   6.881  16.966  0.00  0.00    +0.000 A 
ATOM     30  C   UNL     1       7.011   5.723  17.738  0.00  0.00    +0.000 A 
ATOM     31  C   UNL     1       7.825   5.820  18.875  0.00  0.00    +0.000 A 
ATOM     32  C   UNL     1       8.460   7.026  19.209  0.00  0.00    +0.000 A 
BRANCH  27  33
ATOM     33  C   UNL     1       8.986   9.460  18.868  0.00  0.00    +0.000 C 
BRANCH  33  35
ATOM     34  C   UNL     1       9.188  11.772  18.342  0.00  0.00    +0.000 C 
ATOM     35  O   UNL     1       9.086  10.447  17.840  0.00  0.00    +0.000 OA
ENDBRANCH  33  35
ENDBRANCH  27  33
ENDBRANCH  26  30
ENDBRANCH  20  26
ENDBRANCH   1  23
TORSDOF 6
ENDMDL
MODEL 3
REMARK VINA RESULT:      -8.1      2.871      3.982
REMARK  Name = 
REMARK  7 active torsions:
REMARK  status: ('A' for Active; 'I' for Inactive)
REMARK    1  A    between atoms: C_1  and  O_2
REMARK    2  A    between atoms: O_2  and  C_3
REMARK    3  A    between atoms: C_3  and  C_4
REMARK    4  A    between atoms: C_7  and  C_8
REMARK    5  A    between atoms: C_8  and  N_9
REMARK    6  A    between atoms: C_12  and  C_13
REMARK    7  A    between atoms: N_20  and  C_21
REMARK                            x       y       z     vdW  Elec       q    Type
REMARK                         _______ _______ _______ _____ _____    ______ ____
ROOT
ATOM      1  C   UNL     1       1.926   7.555  20.089  0.00  0.00    +0.000 A 
ATOM      2  C   UNL     1       1.685   7.806  21.454  0.00  0.00    +0.000 A 
ATOM      3  C   UNL     1       1.030   8.996  21.863  0.00  0.00    +0.000 A 
ATOM      4  C   UNL     1       0.711   9.954  20.899  0.00  0.00    +0.000 A 
ATOM      5  C   UNL     1       1.255   9.860  19.635  0.00  0.00    +0.000 A 
ATOM      6  C   UNL     1       1.804   8.654  19.197  0.00  0.00    +0.000 A 
ATOM      7  C   UNL     1       0.967  11.157  18.949  0.00  0.00    +0.000 C 
ATOM      8  N   UNL     1      -0.347  11.543  19.481  0.00  0.00    +0.000 N 
ATOM      9  C   UNL     1      -0.377  10.987  20.808  0.00  0.00    +0.000 C 
ATOM     10  O   UNL     1      -1.246  11.147  21.655  0.00  0.00    +0.000 OA
ENDROOT
BRANCH   8  11
ATOM     11  C   UNL     1      -1.591  11.380  18.634  0.00  0.00    +0.000 C 
ATOM     12  C   UNL     1      -2.185   9.956  18.442  0.00  0.00    +0.000 C 
ATOM     13  C   UNL     1      -3.521   9.929  17.651  0.00  0.00    +0.000 C 
ATOM     14  C   UNL     1      -4.430  11.135  17.798  0.00  0.00    +0.000 C 
ATOM     15  O   UNL     1      -5.627  11.079  17.544  0.00  0.00    +0.000 OA
ATOM     16  N   UNL     1      -3.843  12.293  18.224  0.00  0.00    +0.000 N 
ATOM     17  C   UNL     1      -2.770  12.280  19.075  0.00  0.00    +0.000 C 
ATOM     18  O   UNL     1      -2.871  12.894  20.134  0.00  0.00    +0.000 OA
ATOM     19  H   UNL     1      -4.560  12.945  18.530  0.00  0.00    +0.000 HD
ENDBRANCH   8  11
BRANCH   1  23
ATOM     20  N   UNL     1       4.556   5.120  18.034  0.00  0.00    +0.000 NA
ATOM     21  C   UNL     1       4.556   5.222  19.501  0.00  0.00    +0.000 C 
ATOM     22  C   UNL     1       3.152   5.184  20.121  0.00  0.00    +0.000 C 
ATOM     23  C   UNL     1       2.114   6.142  19.491  0.00  0.00    +0.000 C 
ATOM     24  C   UNL     1       2.221   6.051  17.965  0.00  0.00    +0.000 C 
ATOM     25  C   UNL     1       3.661   6.141  17.448  0.00  0.00    +0.000 C 
BRANCH  20  26
ATOM     26  C   UNL     1       5.930   5.287  17.483  0.00  0.00    +0.000 C 
BRANCH  26  30
ATOM     27  C   UNL     1       6.530   4.091  13.307  0.00  0.00    +0.000 A 
ATOM     28  C   UNL     1       5.410   3.655  14.026  0.00  0.00    +0.000 A 
ATOM     29  C   UNL     1       5.224   4.015  15.375  0.00  0.00    +0.000 A 
ATOM     30  C   UNL     1       6.145   4.837  16.041  0.00  0.00    +0.000 A 
ATOM     31  C   UNL     1       7.258   5.287  15.316  0.00  0.00    +0.000 A 
ATOM     32  C   UNL     1       7.455   4.903  13.981  0.00  0.00    +0.000 A 
BRANCH  27  33
ATOM     33  C   UNL     1       6.803   3.717  11.863  0.00  0.00    +0.000 C 
BRANCH  33  35
ATOM     34  C   UNL     1       5.934   1.586  11.253  0.00  0.00    +0.000 C 
ATOM     35  O   UNL     1       7.076   2.330  11.656  0.00  0.00    +0.000 OA
ENDBRANCH  33  35
ENDBRANCH  27  33
ENDBRANCH  26  30
ENDBRANCH  20  26
ENDBRANCH   1  23
TORSDOF 6
ENDMDL
MODEL 4
REMARK VINA RESULT:      -8.0      5.438     10.444
REMARK  Name = 
REMARK  7 active torsions:
REMARK  status: ('A' for Active; 'I' for Inactive)
REMARK    1  A    between atoms: C_1  and  O_2
REMARK    2  A    between atoms: O_2  and  C_3
REMARK    3  A    between atoms: C_3  and  C_4
REMARK    4  A    between atoms: C_7  and  C_8
REMARK    5  A    between atoms: C_8  and  N_9
REMARK    6  A    between atoms: C_12  and  C_13
REMARK    7  A    between atoms: N_20  and  C_21
REMARK                            x       y       z     vdW  Elec       q    Type
REMARK                         _______ _______ _______ _____ _____    ______ ____
ROOT
ATOM      1  C   UNL     1      -4.975  11.446  17.399  0.00  0.00    +0.000 A 
ATOM      2  C   UNL     1      -4.397  10.786  16.297  0.00  0.00    +0.000 A 
ATOM      3  C   UNL     1      -3.006  10.510  16.270  0.00  0.00    +0.000 A 
ATOM      4  C   UNL     1      -2.205  10.985  17.311  0.00  0.00    +0.000 A 
ATOM      5  C   UNL     1      -2.712  11.917  18.194  0.00  0.00    +0.000 A 
ATOM      6  C   UNL     1      -4.092  12.109  18.293  0.00  0.00    +0.000 A 
ATOM      7  C   UNL     1      -1.553  12.430  18.985  0.00  0.00    +0.000 C 
ATOM      8  N   UNL     1      -0.677  11.257  19.113  0.00  0.00    +0.000 N 
ATOM      9  C   UNL     1      -0.923  10.492  17.919  0.00  0.00    +0.000 C 
ATOM     10  O   UNL     1      -0.334   9.481  17.557  0.00  0.00    +0.000 OA
ENDROOT
BRANCH   8  11
ATOM     11  C   UNL     1      -0.605  10.497  20.420  0.00  0.00    +0.000 C 
ATOM     12  C   UNL     1       0.490   9.406  20.591  0.00  0.00    +0.000 C 
ATOM     13  C   UNL     1       0.539   8.776  22.009  0.00  0.00    +0.000 C 
ATOM     14  C   UNL     1       0.147   9.670  23.172  0.00  0.00    +0.000 C 
ATOM     15  O   UNL     1       0.491   9.427  24.321  0.00  0.00    +0.000 OA
ATOM     16  N   UNL     1      -0.618  10.762  22.870  0.00  0.00    +0.000 N 
ATOM     17  C   UNL     1      -0.502  11.407  21.667  0.00  0.00    +0.000 C 
ATOM     18  O   UNL     1      -0.238  12.606  21.683  0.00  0.00    +0.000 OA
ATOM     19  H   UNL     1      -0.605  11.412  23.650  0.00  0.00    +0.000 HD
ENDBRANCH   8  11
BRANCH   1  23
ATOM     20  N   UNL     1      -7.702  12.192  20.411  0.00  0.00    +0.000 NA
ATOM     21  C   UNL     1      -7.372  13.187  19.380  0.00  0.00    +0.000 C 
ATOM     22  C   UNL     1      -7.312  12.607  17.960  0.00  0.00    +0.000 C 
ATOM     23  C   UNL     1      -6.464  11.324  17.795  0.00  0.00    +0.000 C 
ATOM     24  C   UNL     1      -6.792  10.364  18.943  0.00  0.00    +0.000 C 
ATOM     25  C   UNL     1      -6.785  11.036  20.320  0.00  0.00    +0.000 C 
BRANCH  20  26
ATOM     26  C   UNL     1      -7.624  12.784  21.775  0.00  0.00    +0.000 C 
BRANCH  26  30
ATOM     27  C   UNL     1      -3.646  13.712  23.371  0.00  0.00    +0.000 A 
ATOM     28  C   UNL     1      -3.960  13.966  22.030  0.00  0.00    +0.000 A 
ATOM     29  C   UNL     1      -5.227  13.646  21.505  0.00  0.00    +0.000 A 
ATOM     30  C   UNL     1      -6.226  13.080  22.311  0.00  0.00    +0.000 A 
ATOM     31  C   UNL     1      -5.917  12.842  23.657  0.00  0.00    +0.000 A 
ATOM     32  C   UNL     1      -4.644  13.135  24.171  0.00  0.00    +0.000 A 
BRANCH  27  33
ATOM     33  C   UNL     1      -2.294  14.006  23.991  0.00  0.00    +0.000 C 
BRANCH  33  35
ATOM     34  C   UNL     1      -1.811  15.384  25.871  0.00  0.00    +0.000 C 
ATOM     35  O   UNL     1      -2.152  15.336  24.493  0.00  0.00    +0.000 OA
ENDBRANCH  33  35
ENDBRANCH  27  33
ENDBRANCH  26  30
ENDBRANCH  20  26
ENDBRANCH   1  23
TORSDOF 6
ENDMDL
MODEL 5
REMARK VINA RESULT:      -7.6      3.106      9.932
REMARK  Name = 
REMARK  7 active torsions:
REMARK  status: ('A' for Active; 'I' for Inactive)
REMARK    1  A    between atoms: C_1  and  O_2
REMARK    2  A    between atoms: O_2  and  C_3
REMARK    3  A    between atoms: C_3  and  C_4
REMARK    4  A    between atoms: C_7  and  C_8
REMARK    5  A    between atoms: C_8  and  N_9
REMARK    6  A    between atoms: C_12  and  C_13
REMARK    7  A    between atoms: N_20  and  C_21
REMARK                            x       y       z     vdW  Elec       q    Type
REMARK                         _______ _______ _______ _____ _____    ______ ____
ROOT
ATOM      1  C   UNL     1       1.838   6.955  19.740  0.00  0.00    +0.000 A 
ATOM      2  C   UNL     1       2.001   6.154  20.887  0.00  0.00    +0.000 A 
ATOM      3  C   UNL     1       2.468   4.819  20.774  0.00  0.00    +0.000 A 
ATOM      4  C   UNL     1       2.676   4.285  19.500  0.00  0.00    +0.000 A 
ATOM      5  C   UNL     1       2.188   4.947  18.392  0.00  0.00    +0.000 A 
ATOM      6  C   UNL     1       1.829   6.293  18.483  0.00  0.00    +0.000 A 
ATOM      7  C   UNL     1       2.309   4.000  17.242  0.00  0.00    +0.000 C 
ATOM      8  N   UNL     1       3.539   3.253  17.540  0.00  0.00    +0.000 N 
ATOM      9  C   UNL     1       3.609   3.229  18.977  0.00  0.00    +0.000 C 
ATOM     10  O   UNL     1       4.421   2.626  19.666  0.00  0.00    +0.000 OA
ENDROOT
BRANCH   8  11
ATOM     11  C   UNL     1       4.818   3.559  16.789  0.00  0.00    +0.000 C 
ATOM     12  C   UNL     1       4.752   3.755  15.248  0.00  0.00    +0.000 C 
ATOM     13  C   UNL     1       6.102   4.175  14.606  0.00  0.00    +0.000 C 
ATOM     14  C   UNL     1       7.034   5.019  15.457  0.00  0.00    +0.000 C 
ATOM     15  O   UNL     1       7.919   5.706  14.962  0.00  0.00    +0.000 OA
ATOM     16  N   UNL     1       6.838   4.969  16.808  0.00  0.00    +0.000 N 
ATOM     17  C   UNL     1       5.593   4.777  17.344  0.00  0.00    +0.000 C 
ATOM     18  O   UNL     1       5.171   5.622  18.131  0.00  0.00    +0.000 OA
ATOM     19  H   UNL     1       7.325   5.743  17.251  0.00  0.00    +0.000 HD
ENDBRANCH   8  11
BRANCH   1  23
ATOM     20  N   UNL     1      -0.289  10.350  18.731  0.00  0.00    +0.000 NA
ATOM     21  C   UNL     1      -0.441   9.680  20.031  0.00  0.00    +0.000 C 
ATOM     22  C   UNL     1       0.892   9.271  20.673  0.00  0.00    +0.000 C 
ATOM     23  C   UNL     1       1.870   8.500  19.754  0.00  0.00    +0.000 C 
ATOM     24  C   UNL     1       1.921   9.198  18.392  0.00  0.00    +0.000 C 
ATOM     25  C   UNL     1       0.536   9.526  17.822  0.00  0.00    +0.000 C 
BRANCH  20  26
ATOM     26  C   UNL     1      -1.614  10.611  18.102  0.00  0.00    +0.000 C 
BRANCH  26  30
ATOM     27  C   UNL     1      -4.304  13.240  20.355  0.00  0.00    +0.000 A 
ATOM     28  C   UNL     1      -4.795  12.407  19.343  0.00  0.00    +0.000 A 
ATOM     29  C   UNL     1      -3.932  11.578  18.598  0.00  0.00    +0.000 A 
ATOM     30  C   UNL     1      -2.554  11.546  18.856  0.00  0.00    +0.000 A 
ATOM     31  C   UNL     1      -2.066  12.369  19.881  0.00  0.00    +0.000 A 
ATOM     32  C   UNL     1      -2.923  13.214  20.602  0.00  0.00    +0.000 A 
BRANCH  27  33
ATOM     33  C   UNL     1      -5.174  14.175  21.173  0.00  0.00    +0.000 C 
BRANCH  33  35
ATOM     34  C   UNL     1      -5.174  14.564  23.522  0.00  0.00    +0.000 C 
ATOM     35  O   UNL     1      -5.519  13.677  22.467  0.00  0.00    +0.000 OA
ENDBRANCH  33  35
ENDBRANCH  27  33
ENDBRANCH  26  30
ENDBRANCH  20  26
ENDBRANCH   1  23
TORSDOF 6
ENDMDL
MODEL 6
REMARK VINA RESULT:      -7.5      5.933      9.500
REMARK  Name = 
REMARK  7 active torsions:
REMARK  status: ('A' for Active; 'I' for Inactive)
REMARK    1  A    between atoms: C_1  and  O_2
REMARK    2  A    between atoms: O_2  and  C_3
REMARK    3  A    between atoms: C_3  and  C_4
REMARK    4  A    between atoms: C_7  and  C_8
REMARK    5  A    between atoms: C_8  and  N_9
REMARK    6  A    between atoms: C_12  and  C_13
REMARK    7  A    between atoms: N_20  and  C_21
REMARK                            x       y       z     vdW  Elec       q    Type
REMARK                         _______ _______ _______ _____ _____    ______ ____
ROOT
ATOM      1  C   UNL     1      -6.729  12.987  21.475  0.00  0.00    +0.000 A 
ATOM      2  C   UNL     1      -7.141  14.130  22.187  0.00  0.00    +0.000 A 
ATOM      3  C   UNL     1      -6.222  14.844  22.999  0.00  0.00    +0.000 A 
ATOM      4  C   UNL     1      -4.928  14.342  23.152  0.00  0.00    +0.000 A 
ATOM      5  C   UNL     1      -4.640  13.057  22.742  0.00  0.00    +0.000 A 
ATOM      6  C   UNL     1      -5.495  12.396  21.856  0.00  0.00    +0.000 A 
ATOM      7  C   UNL     1      -3.293  12.723  23.297  0.00  0.00    +0.000 C 
ATOM      8  N   UNL     1      -2.577  14.005  23.254  0.00  0.00    +0.000 N 
ATOM      9  C   UNL     1      -3.604  14.999  23.421  0.00  0.00    +0.000 C 
ATOM     10  O   UNL     1      -3.449  16.207  23.547  0.00  0.00    +0.000 OA
ENDROOT
BRANCH   8  11
ATOM     11  C   UNL     1      -1.533  14.261  22.187  0.00  0.00    +0.000 C 
ATOM     12  C   UNL     1      -1.950  15.035  20.904  0.00  0.00    +0.000 C 
ATOM     13  C   UNL     1      -0.772  15.336  19.938  0.00  0.00    +0.000 C 
ATOM     14  C   UNL     1       0.593  15.551  20.565  0.00  0.00    +0.000 C 
ATOM     15  O   UNL     1       1.489  16.145  19.978  0.00  0.00    +0.000 OA
ATOM     16  N   UNL     1       0.775  15.043  21.820  0.00  0.00    +0.000 N 
ATOM     17  C   UNL     1      -0.258  14.961  22.715  0.00  0.00    +0.000 C 
ATOM     18  O   UNL     1      -0.122  15.520  23.801  0.00  0.00    +0.000 OA
ATOM     19  H   UNL     1       1.605  15.454  22.237  0.00  0.00    +0.000 HD
ENDBRANCH   8  11
BRANCH   1  23
ATOM     20  N   UNL     1      -6.075  11.657  17.618  0.00  0.00    +0.000 NA
ATOM     21  C   UNL     1      -6.063  10.754  18.779  0.00  0.00    +0.000 C 
ATOM     22  C   UNL     1      -7.216  10.998  19.762  0.00  0.00    +0.000 C 
ATOM     23  C   UNL     1      -7.426  12.468  20.197  0.00  0.00    +0.000 C 
ATOM     24  C   UNL     1      -7.345  13.366  18.958  0.00  0.00    +0.000 C 
ATOM     25  C   UNL     1      -6.136  13.066  18.066  0.00  0.00    +0.000 C 
BRANCH  20  26
ATOM     26  C   UNL     1      -4.870  11.457  16.768  0.00  0.00    +0.000 C 
BRANCH  26  30
ATOM     27  C   UNL     1      -1.072  10.695  18.824  0.00  0.00    +0.000 A 
ATOM     28  C   UNL     1      -1.469   9.911  17.733  0.00  0.00    +0.000 A 
ATOM     29  C   UNL     1      -2.700  10.134  17.084  0.00  0.00    +0.000 A 
ATOM     30  C   UNL     1      -3.562  11.160  17.496  0.00  0.00    +0.000 A 
ATOM     31  C   UNL     1      -3.156  11.956  18.577  0.00  0.00    +0.000 A 
ATOM     32  C   UNL     1      -1.943  11.712  19.240  0.00  0.00    +0.000 A 
BRANCH  27  33
ATOM     33  C   UNL     1       0.225  10.488  19.582  0.00  0.00    +0.000 C 
BRANCH  33  35
ATOM     34  C   UNL     1      -0.226   9.272  21.578  0.00  0.00    +0.000 C 
ATOM     35  O   UNL     1       0.315   9.237  20.265  0.00  0.00    +0.000 OA
ENDBRANCH  33  35
ENDBRANCH  27  33
ENDBRANCH  26  30
ENDBRANCH  20  26
ENDBRANCH   1  23
TORSDOF 6
ENDMDL
MODEL 7
REMARK VINA RESULT:      -7.5      4.508      7.545
REMARK  Name = 
REMARK  7 active torsions:
REMARK  status: ('A' for Active; 'I' for Inactive)
REMARK    1  A    between atoms: C_1  and  O_2
REMARK    2  A    between atoms: O_2  and  C_3
REMARK    3  A    between atoms: C_3  and  C_4
REMARK    4  A    between atoms: C_7  and  C_8
REMARK    5  A    between atoms: C_8  and  N_9
REMARK    6  A    between atoms: C_12  and  C_13
REMARK    7  A    between atoms: N_20  and  C_21
REMARK                            x       y       z     vdW  Elec       q    Type
REMARK                         _______ _______ _______ _____ _____    ______ ____
ROOT
ATOM      1  C   UNL     1      -0.333  12.983  20.495  0.00  0.00    +0.000 A 
ATOM      2  C   UNL     1      -1.023  13.878  19.656  0.00  0.00    +0.000 A 
ATOM      3  C   UNL     1      -0.451  15.130  19.311  0.00  0.00    +0.000 A 
ATOM      4  C   UNL     1       0.766  15.496  19.892  0.00  0.00    +0.000 A 
ATOM      5  C   UNL     1       1.256  14.779  20.964  0.00  0.00    +0.000 A 
ATOM      6  C   UNL     1       0.763  13.501  21.235  0.00  0.00    +0.000 A 
ATOM      7  C   UNL     1       2.387  15.576  21.529  0.00  0.00    +0.000 C 
ATOM      8  N   UNL     1       2.990  16.203  20.344  0.00  0.00    +0.000 N 
ATOM      9  C   UNL     1       1.894  16.374  19.428  0.00  0.00    +0.000 C 
ATOM     10  O   UNL     1       1.918  16.951  18.349  0.00  0.00    +0.000 OA
ENDROOT
BRANCH   8  11
ATOM     11  C   UNL     1       4.290  15.673  19.778  0.00  0.00    +0.000 C 
ATOM     12  C   UNL     1       4.254  14.880  18.441  0.00  0.00    +0.000 C 
ATOM     13  C   UNL     1       5.657  14.487  17.902  0.00  0.00    +0.000 C 
ATOM     14  C   UNL     1       6.802  15.433  18.212  0.00  0.00    +0.000 C 
ATOM     15  O   UNL     1       7.835  15.437  17.554  0.00  0.00    +0.000 OA
ATOM     16  N   UNL     1       6.624  16.278  19.271  0.00  0.00    +0.000 N 
ATOM     17  C   UNL     1       5.385  16.753  19.607  0.00  0.00    +0.000 C 
ATOM     18  O   UNL     1       5.229  17.971  19.650  0.00  0.00    +0.000 OA
ATOM     19  H   UNL     1       7.316  17.021  19.232  0.00  0.00    +0.000 HD
ENDBRANCH   8  11
BRANCH   1  23
ATOM     20  N   UNL     1       1.000   9.391  18.948  0.00  0.00    +0.000 NA
ATOM     21  C   UNL     1       1.562   9.981  20.173  0.00  0.00    +0.000 C 
ATOM     22  C   UNL     1       0.500  10.528  21.136  0.00  0.00    +0.000 C 
ATOM     23  C   UNL     1      -0.566  11.454  20.504  0.00  0.00    +0.000 C 
ATOM     24  C   UNL     1      -1.050  10.827  19.193  0.00  0.00    +0.000 C 
ATOM     25  C   UNL     1       0.090  10.351  18.287  0.00  0.00    +0.000 C 
BRANCH  20  26
ATOM     26  C   UNL     1       2.077   8.992  18.000  0.00  0.00    +0.000 C 
BRANCH  26  30
ATOM     27  C   UNL     1       3.940   5.092  18.740  0.00  0.00    +0.000 A 
ATOM     28  C   UNL     1       4.399   5.924  17.712  0.00  0.00    +0.000 A 
ATOM     29  C   UNL     1       3.788   7.167  17.452  0.00  0.00    +0.000 A 
ATOM     30  C   UNL     1       2.711   7.622  18.226  0.00  0.00    +0.000 A 
ATOM     31  C   UNL     1       2.264   6.796  19.267  0.00  0.00    +0.000 A 
ATOM     32  C   UNL     1       2.855   5.546  19.504  0.00  0.00    +0.000 A 
BRANCH  27  33
ATOM     33  C   UNL     1       4.535   3.732  19.053  0.00  0.00    +0.000 C 
BRANCH  33  35
ATOM     34  C   UNL     1       3.509   1.638  18.572  0.00  0.00    +0.000 C 
ATOM     35  O   UNL     1       3.578   2.750  19.455  0.00  0.00    +0.000 OA
ENDBRANCH  33  35
ENDBRANCH  27  33
ENDBRANCH  26  30
ENDBRANCH  20  26
ENDBRANCH   1  23
TORSDOF 6
ENDMDL
MODEL 8
REMARK VINA RESULT:      -7.5      4.460      7.046
REMARK  Name = 
REMARK  7 active torsions:
REMARK  status: ('A' for Active; 'I' for Inactive)
REMARK    1  A    between atoms: C_1  and  O_2
REMARK    2  A    between atoms: O_2  and  C_3
REMARK    3  A    between atoms: C_3  and  C_4
REMARK    4  A    between atoms: C_7  and  C_8
REMARK    5  A    between atoms: C_8  and  N_9
REMARK    6  A    between atoms: C_12  and  C_13
REMARK    7  A    between atoms: N_20  and  C_21
REMARK                            x       y       z     vdW  Elec       q    Type
REMARK                         _______ _______ _______ _____ _____    ______ ____
ROOT
ATOM      1  C   UNL     1      -1.078  13.330  20.585  0.00  0.00    +0.000 A 
ATOM      2  C   UNL     1      -0.157  13.547  21.628  0.00  0.00    +0.000 A 
ATOM      3  C   UNL     1      -0.555  14.214  22.815  0.00  0.00    +0.000 A 
ATOM      4  C   UNL     1      -1.850  14.732  22.893  0.00  0.00    +0.000 A 
ATOM      5  C   UNL     1      -2.622  14.822  21.753  0.00  0.00    +0.000 A 
ATOM      6  C   UNL     1      -2.285  14.079  20.620  0.00  0.00    +0.000 A 
ATOM      7  C   UNL     1      -3.804  15.666  22.104  0.00  0.00    +0.000 C 
ATOM      8  N   UNL     1      -4.072  15.317  23.506  0.00  0.00    +0.000 N 
ATOM      9  C   UNL     1      -2.782  14.979  24.046  0.00  0.00    +0.000 C 
ATOM     10  O   UNL     1      -2.516  14.721  25.213  0.00  0.00    +0.000 OA
ENDROOT
BRANCH   8  11
ATOM     11  C   UNL     1      -5.231  14.409  23.859  0.00  0.00    +0.000 C 
ATOM     12  C   UNL     1      -6.597  14.631  23.151  0.00  0.00    +0.000 C 
ATOM     13  C   UNL     1      -7.674  13.571  23.509  0.00  0.00    +0.000 C 
ATOM     14  C   UNL     1      -7.181  12.170  23.822  0.00  0.00    +0.000 C 
ATOM     15  O   UNL     1      -7.916  11.193  23.749  0.00  0.00    +0.000 OA
ATOM     16  N   UNL     1      -5.872  12.054  24.196  0.00  0.00    +0.000 N 
ATOM     17  C   UNL     1      -4.912  12.902  23.712  0.00  0.00    +0.000 C 
ATOM     18  O   UNL     1      -3.948  12.407  23.134  0.00  0.00    +0.000 OA
ATOM     19  H   UNL     1      -5.585  11.081  24.130  0.00  0.00    +0.000 HD
ENDBRANCH   8  11
BRANCH   1  23
ATOM     20  N   UNL     1       0.643   9.649  19.841  0.00  0.00    +0.000 NA
ATOM     21  C   UNL     1      -0.666   9.791  20.498  0.00  0.00    +0.000 C 
ATOM     22  C   UNL     1      -1.584  10.821  19.826  0.00  0.00    +0.000 C 
ATOM     23  C   UNL     1      -0.946  12.201  19.538  0.00  0.00    +0.000 C 
ATOM     24  C   UNL     1       0.444  11.986  18.932  0.00  0.00    +0.000 C 
ATOM     25  C   UNL     1       1.294  10.969  19.703  0.00  0.00    +0.000 C 
BRANCH  20  26
ATOM     26  C   UNL     1       1.532   8.732  20.606  0.00  0.00    +0.000 C 
BRANCH  26  30
ATOM     27  C   UNL     1       2.559   4.990  18.564  0.00  0.00    +0.000 A 
ATOM     28  C   UNL     1       1.977   4.977  19.837  0.00  0.00    +0.000 A 
ATOM     29  C   UNL     1       1.669   6.177  20.510  0.00  0.00    +0.000 A 
ATOM     30  C   UNL     1       1.917   7.425  19.920  0.00  0.00    +0.000 A 
ATOM     31  C   UNL     1       2.483   7.436  18.637  0.00  0.00    +0.000 A 
ATOM     32  C   UNL     1       2.816   6.241  17.982  0.00  0.00    +0.000 A 
BRANCH  27  33
ATOM     33  C   UNL     1       2.941   3.737  17.799  0.00  0.00    +0.000 C 
BRANCH  33  35
ATOM     34  C   UNL     1       3.759   1.695  18.708  0.00  0.00    +0.000 C 
ATOM     35  O   UNL     1       4.060   3.034  18.342  0.00  0.00    +0.000 OA
ENDBRANCH  33  35
ENDBRANCH  27  33
ENDBRANCH  26  30
ENDBRANCH  20  26
ENDBRANCH   1  23
TORSDOF 6
ENDMDL
MODEL 9
REMARK VINA RESULT:      -7.4      3.072     10.087
REMARK  Name = 
REMARK  7 active torsions:
REMARK  status: ('A' for Active; 'I' for Inactive)
REMARK    1  A    between atoms: C_1  and  O_2
REMARK    2  A    between atoms: O_2  and  C_3
REMARK    3  A    between atoms: C_3  and  C_4
REMARK    4  A    between atoms: C_7  and  C_8
REMARK    5  A    between atoms: C_8  and  N_9
REMARK    6  A    between atoms: C_12  and  C_13
REMARK    7  A    between atoms: N_20  and  C_21
REMARK                            x       y       z     vdW  Elec       q    Type
REMARK                         _______ _______ _______ _____ _____    ______ ____
ROOT
ATOM      1  C   UNL     1       1.862   7.543  18.356  0.00  0.00    +0.000 A 
ATOM      2  C   UNL     1       2.306   7.401  19.685  0.00  0.00    +0.000 A 
ATOM      3  C   UNL     1       3.114   6.297  20.062  0.00  0.00    +0.000 A 
ATOM      4  C   UNL     1       3.386   5.308  19.114  0.00  0.00    +0.000 A 
ATOM      5  C   UNL     1       2.671   5.276  17.934  0.00  0.00    +0.000 A 
ATOM      6  C   UNL     1       1.962   6.403  17.514  0.00  0.00    +0.000 A 
ATOM      7  C   UNL     1       2.980   3.966  17.284  0.00  0.00    +0.000 C 
ATOM      8  N   UNL     1       4.383   3.724  17.648  0.00  0.00    +0.000 N 
ATOM      9  C   UNL     1       4.540   4.364  18.926  0.00  0.00    +0.000 C 
ATOM     10  O   UNL     1       5.526   4.330  19.652  0.00  0.00    +0.000 OA
ENDROOT
BRANCH   8  11
ATOM     11  C   UNL     1       5.482   3.933  16.628  0.00  0.00    +0.000 C 
ATOM     12  C   UNL     1       5.218   3.532  15.150  0.00  0.00    +0.000 C 
ATOM     13  C   UNL     1       6.373   3.897  14.179  0.00  0.00    +0.000 C 
ATOM     14  C   UNL     1       7.186   5.135  14.513  0.00  0.00    +0.000 C 
ATOM     15  O   UNL     1       7.848   5.723  13.668  0.00  0.00    +0.000 OA
ATOM     16  N   UNL     1       7.145   5.558  15.812  0.00  0.00    +0.000 N 
ATOM     17  C   UNL     1       6.032   5.379  16.588  0.00  0.00    +0.000 C 
ATOM     18  O   UNL     1       5.522   6.374  17.098  0.00  0.00    +0.000 OA
ATOM     19  H   UNL     1       7.498   6.508  15.871  0.00  0.00    +0.000 HD
ENDBRANCH   8  11
BRANCH   1  23
ATOM     20  N   UNL     1       0.460  11.342  19.173  0.00  0.00    +0.000 NA
ATOM     21  C   UNL     1       1.893  11.009  19.187  0.00  0.00    +0.000 C 
ATOM     22  C   UNL     1       2.336  10.146  17.998  0.00  0.00    +0.000 C 
ATOM     23  C   UNL     1       1.470   8.895  17.717  0.00  0.00    +0.000 C 
ATOM     24  C   UNL     1      -0.008   9.289  17.798  0.00  0.00    +0.000 C 
ATOM     25  C   UNL     1      -0.352  10.113  19.044  0.00  0.00    +0.000 C 
BRANCH  20  26
ATOM     26  C   UNL     1       0.065  12.072  20.409  0.00  0.00    +0.000 C 
BRANCH  26  30
ATOM     27  C   UNL     1      -4.234  12.681  21.019  0.00  0.00    +0.000 A 
ATOM     28  C   UNL     1      -3.698  12.584  19.729  0.00  0.00    +0.000 A 
ATOM     29  C   UNL     1      -2.314  12.413  19.526  0.00  0.00    +0.000 A 
ATOM     30  C   UNL     1      -1.427  12.318  20.608  0.00  0.00    +0.000 A 
ATOM     31  C   UNL     1      -1.968  12.399  21.900  0.00  0.00    +0.000 A 
ATOM     32  C   UNL     1      -3.342  12.598  22.098  0.00  0.00    +0.000 A 
BRANCH  27  33
ATOM     33  C   UNL     1      -5.708  12.893  21.305  0.00  0.00    +0.000 C 
BRANCH  33  35
ATOM     34  C   UNL     1      -7.685  11.568  21.233  0.00  0.00    +0.000 C 
ATOM     35  O   UNL     1      -6.387  11.732  21.788  0.00  0.00    +0.000 OA
ENDBRANCH  33  35
ENDBRANCH  27  33
ENDBRANCH  26  30
ENDBRANCH  20  26
ENDBRANCH   1  23
TORSDOF 6
ENDMDL
