MODEL 1
REMARK VINA RESULT:      -7.5      0.000      0.000
REMARK  Name = 
REMARK  5 active torsions:
REMARK  status: ('A' for Active; 'I' for Inactive)
REMARK    1  A    between atoms: C_2  and  C_3
REMARK    2  A    between atoms: C_3  and  N_4
REMARK    3  A    between atoms: N_4  and  C_5
REMARK    4  A    between atoms: C_13  and  O_14
REMARK    5  A    between atoms: C_18  and  O_19
REMARK                            x       y       z     vdW  Elec       q    Type
REMARK                         _______ _______ _______ _____ _____    ______ ____
ROOT
ATOM      1  N   UNL     1       2.929   3.511  18.239  0.00  0.00    +0.000 N 
ATOM      2  C   UNL     1       2.216   3.173  16.968  0.00  0.00    +0.000 C 
ATOM      3  C   UNL     1       2.612   4.973  18.474  0.00  0.00    +0.000 C 
ATOM      4  C   UNL     1       3.661   5.954  17.914  0.00  0.00    +0.000 C 
ATOM      5  C   UNL     1       4.866   5.423  16.992  0.00  0.00    +0.000 C 
ATOM      6  C   UNL     1       5.986   5.753  17.796  0.00  0.00    +0.000 A 
ATOM      7  C   UNL     1       6.255   5.096  18.999  0.00  0.00    +0.000 A 
ATOM      8  C   UNL     1       7.359   5.591  19.725  0.00  0.00    +0.000 A 
ATOM      9  C   UNL     1       8.101   6.706  19.205  0.00  0.00    +0.000 A 
ATOM     10  C   UNL     1       7.744   7.338  17.981  0.00  0.00    +0.000 A 
ATOM     11  C   UNL     1       6.651   6.807  17.286  0.00  0.00    +0.000 A 
ATOM     12  O   UNL     1       6.123   7.215  16.122  0.00  0.00    +0.000 OA
ATOM     13  C   UNL     1       5.146   6.314  15.701  0.00  0.00    +0.000 C 
ATOM     14  C   UNL     1       5.661   5.537  14.410  0.00  0.00    +0.000 C 
ATOM     15  C   UNL     1       5.161   4.096  14.509  0.00  0.00    +0.000 C 
ATOM     16  C   UNL     1       5.732   3.503  15.544  0.00  0.00    +0.000 C 
ATOM     17  C   UNL     1       5.009   3.874  16.839  0.00  0.00    +0.000 C 
ATOM     18  C   UNL     1       4.436   3.265  18.137  0.00  0.00    +0.000 C 
ATOM     19  C   UNL     1       5.353   3.851  19.382  0.00  0.00    +0.000 C 
ENDROOT
BRANCH  10  20
ATOM     20  O   UNL     1       8.417   8.376  17.472  0.00  0.00    +0.000 OA
ATOM     21  H   UNL     1       7.959   9.144  17.078  0.00  0.00    +0.000 HD
ENDBRANCH  10  20
BRANCH  14  22
ATOM     22  O   UNL     1       7.070   5.616  14.329  0.00  0.00    +0.000 OA
ATOM     23  H   UNL     1       7.371   6.249  15.026  0.00  0.00    +0.000 HD
ENDBRANCH  14  22
BRANCH   1  24
ATOM     24  C   UNL     1       2.349   2.640  19.305  0.00  0.00    +0.000 C 
BRANCH  24  26
ATOM     25  C   UNL     1       1.863   3.170  21.729  0.00  0.00    +0.000 C 
ATOM     26  C   UNL     1       1.702   3.447  20.449  0.00  0.00    +0.000 C 
ENDBRANCH  24  26
ENDBRANCH   1  24
TORSDOF 4
ENDMDL
MODEL 2
REMARK VINA RESULT:      -7.4      3.151      5.655
REMARK  Name = 
REMARK  5 active torsions:
REMARK  status: ('A' for Active; 'I' for Inactive)
REMARK    1  A    between atoms: C_2  and  C_3
REMARK    2  A    between atoms: C_3  and  N_4
REMARK    3  A    between atoms: N_4  and  C_5
REMARK    4  A    between atoms: C_13  and  O_14
REMARK    5  A    between atoms: C_18  and  O_19
REMARK                            x       y       z     vdW  Elec       q    Type
REMARK                         _______ _______ _______ _____ _____    ______ ____
ROOT
ATOM      1  N   UNL     1       5.506   4.720  17.040  0.00  0.00    +0.000 N 
ATOM      2  C   UNL     1       5.554   3.230  17.174  0.00  0.00    +0.000 C 
ATOM      3  C   UNL     1       6.036   5.236  18.362  0.00  0.00    +0.000 C 
ATOM      4  C   UNL     1       4.949   5.541  19.413  0.00  0.00    +0.000 C 
ATOM      5  C   UNL     1       3.417   5.137  19.144  0.00  0.00    +0.000 C 
ATOM      6  C   UNL     1       2.800   6.414  19.133  0.00  0.00    +0.000 A 
ATOM      7  C   UNL     1       3.021   7.335  18.108  0.00  0.00    +0.000 A 
ATOM      8  C   UNL     1       2.401   8.591  18.278  0.00  0.00    +0.000 A 
ATOM      9  C   UNL     1       1.619   8.835  19.459  0.00  0.00    +0.000 A 
ATOM     10  C   UNL     1       1.464   7.849  20.472  0.00  0.00    +0.000 A 
ATOM     11  C   UNL     1       2.086   6.612  20.257  0.00  0.00    +0.000 A 
ATOM     12  O   UNL     1       2.088   5.529  21.049  0.00  0.00    +0.000 OA
ATOM     13  C   UNL     1       2.689   4.458  20.389  0.00  0.00    +0.000 C 
ATOM     14  C   UNL     1       1.588   3.360  20.046  0.00  0.00    +0.000 C 
ATOM     15  C   UNL     1       1.937   2.769  18.680  0.00  0.00    +0.000 C 
ATOM     16  C   UNL     1       1.821   3.705  17.753  0.00  0.00    +0.000 C 
ATOM     17  C   UNL     1       3.070   4.585  17.723  0.00  0.00    +0.000 C 
ATOM     18  C   UNL     1       4.091   5.228  16.759  0.00  0.00    +0.000 C 
ATOM     19  C   UNL     1       3.873   6.864  16.857  0.00  0.00    +0.000 C 
ENDROOT
BRANCH  10  20
ATOM     20  O   UNL     1       0.742   8.047  21.580  0.00  0.00    +0.000 OA
ATOM     21  H   UNL     1      -0.229   7.938  21.590  0.00  0.00    +0.000 HD
ENDBRANCH  10  20
BRANCH  14  22
ATOM     22  O   UNL     1       0.301   3.945  20.068  0.00  0.00    +0.000 OA
ATOM     23  H   UNL     1       0.226   4.464  20.907  0.00  0.00    +0.000 HD
ENDBRANCH  14  22
BRANCH   1  24
ATOM     24  C   UNL     1       6.405   5.082  15.904  0.00  0.00    +0.000 C 
BRANCH  24  26
ATOM     25  C   UNL     1       6.352   3.964  13.636  0.00  0.00    +0.000 C 
ATOM     26  C   UNL     1       5.789   4.758  14.528  0.00  0.00    +0.000 C 
ENDBRANCH  24  26
ENDBRANCH   1  24
TORSDOF 4
ENDMDL
MODEL 3
REMARK VINA RESULT:      -6.9      3.091      5.619
REMARK  Name = 
REMARK  5 active torsions:
REMARK  status: ('A' for Active; 'I' for Inactive)
REMARK    1  A    between atoms: C_2  and  C_3
REMARK    2  A    between atoms: C_3  and  N_4
REMARK    3  A    between atoms: N_4  and  C_5
REMARK    4  A    between atoms: C_13  and  O_14
REMARK    5  A    between atoms: C_18  and  O_19
REMARK                            x       y       z     vdW  Elec       q    Type
REMARK                         _______ _______ _______ _____ _____    ______ ____
ROOT
ATOM      1  N   UNL     1       6.379   5.895  17.311  0.00  0.00    +0.000 N 
ATOM      2  C   UNL     1       7.061   4.834  16.507  0.00  0.00    +0.000 C 
ATOM      3  C   UNL     1       6.815   5.629  18.737  0.00  0.00    +0.000 C 
ATOM      4  C   UNL     1       5.849   4.741  19.546  0.00  0.00    +0.000 C 
ATOM      5  C   UNL     1       4.604   4.022  18.828  0.00  0.00    +0.000 C 
ATOM      6  C   UNL     1       3.516   4.636  19.498  0.00  0.00    +0.000 A 
ATOM      7  C   UNL     1       3.195   5.982  19.313  0.00  0.00    +0.000 A 
ATOM      8  C   UNL     1       2.136   6.468  20.109  0.00  0.00    +0.000 A 
ATOM      9  C   UNL     1       1.487   5.580  21.034  0.00  0.00    +0.000 A 
ATOM     10  C   UNL     1       1.893   4.224  21.181  0.00  0.00    +0.000 A 
ATOM     11  C   UNL     1       2.939   3.780  20.362  0.00  0.00    +0.000 A 
ATOM     12  O   UNL     1       3.497   2.561  20.307  0.00  0.00    +0.000 OA
ATOM     13  C   UNL     1       4.397   2.497  19.244  0.00  0.00    +0.000 C 
ATOM     14  C   UNL     1       3.819   1.534  18.116  0.00  0.00    +0.000 C 
ATOM     15  C   UNL     1       4.199   2.130  16.761  0.00  0.00    +0.000 C 
ATOM     16  C   UNL     1       3.582   3.289  16.602  0.00  0.00    +0.000 C 
ATOM     17  C   UNL     1       4.335   4.400  17.335  0.00  0.00    +0.000 C 
ATOM     18  C   UNL     1       4.858   5.843  17.163  0.00  0.00    +0.000 C 
ATOM     19  C   UNL     1       3.993   6.790  18.206  0.00  0.00    +0.000 C 
ENDROOT
BRANCH  10  20
ATOM     20  O   UNL     1       1.307   3.375  22.032  0.00  0.00    +0.000 OA
ATOM     21  H   UNL     1       1.743   3.090  22.859  0.00  0.00    +0.000 HD
ENDBRANCH  10  20
BRANCH  14  22
ATOM     22  O   UNL     1       2.421   1.393  18.271  0.00  0.00    +0.000 OA
ATOM     23  H   UNL     1       2.235   1.330  19.241  0.00  0.00    +0.000 HD
ENDBRANCH  14  22
BRANCH   1  24
ATOM     24  C   UNL     1       6.887   7.209  16.813  0.00  0.00    +0.000 C 
BRANCH  24  26
ATOM     25  C   UNL     1       8.072   9.194  17.840  0.00  0.00    +0.000 C 
ATOM     26  C   UNL     1       7.847   7.894  17.809  0.00  0.00    +0.000 C 
ENDBRANCH  24  26
ENDBRANCH   1  24
TORSDOF 4
ENDMDL
MODEL 4
REMARK VINA RESULT:      -6.4      8.324     10.472
REMARK  Name = 
REMARK  5 active torsions:
REMARK  status: ('A' for Active; 'I' for Inactive)
REMARK    1  A    between atoms: C_2  and  C_3
REMARK    2  A    between atoms: C_3  and  N_4
REMARK    3  A    between atoms: N_4  and  C_5
REMARK    4  A    between atoms: C_13  and  O_14
REMARK    5  A    between atoms: C_18  and  O_19
REMARK                            x       y       z     vdW  Elec       q    Type
REMARK                         _______ _______ _______ _____ _____    ______ ____
ROOT
ATOM      1  N   UNL     1       8.219  13.579  22.528  0.00  0.00    +0.000 N 
ATOM      2  C   UNL     1       7.677  12.184  22.558  0.00  0.00    +0.000 C 
ATOM      3  C   UNL     1       7.309  14.318  21.569  0.00  0.00    +0.000 C 
ATOM      4  C   UNL     1       7.810  14.356  20.112  0.00  0.00    +0.000 C 
ATOM      5  C   UNL     1       9.093  13.496  19.666  0.00  0.00    +0.000 C 
ATOM      6  C   UNL     1       9.987  14.527  19.282  0.00  0.00    +0.000 A 
ATOM      7  C   UNL     1      10.556  15.400  20.211  0.00  0.00    +0.000 A 
ATOM      8  C   UNL     1      11.363  16.423  19.667  0.00  0.00    +0.000 A 
ATOM      9  C   UNL     1      11.530  16.502  18.242  0.00  0.00    +0.000 A 
ATOM     10  C   UNL     1      10.893  15.586  17.359  0.00  0.00    +0.000 A 
ATOM     11  C   UNL     1      10.113  14.580  17.942  0.00  0.00    +0.000 A 
ATOM     12  O   UNL     1       9.420  13.603  17.336  0.00  0.00    +0.000 OA
ATOM     13  C   UNL     1       8.914  12.718  18.287  0.00  0.00    +0.000 C 
ATOM     14  C   UNL     1       9.669  11.321  18.167  0.00  0.00    +0.000 C 
ATOM     15  C   UNL     1       9.846  10.769  19.580  0.00  0.00    +0.000 C 
ATOM     16  C   UNL     1      10.653  11.562  20.264  0.00  0.00    +0.000 C 
ATOM     17  C   UNL     1       9.887  12.770  20.802  0.00  0.00    +0.000 C 
ATOM     18  C   UNL     1       9.679  13.621  22.073  0.00  0.00    +0.000 C 
ATOM     19  C   UNL     1      10.295  15.120  21.749  0.00  0.00    +0.000 C 
ENDROOT
BRANCH  10  20
ATOM     20  O   UNL     1      11.032  15.635  16.030  0.00  0.00    +0.000 OA
ATOM     21  H   UNL     1      11.849  15.964  15.609  0.00  0.00    +0.000 HD
ENDBRANCH  10  20
BRANCH  14  22
ATOM     22  O   UNL     1      10.901  11.495  17.497  0.00  0.00    +0.000 OA
ATOM     23  H   UNL     1      10.700  11.835  16.590  0.00  0.00    +0.000 HD
ENDBRANCH  14  22
BRANCH   1  24
ATOM     24  C   UNL     1       8.110  14.114  23.919  0.00  0.00    +0.000 C 
BRANCH  24  26
ATOM     25  C   UNL     1       7.843  12.974  26.161  0.00  0.00    +0.000 C 
ATOM     26  C   UNL     1       8.452  13.061  24.993  0.00  0.00    +0.000 C 
ENDBRANCH  24  26
ENDBRANCH   1  24
TORSDOF 4
ENDMDL
MODEL 5
REMARK VINA RESULT:      -6.4      3.281      5.745
REMARK  Name = 
REMARK  5 active torsions:
REMARK  status: ('A' for Active; 'I' for Inactive)
REMARK    1  A    between atoms: C_2  and  C_3
REMARK    2  A    between atoms: C_3  and  N_4
REMARK    3  A    between atoms: N_4  and  C_5
REMARK    4  A    between atoms: C_13  and  O_14
REMARK    5  A    between atoms: C_18  and  O_19
REMARK                            x       y       z     vdW  Elec       q    Type
REMARK                         _______ _______ _______ _____ _____    ______ ____
ROOT
ATOM      1  N   UNL     1       5.382   4.952  17.259  0.00  0.00    +0.000 N 
ATOM      2  C   UNL     1       5.442   3.457  17.229  0.00  0.00    +0.000 C 
ATOM      3  C   UNL     1       5.832   5.321  18.657  0.00  0.00    +0.000 C 
ATOM      4  C   UNL     1       4.686   5.501  19.672  0.00  0.00    +0.000 C 
ATOM      5  C   UNL     1       3.176   5.119  19.275  0.00  0.00    +0.000 C 
ATOM      6  C   UNL     1       2.545   6.386  19.371  0.00  0.00    +0.000 A 
ATOM      7  C   UNL     1       2.810   7.417  18.468  0.00  0.00    +0.000 A 
ATOM      8  C   UNL     1       2.166   8.642  18.741  0.00  0.00    +0.000 A 
ATOM      9  C   UNL     1       1.318   8.749  19.896  0.00  0.00    +0.000 A 
ATOM     10  C   UNL     1       1.120   7.655  20.784  0.00  0.00    +0.000 A 
ATOM     11  C   UNL     1       1.767   6.454  20.468  0.00  0.00    +0.000 A 
ATOM     12  O   UNL     1       1.740   5.290  21.135  0.00  0.00    +0.000 OA
ATOM     13  C   UNL     1       2.390   4.302  20.395  0.00  0.00    +0.000 C 
ATOM     14  C   UNL     1       1.323   3.243  19.871  0.00  0.00    +0.000 C 
ATOM     15  C   UNL     1       1.753   2.809  18.471  0.00  0.00    +0.000 C 
ATOM     16  C   UNL     1       1.677   3.841  17.648  0.00  0.00    +0.000 C 
ATOM     17  C   UNL     1       2.914   4.727  17.784  0.00  0.00    +0.000 C 
ATOM     18  C   UNL     1       3.979   5.479  16.956  0.00  0.00    +0.000 C 
ATOM     19  C   UNL     1       3.735   7.093  17.222  0.00  0.00    +0.000 C 
ENDROOT
BRANCH  10  20
ATOM     20  O   UNL     1       0.336   7.724  21.865  0.00  0.00    +0.000 OA
ATOM     21  H   UNL     1      -0.236   8.497  22.039  0.00  0.00    +0.000 HD
ENDBRANCH  10  20
BRANCH  14  22
ATOM     22  O   UNL     1       0.029   3.812  19.887  0.00  0.00    +0.000 OA
ATOM     23  H   UNL     1      -0.025   4.402  20.678  0.00  0.00    +0.000 HD
ENDBRANCH  14  22
BRANCH   1  24
ATOM     24  C   UNL     1       6.338   5.444  16.221  0.00  0.00    +0.000 C 
BRANCH  24  26
ATOM     25  C   UNL     1       7.418   7.526  17.168  0.00  0.00    +0.000 C 
ATOM     26  C   UNL     1       7.505   6.255  16.822  0.00  0.00    +0.000 C 
ENDBRANCH  24  26
ENDBRANCH   1  24
TORSDOF 4
ENDMDL
MODEL 6
REMARK VINA RESULT:      -6.4      2.983      4.935
REMARK  Name = 
REMARK  5 active torsions:
REMARK  status: ('A' for Active; 'I' for Inactive)
REMARK    1  A    between atoms: C_2  and  C_3
REMARK    2  A    between atoms: C_3  and  N_4
REMARK    3  A    between atoms: N_4  and  C_5
REMARK    4  A    between atoms: C_13  and  O_14
REMARK    5  A    between atoms: C_18  and  O_19
REMARK                            x       y       z     vdW  Elec       q    Type
REMARK                         _______ _______ _______ _____ _____    ______ ____
ROOT
ATOM      1  N   UNL     1       2.170   7.676  18.209  0.00  0.00    +0.000 N 
ATOM      2  C   UNL     1       3.161   8.775  17.990  0.00  0.00    +0.000 C 
ATOM      3  C   UNL     1       2.313   7.323  19.675  0.00  0.00    +0.000 C 
ATOM      4  C   UNL     1       3.290   6.165  19.962  0.00  0.00    +0.000 C 
ATOM      5  C   UNL     1       4.202   5.556  18.788  0.00  0.00    +0.000 C 
ATOM      6  C   UNL     1       3.714   4.225  18.731  0.00  0.00    +0.000 A 
ATOM      7  C   UNL     1       2.434   3.924  18.264  0.00  0.00    +0.000 A 
ATOM      8  C   UNL     1       2.064   2.565  18.344  0.00  0.00    +0.000 A 
ATOM      9  C   UNL     1       2.992   1.615  18.893  0.00  0.00    +0.000 A 
ATOM     10  C   UNL     1       4.272   2.008  19.373  0.00  0.00    +0.000 A 
ATOM     11  C   UNL     1       4.603   3.364  19.262  0.00  0.00    +0.000 A 
ATOM     12  O   UNL     1       5.736   3.981  19.633  0.00  0.00    +0.000 OA
ATOM     13  C   UNL     1       5.721   5.306  19.199  0.00  0.00    +0.000 C 
ATOM     14  C   UNL     1       6.802   5.498  18.045  0.00  0.00    +0.000 C 
ATOM     15  C   UNL     1       6.217   6.474  17.024  0.00  0.00    +0.000 C 
ATOM     16  C   UNL     1       5.161   5.926  16.448  0.00  0.00    +0.000 C 
ATOM     17  C   UNL     1       3.928   6.074  17.338  0.00  0.00    +0.000 C 
ATOM     18  C   UNL     1       2.436   6.471  17.306  0.00  0.00    +0.000 C 
ATOM     19  C   UNL     1       1.572   5.103  17.647  0.00  0.00    +0.000 C 
ENDROOT
BRANCH  10  20
ATOM     20  O   UNL     1       5.157   1.147  19.886  0.00  0.00    +0.000 OA
ATOM     21  H   UNL     1       5.936   1.448  20.393  0.00  0.00    +0.000 HD
ENDBRANCH  10  20
BRANCH  14  22
ATOM     22  O   UNL     1       7.125   4.247  17.473  0.00  0.00    +0.000 OA
ATOM     23  H   UNL     1       7.388   3.643  18.211  0.00  0.00    +0.000 HD
ENDBRANCH  14  22
BRANCH   1  24
ATOM     24  C   UNL     1       0.821   8.243  17.906  0.00  0.00    +0.000 C 
BRANCH  24  26
ATOM     25  C   UNL     1      -0.385  10.356  18.600  0.00  0.00    +0.000 C 
ATOM     26  C   UNL     1       0.724   9.752  18.217  0.00  0.00    +0.000 C 
ENDBRANCH  24  26
ENDBRANCH   1  24
TORSDOF 4
ENDMDL
MODEL 7
REMARK VINA RESULT:      -6.4      2.115      3.671
REMARK  Name = 
REMARK  5 active torsions:
REMARK  status: ('A' for Active; 'I' for Inactive)
REMARK    1  A    between atoms: C_2  and  C_3
REMARK    2  A    between atoms: C_3  and  N_4
REMARK    3  A    between atoms: N_4  and  C_5
REMARK    4  A    between atoms: C_13  and  O_14
REMARK    5  A    between atoms: C_18  and  O_19
REMARK                            x       y       z     vdW  Elec       q    Type
REMARK                         _______ _______ _______ _____ _____    ______ ____
ROOT
ATOM      1  N   UNL     1       2.663   3.060  19.180  0.00  0.00    +0.000 N 
ATOM      2  C   UNL     1       3.776   2.295  18.537  0.00  0.00    +0.000 C 
ATOM      3  C   UNL     1       1.778   3.483  18.025  0.00  0.00    +0.000 C 
ATOM      4  C   UNL     1       2.087   4.885  17.463  0.00  0.00    +0.000 C 
ATOM      5  C   UNL     1       3.378   5.700  17.964  0.00  0.00    +0.000 C 
ATOM      6  C   UNL     1       2.767   6.826  18.572  0.00  0.00    +0.000 A 
ATOM      7  C   UNL     1       2.034   6.724  19.756  0.00  0.00    +0.000 A 
ATOM      8  C   UNL     1       1.419   7.916  20.193  0.00  0.00    +0.000 A 
ATOM      9  C   UNL     1       1.572   9.113  19.413  0.00  0.00    +0.000 A 
ATOM     10  C   UNL     1       2.315   9.128  18.200  0.00  0.00    +0.000 A 
ATOM     11  C   UNL     1       2.920   7.926  17.810  0.00  0.00    +0.000 A 
ATOM     12  O   UNL     1       3.668   7.681  16.723  0.00  0.00    +0.000 OA
ATOM     13  C   UNL     1       4.208   6.398  16.796  0.00  0.00    +0.000 C 
ATOM     14  C   UNL     1       5.782   6.497  17.016  0.00  0.00    +0.000 C 
ATOM     15  C   UNL     1       6.189   5.363  17.956  0.00  0.00    +0.000 C 
ATOM     16  C   UNL     1       5.642   5.559  19.144  0.00  0.00    +0.000 C 
ATOM     17  C   UNL     1       4.190   5.081  19.149  0.00  0.00    +0.000 C 
ATOM     18  C   UNL     1       3.173   4.262  19.975  0.00  0.00    +0.000 C 
ATOM     19  C   UNL     1       2.023   5.326  20.503  0.00  0.00    +0.000 C 
ENDROOT
BRANCH  10  20
ATOM     20  O   UNL     1       2.476  10.226  17.454  0.00  0.00    +0.000 OA
ATOM     21  H   UNL     1       3.349  10.648  17.338  0.00  0.00    +0.000 HD
ENDBRANCH  10  20
BRANCH  14  22
ATOM     22  O   UNL     1       6.119   7.771  17.529  0.00  0.00    +0.000 OA
ATOM     23  H   UNL     1       5.852   7.786  18.482  0.00  0.00    +0.000 HD
ENDBRANCH  14  22
BRANCH   1  24
ATOM     24  C   UNL     1       1.960   2.113  20.097  0.00  0.00    +0.000 C 
BRANCH  24  26
ATOM     25  C   UNL     1       1.168   2.428  22.478  0.00  0.00    +0.000 C 
ATOM     26  C   UNL     1       2.138   2.479  21.585  0.00  0.00    +0.000 C 
ENDBRANCH  24  26
ENDBRANCH   1  24
TORSDOF 4
ENDMDL
MODEL 8
REMARK VINA RESULT:      -6.3      8.574     10.799
REMARK  Name = 
REMARK  5 active torsions:
REMARK  status: ('A' for Active; 'I' for Inactive)
REMARK    1  A    between atoms: C_2  and  C_3
REMARK    2  A    between atoms: C_3  and  N_4
REMARK    3  A    between atoms: N_4  and  C_5
REMARK    4  A    between atoms: C_13  and  O_14
REMARK    5  A    between atoms: C_18  and  O_19
REMARK                            x       y       z     vdW  Elec       q    Type
REMARK                         _______ _______ _______ _____ _____    ______ ____
ROOT
ATOM      1  N   UNL     1       8.409  13.612  22.469  0.00  0.00    +0.000 N 
ATOM      2  C   UNL     1       7.989  12.177  22.520  0.00  0.00    +0.000 C 
ATOM      3  C   UNL     1       7.416  14.265  21.530  0.00  0.00    +0.000 C 
ATOM      4  C   UNL     1       7.876  14.334  20.060  0.00  0.00    +0.000 C 
ATOM      5  C   UNL     1       9.215  13.583  19.586  0.00  0.00    +0.000 C 
ATOM      6  C   UNL     1      10.009  14.683  19.174  0.00  0.00    +0.000 A 
ATOM      7  C   UNL     1      10.525  15.608  20.083  0.00  0.00    +0.000 A 
ATOM      8  C   UNL     1      11.228  16.691  19.514  0.00  0.00    +0.000 A 
ATOM      9  C   UNL     1      11.352  16.774  18.085  0.00  0.00    +0.000 A 
ATOM     10  C   UNL     1      10.773  15.800  17.223  0.00  0.00    +0.000 A 
ATOM     11  C   UNL     1      10.097  14.736  17.831  0.00  0.00    +0.000 A 
ATOM     12  O   UNL     1       9.474  13.700  17.248  0.00  0.00    +0.000 OA
ATOM     13  C   UNL     1       9.069  12.782  18.216  0.00  0.00    +0.000 C 
ATOM     14  C   UNL     1       9.936  11.453  18.084  0.00  0.00    +0.000 C 
ATOM     15  C   UNL     1      10.195  10.928  19.496  0.00  0.00    +0.000 C 
ATOM     16  C   UNL     1      10.948  11.792  20.155  0.00  0.00    +0.000 C 
ATOM     17  C   UNL     1      10.096  12.935  20.705  0.00  0.00    +0.000 C 
ATOM     18  C   UNL     1       9.848  13.775  21.977  0.00  0.00    +0.000 C 
ATOM     19  C   UNL     1      10.327  15.318  21.629  0.00  0.00    +0.000 C 
ENDROOT
BRANCH  10  20
ATOM     20  O   UNL     1      10.875  15.851  15.891  0.00  0.00    +0.000 OA
ATOM     21  H   UNL     1      10.617  16.645  15.384  0.00  0.00    +0.000 HD
ENDBRANCH  10  20
BRANCH  14  22
ATOM     22  O   UNL     1      11.133  11.726  17.382  0.00  0.00    +0.000 OA
ATOM     23  H   UNL     1      11.030  12.611  16.954  0.00  0.00    +0.000 HD
ENDBRANCH  14  22
BRANCH   1  24
ATOM     24  C   UNL     1       8.290  14.147  23.859  0.00  0.00    +0.000 C 
BRANCH  24  26
ATOM     25  C   UNL     1       7.833  16.562  24.456  0.00  0.00    +0.000 C 
ATOM     26  C   UNL     1       7.422  15.420  23.936  0.00  0.00    +0.000 C 
ENDBRANCH  24  26
ENDBRANCH   1  24
TORSDOF 4
ENDMDL
MODEL 9
REMARK VINA RESULT:      -5.9      9.205     11.754
REMARK  Name = 
REMARK  5 active torsions:
REMARK  status: ('A' for Active; 'I' for Inactive)
REMARK    1  A    between atoms: C_2  and  C_3
REMARK    2  A    between atoms: C_3  and  N_4
REMARK    3  A    between atoms: N_4  and  C_5
REMARK    4  A    between atoms: C_13  and  O_14
REMARK    5  A    between atoms: C_18  and  O_19
REMARK                            x       y       z     vdW  Elec       q    Type
REMARK                         _______ _______ _______ _____ _____    ______ ____
ROOT
ATOM      1  N   UNL     1       8.750  15.956  22.048  0.00  0.00    +0.000 N 
ATOM      2  C   UNL     1       8.738  17.449  21.951  0.00  0.00    +0.000 C 
ATOM      3  C   UNL     1      10.207  15.603  22.270  0.00  0.00    +0.000 C 
ATOM      4  C   UNL     1      10.991  15.280  20.983  0.00  0.00    +0.000 C 
ATOM      5  C   UNL     1      10.322  15.510  19.540  0.00  0.00    +0.000 C 
ATOM      6  C   UNL     1      10.294  14.183  19.041  0.00  0.00    +0.000 A 
ATOM      7  C   UNL     1       9.452  13.207  19.577  0.00  0.00    +0.000 A 
ATOM      8  C   UNL     1       9.596  11.915  19.029  0.00  0.00    +0.000 A 
ATOM      9  C   UNL     1      10.574  11.693  17.999  0.00  0.00    +0.000 A 
ATOM     10  C   UNL     1      11.414  12.739  17.525  0.00  0.00    +0.000 A 
ATOM     11  C   UNL     1      11.228  14.008  18.087  0.00  0.00    +0.000 A 
ATOM     12  O   UNL     1      11.882  15.147  17.812  0.00  0.00    +0.000 OA
ATOM     13  C   UNL     1      11.280  16.214  18.477  0.00  0.00    +0.000 C 
ATOM     14  C   UNL     1      10.571  17.168  17.418  0.00  0.00    +0.000 C 
ATOM     15  C   UNL     1       9.276  17.678  18.049  0.00  0.00    +0.000 C 
ATOM     16  C   UNL     1       8.450  16.663  18.237  0.00  0.00    +0.000 C 
ATOM     17  C   UNL     1       8.810  15.909  19.516  0.00  0.00    +0.000 C 
ATOM     18  C   UNL     1       8.191  15.292  20.789  0.00  0.00    +0.000 C 
ATOM     19  C   UNL     1       8.401  13.656  20.676  0.00  0.00    +0.000 C 
ENDROOT
BRANCH  10  20
ATOM     20  O   UNL     1      12.330  12.562  16.567  0.00  0.00    +0.000 OA
ATOM     21  H   UNL     1      12.863  11.746  16.507  0.00  0.00    +0.000 HD
ENDBRANCH  10  20
BRANCH  14  22
ATOM     22  O   UNL     1      10.344  16.466  16.212  0.00  0.00    +0.000 OA
ATOM     23  H   UNL     1       9.530  16.845  15.797  0.00  0.00    +0.000 HD
ENDBRANCH  14  22
BRANCH   1  24
ATOM     24  C   UNL     1       7.907  15.591  23.226  0.00  0.00    +0.000 C 
BRANCH  24  26
ATOM     25  C   UNL     1       8.302  14.570  25.506  0.00  0.00    +0.000 C 
ATOM     26  C   UNL     1       8.650  14.697  24.239  0.00  0.00    +0.000 C 
ENDBRANCH  24  26
ENDBRANCH   1  24
TORSDOF 4
ENDMDL
