MODEL 1
REMARK VINA RESULT:      -7.0      0.000      0.000
REMARK  Name = 
REMARK  3 active torsions:
REMARK  status: ('A' for Active; 'I' for Inactive)
REMARK    1  A    between atoms: C_1  and  C_2
REMARK    2  A    between atoms: C_6  and  N_7
REMARK    3  A    between atoms: N_10  and  C_11
REMARK                            x       y       z     vdW  Elec       q    Type
REMARK                         _______ _______ _______ _____ _____    ______ ____
ROOT
ATOM      1  N   UNL     1       4.669   3.558  18.475  0.00  0.00    +0.000 N 
ATOM      2  C   UNL     1       4.920   4.118  17.235  0.00  0.00    +0.000 C 
ATOM      3  O   UNL     1       4.211   4.950  16.681  0.00  0.00    +0.000 OA
ATOM      4  N   UNL     1       6.070   3.592  16.665  0.00  0.00    +0.000 N 
ATOM      5  H   UNL     1       5.484   3.304  19.015  0.00  0.00    +0.000 HD
ATOM      6  H   UNL     1       6.230   2.618  16.884  0.00  0.00    +0.000 HD
ENDROOT
BRANCH   1  12
ATOM      7  C   UNL     1       1.553   6.530  20.909  0.00  0.00    +0.000 C 
ATOM      8  C   UNL     1       1.919   5.168  20.393  0.00  0.00    +0.000 A 
ATOM      9  C   UNL     1       1.046   4.089  20.574  0.00  0.00    +0.000 A 
ATOM     10  C   UNL     1       1.379   2.829  20.083  0.00  0.00    +0.000 A 
ATOM     11  C   UNL     1       2.574   2.642  19.391  0.00  0.00    +0.000 A 
ATOM     12  C   UNL     1       3.453   3.710  19.181  0.00  0.00    +0.000 A 
ATOM     13  C   UNL     1       3.127   4.971  19.708  0.00  0.00    +0.000 A 
ENDBRANCH   1  12
BRANCH   4  14
ATOM     14  C   UNL     1       6.520   4.047  15.405  0.00  0.00    +0.000 A 
ATOM     15  C   UNL     1       5.978   3.499  14.245  0.00  0.00    +0.000 A 
ATOM     16  C   UNL     1       6.368   4.003  13.005  0.00  0.00    +0.000 A 
ATOM     17  C   UNL     1       7.330   5.002  12.966  0.00  0.00    +0.000 A 
ATOM     18  N   UNL     1       7.910   5.524  14.065  0.00  0.00    +0.000 NA
ATOM     19  C   UNL     1       7.480   5.049  15.260  0.00  0.00    +0.000 A 
ENDBRANCH   4  14
TORSDOF 2
ENDMDL
MODEL 2
REMARK VINA RESULT:      -6.9      0.789      1.636
REMARK  Name = 
REMARK  3 active torsions:
REMARK  status: ('A' for Active; 'I' for Inactive)
REMARK    1  A    between atoms: C_1  and  C_2
REMARK    2  A    between atoms: C_6  and  N_7
REMARK    3  A    between atoms: N_10  and  C_11
REMARK                            x       y       z     vdW  Elec       q    Type
REMARK                         _______ _______ _______ _____ _____    ______ ____
ROOT
ATOM      1  N   UNL     1       4.757   3.706  17.996  0.00  0.00    +0.000 N 
ATOM      2  C   UNL     1       5.139   4.338  16.827  0.00  0.00    +0.000 C 
ATOM      3  O   UNL     1       4.791   5.463  16.488  0.00  0.00    +0.000 OA
ATOM      4  N   UNL     1       5.950   3.522  16.052  0.00  0.00    +0.000 N 
ATOM      5  H   UNL     1       5.432   3.066  18.391  0.00  0.00    +0.000 HD
ATOM      6  H   UNL     1       5.720   2.540  16.109  0.00  0.00    +0.000 HD
ENDROOT
BRANCH   1  12
ATOM      7  C   UNL     1       1.369   2.726  21.464  0.00  0.00    +0.000 C 
ATOM      8  C   UNL     1       2.064   3.704  20.562  0.00  0.00    +0.000 A 
ATOM      9  C   UNL     1       1.740   5.064  20.617  0.00  0.00    +0.000 A 
ATOM     10  C   UNL     1       2.395   5.974  19.790  0.00  0.00    +0.000 A 
ATOM     11  C   UNL     1       3.391   5.536  18.919  0.00  0.00    +0.000 A 
ATOM     12  C   UNL     1       3.744   4.184  18.861  0.00  0.00    +0.000 A 
ATOM     13  C   UNL     1       3.057   3.266  19.673  0.00  0.00    +0.000 A 
ENDBRANCH   1  12
BRANCH   4  14
ATOM     14  C   UNL     1       6.472   3.986  14.823  0.00  0.00    +0.000 A 
ATOM     15  C   UNL     1       6.028   3.419  13.632  0.00  0.00    +0.000 A 
ATOM     16  C   UNL     1       6.488   3.931  12.418  0.00  0.00    +0.000 A 
ATOM     17  C   UNL     1       7.420   4.958  12.441  0.00  0.00    +0.000 A 
ATOM     18  N   UNL     1       7.906   5.501  13.575  0.00  0.00    +0.000 NA
ATOM     19  C   UNL     1       7.409   5.017  14.739  0.00  0.00    +0.000 A 
ENDBRANCH   4  14
TORSDOF 2
ENDMDL
MODEL 3
REMARK VINA RESULT:      -6.6      1.094      7.120
REMARK  Name = 
REMARK  3 active torsions:
REMARK  status: ('A' for Active; 'I' for Inactive)
REMARK    1  A    between atoms: C_1  and  C_2
REMARK    2  A    between atoms: C_6  and  N_7
REMARK    3  A    between atoms: N_10  and  C_11
REMARK                            x       y       z     vdW  Elec       q    Type
REMARK                         _______ _______ _______ _____ _____    ______ ____
ROOT
ATOM      1  N   UNL     1       6.042   3.655  16.708  0.00  0.00    +0.000 N 
ATOM      2  C   UNL     1       4.776   3.787  17.250  0.00  0.00    +0.000 C 
ATOM      3  O   UNL     1       3.762   4.053  16.615  0.00  0.00    +0.000 OA
ATOM      4  N   UNL     1       4.794   3.614  18.626  0.00  0.00    +0.000 N 
ATOM      5  H   UNL     1       6.653   2.997  17.173  0.00  0.00    +0.000 HD
ATOM      6  H   UNL     1       5.633   3.956  19.073  0.00  0.00    +0.000 HD
ENDROOT
BRANCH   1  12
ATOM      7  C   UNL     1       5.329   3.008  11.856  0.00  0.00    +0.000 C 
ATOM      8  C   UNL     1       6.039   3.692  12.989  0.00  0.00    +0.000 A 
ATOM      9  C   UNL     1       6.978   4.696  12.726  0.00  0.00    +0.000 A 
ATOM     10  C   UNL     1       7.626   5.341  13.777  0.00  0.00    +0.000 A 
ATOM     11  C   UNL     1       7.327   5.003  15.095  0.00  0.00    +0.000 A 
ATOM     12  C   UNL     1       6.378   4.016  15.382  0.00  0.00    +0.000 A 
ATOM     13  C   UNL     1       5.751   3.346  14.318  0.00  0.00    +0.000 A 
ENDBRANCH   1  12
BRANCH   4  14
ATOM     14  C   UNL     1       3.597   3.686  19.374  0.00  0.00    +0.000 A 
ATOM     15  C   UNL     1       3.213   4.899  19.939  0.00  0.00    +0.000 A 
ATOM     16  C   UNL     1       1.994   4.983  20.612  0.00  0.00    +0.000 A 
ATOM     17  C   UNL     1       1.227   3.836  20.745  0.00  0.00    +0.000 A 
ATOM     18  N   UNL     1       1.588   2.634  20.252  0.00  0.00    +0.000 NA
ATOM     19  C   UNL     1       2.755   2.588  19.562  0.00  0.00    +0.000 A 
ENDBRANCH   4  14
TORSDOF 2
ENDMDL
MODEL 4
REMARK VINA RESULT:      -6.6      1.212      7.057
REMARK  Name = 
REMARK  3 active torsions:
REMARK  status: ('A' for Active; 'I' for Inactive)
REMARK    1  A    between atoms: C_1  and  C_2
REMARK    2  A    between atoms: C_6  and  N_7
REMARK    3  A    between atoms: N_10  and  C_11
REMARK                            x       y       z     vdW  Elec       q    Type
REMARK                         _______ _______ _______ _____ _____    ______ ____
ROOT
ATOM      1  N   UNL     1       6.049   3.608  16.666  0.00  0.00    +0.000 N 
ATOM      2  C   UNL     1       4.801   3.790  17.235  0.00  0.00    +0.000 C 
ATOM      3  O   UNL     1       3.790   4.121  16.627  0.00  0.00    +0.000 OA
ATOM      4  N   UNL     1       4.835   3.584  18.607  0.00  0.00    +0.000 N 
ATOM      5  H   UNL     1       6.634   2.910  17.104  0.00  0.00    +0.000 HD
ATOM      6  H   UNL     1       5.698   3.873  19.045  0.00  0.00    +0.000 HD
ENDROOT
BRANCH   1  12
ATOM      7  C   UNL     1       5.307   3.020  11.812  0.00  0.00    +0.000 C 
ATOM      8  C   UNL     1       6.025   3.689  12.948  0.00  0.00    +0.000 A 
ATOM      9  C   UNL     1       6.965   4.693  12.692  0.00  0.00    +0.000 A 
ATOM     10  C   UNL     1       7.621   5.324  13.747  0.00  0.00    +0.000 A 
ATOM     11  C   UNL     1       7.328   4.972  15.063  0.00  0.00    +0.000 A 
ATOM     12  C   UNL     1       6.378   3.984  15.343  0.00  0.00    +0.000 A 
ATOM     13  C   UNL     1       5.743   3.328  14.275  0.00  0.00    +0.000 A 
ENDBRANCH   1  12
BRANCH   4  14
ATOM     14  C   UNL     1       3.656   3.696  19.379  0.00  0.00    +0.000 A 
ATOM     15  C   UNL     1       2.879   2.565  19.612  0.00  0.00    +0.000 A 
ATOM     16  C   UNL     1       1.758   2.664  20.437  0.00  0.00    +0.000 A 
ATOM     17  C   UNL     1       1.423   3.905  20.956  0.00  0.00    +0.000 A 
ATOM     18  N   UNL     1       2.125   5.031  20.714  0.00  0.00    +0.000 NA
ATOM     19  C   UNL     1       3.235   4.899  19.948  0.00  0.00    +0.000 A 
ENDBRANCH   4  14
TORSDOF 2
ENDMDL
MODEL 5
REMARK VINA RESULT:      -6.5      1.735      7.131
REMARK  Name = 
REMARK  3 active torsions:
REMARK  status: ('A' for Active; 'I' for Inactive)
REMARK    1  A    between atoms: C_1  and  C_2
REMARK    2  A    between atoms: C_6  and  N_7
REMARK    3  A    between atoms: N_10  and  C_11
REMARK                            x       y       z     vdW  Elec       q    Type
REMARK                         _______ _______ _______ _____ _____    ______ ____
ROOT
ATOM      1  N   UNL     1       5.140   5.175  15.959  0.00  0.00    +0.000 N 
ATOM      2  C   UNL     1       4.500   4.271  16.788  0.00  0.00    +0.000 C 
ATOM      3  O   UNL     1       4.577   3.052  16.693  0.00  0.00    +0.000 OA
ATOM      4  N   UNL     1       3.717   4.917  17.734  0.00  0.00    +0.000 N 
ATOM      5  H   UNL     1       5.405   6.052  16.387  0.00  0.00    +0.000 HD
ATOM      6  H   UNL     1       3.293   5.772  17.402  0.00  0.00    +0.000 HD
ENDROOT
BRANCH   1  12
ATOM      7  C   UNL     1       5.020   2.795  11.625  0.00  0.00    +0.000 C 
ATOM      8  C   UNL     1       5.753   3.638  12.628  0.00  0.00    +0.000 A 
ATOM      9  C   UNL     1       7.046   4.096  12.352  0.00  0.00    +0.000 A 
ATOM     10  C   UNL     1       7.720   4.891  13.276  0.00  0.00    +0.000 A 
ATOM     11  C   UNL     1       7.102   5.250  14.471  0.00  0.00    +0.000 A 
ATOM     12  C   UNL     1       5.802   4.820  14.761  0.00  0.00    +0.000 A 
ATOM     13  C   UNL     1       5.139   3.992  13.840  0.00  0.00    +0.000 A 
ENDBRANCH   1  12
BRANCH   4  14
ATOM     14  C   UNL     1       2.995   4.175  18.696  0.00  0.00    +0.000 A 
ATOM     15  C   UNL     1       1.631   3.963  18.515  0.00  0.00    +0.000 A 
ATOM     16  C   UNL     1       0.936   3.167  19.426  0.00  0.00    +0.000 A 
ATOM     17  C   UNL     1       1.621   2.656  20.518  0.00  0.00    +0.000 A 
ATOM     18  N   UNL     1       2.930   2.878  20.751  0.00  0.00    +0.000 NA
ATOM     19  C   UNL     1       3.592   3.616  19.827  0.00  0.00    +0.000 A 
ENDBRANCH   4  14
TORSDOF 2
ENDMDL
MODEL 6
REMARK VINA RESULT:      -6.5      5.523      6.959
REMARK  Name = 
REMARK  3 active torsions:
REMARK  status: ('A' for Active; 'I' for Inactive)
REMARK    1  A    between atoms: C_1  and  C_2
REMARK    2  A    between atoms: C_6  and  N_7
REMARK    3  A    between atoms: N_10  and  C_11
REMARK                            x       y       z     vdW  Elec       q    Type
REMARK                         _______ _______ _______ _____ _____    ______ ____
ROOT
ATOM      1  N   UNL     1       7.055   8.112  17.046  0.00  0.00    +0.000 N 
ATOM      2  C   UNL     1       8.035   8.546  17.920  0.00  0.00    +0.000 C 
ATOM      3  O   UNL     1       8.625   7.837  18.726  0.00  0.00    +0.000 OA
ATOM      4  N   UNL     1       8.250   9.912  17.801  0.00  0.00    +0.000 N 
ATOM      5  H   UNL     1       7.004   8.603  16.164  0.00  0.00    +0.000 HD
ATOM      6  H   UNL     1       7.419  10.442  17.583  0.00  0.00    +0.000 HD
ENDROOT
BRANCH   1  12
ATOM      7  C   UNL     1       3.007   5.404  17.912  0.00  0.00    +0.000 C 
ATOM      8  C   UNL     1       4.460   5.494  17.544  0.00  0.00    +0.000 A 
ATOM      9  C   UNL     1       5.177   4.336  17.224  0.00  0.00    +0.000 A 
ATOM     10  C   UNL     1       6.521   4.421  16.868  0.00  0.00    +0.000 A 
ATOM     11  C   UNL     1       7.152   5.662  16.809  0.00  0.00    +0.000 A 
ATOM     12  C   UNL     1       6.450   6.835  17.106  0.00  0.00    +0.000 A 
ATOM     13  C   UNL     1       5.103   6.740  17.496  0.00  0.00    +0.000 A 
ENDBRANCH   1  12
BRANCH   4  14
ATOM     14  C   UNL     1       9.231  10.555  18.590  0.00  0.00    +0.000 A 
ATOM     15  C   UNL     1      10.379  11.055  17.983  0.00  0.00    +0.000 A 
ATOM     16  C   UNL     1      11.309  11.756  18.751  0.00  0.00    +0.000 A 
ATOM     17  C   UNL     1      11.083  11.884  20.114  0.00  0.00    +0.000 A 
ATOM     18  N   UNL     1      10.006  11.374  20.744  0.00  0.00    +0.000 NA
ATOM     19  C   UNL     1       9.095  10.737  19.968  0.00  0.00    +0.000 A 
ENDBRANCH   4  14
TORSDOF 2
ENDMDL
MODEL 7
REMARK VINA RESULT:      -6.4      1.757      7.106
REMARK  Name = 
REMARK  3 active torsions:
REMARK  status: ('A' for Active; 'I' for Inactive)
REMARK    1  A    between atoms: C_1  and  C_2
REMARK    2  A    between atoms: C_6  and  N_7
REMARK    3  A    between atoms: N_10  and  C_11
REMARK                            x       y       z     vdW  Elec       q    Type
REMARK                         _______ _______ _______ _____ _____    ______ ____
ROOT
ATOM      1  N   UNL     1       4.511   5.447  16.581  0.00  0.00    +0.000 N 
ATOM      2  C   UNL     1       4.052   4.572  17.548  0.00  0.00    +0.000 C 
ATOM      3  O   UNL     1       4.516   3.459  17.768  0.00  0.00    +0.000 OA
ATOM      4  N   UNL     1       2.963   5.095  18.229  0.00  0.00    +0.000 N 
ATOM      5  H   UNL     1       4.418   6.430  16.797  0.00  0.00    +0.000 HD
ATOM      6  H   UNL     1       2.357   5.668  17.658  0.00  0.00    +0.000 HD
ENDROOT
BRANCH   1  12
ATOM      7  C   UNL     1       5.382   3.270  12.225  0.00  0.00    +0.000 C 
ATOM      8  C   UNL     1       5.877   4.015  13.431  0.00  0.00    +0.000 A 
ATOM      9  C   UNL     1       7.222   4.391  13.523  0.00  0.00    +0.000 A 
ATOM     10  C   UNL     1       7.678   5.095  14.635  0.00  0.00    +0.000 A 
ATOM     11  C   UNL     1       6.793   5.446  15.652  0.00  0.00    +0.000 A 
ATOM     12  C   UNL     1       5.440   5.098  15.573  0.00  0.00    +0.000 A 
ATOM     13  C   UNL     1       4.992   4.360  14.464  0.00  0.00    +0.000 A 
ENDBRANCH   1  12
BRANCH   4  14
ATOM     14  C   UNL     1       2.355   4.368  19.278  0.00  0.00    +0.000 A 
ATOM     15  C   UNL     1       1.347   3.454  18.983  0.00  0.00    +0.000 A 
ATOM     16  C   UNL     1       0.801   2.684  20.010  0.00  0.00    +0.000 A 
ATOM     17  C   UNL     1       1.246   2.895  21.307  0.00  0.00    +0.000 A 
ATOM     18  N   UNL     1       2.186   3.804  21.636  0.00  0.00    +0.000 NA
ATOM     19  C   UNL     1       2.733   4.506  20.614  0.00  0.00    +0.000 A 
ENDBRANCH   4  14
TORSDOF 2
ENDMDL
MODEL 8
REMARK VINA RESULT:      -6.4      1.685      7.208
REMARK  Name = 
REMARK  3 active torsions:
REMARK  status: ('A' for Active; 'I' for Inactive)
REMARK    1  A    between atoms: C_1  and  C_2
REMARK    2  A    between atoms: C_6  and  N_7
REMARK    3  A    between atoms: N_10  and  C_11
REMARK                            x       y       z     vdW  Elec       q    Type
REMARK                         _______ _______ _______ _____ _____    ______ ____
ROOT
ATOM      1  N   UNL     1       4.792   5.338  16.215  0.00  0.00    +0.000 N 
ATOM      2  C   UNL     1       4.198   4.447  17.091  0.00  0.00    +0.000 C 
ATOM      3  O   UNL     1       4.418   3.242  17.127  0.00  0.00    +0.000 OA
ATOM      4  N   UNL     1       3.282   5.083  17.917  0.00  0.00    +0.000 N 
ATOM      5  H   UNL     1       4.925   6.276  16.565  0.00  0.00    +0.000 HD
ATOM      6  H   UNL     1       2.790   5.847  17.474  0.00  0.00    +0.000 HD
ENDROOT
BRANCH   1  12
ATOM      7  C   UNL     1       5.047   3.053  11.835  0.00  0.00    +0.000 C 
ATOM      8  C   UNL     1       5.708   3.816  12.947  0.00  0.00    +0.000 A 
ATOM      9  C   UNL     1       7.058   4.171  12.851  0.00  0.00    +0.000 A 
ATOM     10  C   UNL     1       7.667   4.891  13.876  0.00  0.00    +0.000 A 
ATOM     11  C   UNL     1       6.929   5.279  14.992  0.00  0.00    +0.000 A 
ATOM     12  C   UNL     1       5.573   4.952  15.101  0.00  0.00    +0.000 A 
ATOM     13  C   UNL     1       4.972   4.197  14.080  0.00  0.00    +0.000 A 
ENDBRANCH   1  12
BRANCH   4  14
ATOM     14  C   UNL     1       2.580   4.356  18.905  0.00  0.00    +0.000 A 
ATOM     15  C   UNL     1       3.023   4.388  20.224  0.00  0.00    +0.000 A 
ATOM     16  C   UNL     1       2.286   3.731  21.209  0.00  0.00    +0.000 A 
ATOM     17  C   UNL     1       1.158   3.018  20.830  0.00  0.00    +0.000 A 
ATOM     18  N   UNL     1       0.726   2.926  19.556  0.00  0.00    +0.000 NA
ATOM     19  C   UNL     1       1.434   3.611  18.625  0.00  0.00    +0.000 A 
ENDBRANCH   4  14
TORSDOF 2
ENDMDL
MODEL 9
REMARK VINA RESULT:      -6.4      5.819      8.064
REMARK  Name = 
REMARK  3 active torsions:
REMARK  status: ('A' for Active; 'I' for Inactive)
REMARK    1  A    between atoms: C_1  and  C_2
REMARK    2  A    between atoms: C_6  and  N_7
REMARK    3  A    between atoms: N_10  and  C_11
REMARK                            x       y       z     vdW  Elec       q    Type
REMARK                         _______ _______ _______ _____ _____    ______ ____
ROOT
ATOM      1  N   UNL     1       8.085   9.859  17.870  0.00  0.00    +0.000 N 
ATOM      2  C   UNL     1       7.880   8.495  17.965  0.00  0.00    +0.000 C 
ATOM      3  O   UNL     1       8.472   7.745  18.732  0.00  0.00    +0.000 OA
ATOM      4  N   UNL     1       6.934   8.059  17.047  0.00  0.00    +0.000 N 
ATOM      5  H   UNL     1       7.277  10.408  17.609  0.00  0.00    +0.000 HD
ATOM      6  H   UNL     1       6.946   8.565  16.173  0.00  0.00    +0.000 HD
ENDROOT
BRANCH   1  12
ATOM      7  C   UNL     1      12.075  12.747  17.418  0.00  0.00    +0.000 C 
ATOM      8  C   UNL     1      11.128  11.960  18.276  0.00  0.00    +0.000 A 
ATOM      9  C   UNL     1      11.281  11.949  19.667  0.00  0.00    +0.000 A 
ATOM     10  C   UNL     1      10.393  11.230  20.464  0.00  0.00    +0.000 A 
ATOM     11  C   UNL     1       9.336  10.534  19.881  0.00  0.00    +0.000 A 
ATOM     12  C   UNL     1       9.152  10.546  18.494  0.00  0.00    +0.000 A 
ATOM     13  C   UNL     1      10.070  11.246  17.693  0.00  0.00    +0.000 A 
ENDBRANCH   1  12
BRANCH   4  14
ATOM     14  C   UNL     1       6.560   6.697  16.995  0.00  0.00    +0.000 A 
ATOM     15  C   UNL     1       5.377   6.288  17.604  0.00  0.00    +0.000 A 
ATOM     16  C   UNL     1       4.971   4.959  17.486  0.00  0.00    +0.000 A 
ATOM     17  C   UNL     1       5.794   4.071  16.807  0.00  0.00    +0.000 A 
ATOM     18  N   UNL     1       6.968   4.421  16.244  0.00  0.00    +0.000 NA
ATOM     19  C   UNL     1       7.316   5.728  16.334  0.00  0.00    +0.000 A 
ENDBRANCH   4  14
TORSDOF 2
ENDMDL
