MODEL 1
REMARK VINA RESULT:      -7.6      0.000      0.000
REMARK  Name = 
REMARK  10 active torsions:
REMARK  status: ('A' for Active; 'I' for Inactive)
REMARK    1  A    between atoms: C_1  and  O_2
REMARK    2  A    between atoms: O_2  and  C_3
REMARK    3  A    between atoms: N_5  and  N_6
REMARK    4  A    between atoms: C_7  and  C_8
REMARK    5  A    between atoms: N_10  and  C_11
REMARK    6  A    between atoms: C_11  and  C_12
REMARK    7  A    between atoms: C_12  and  O_13
REMARK    8  A    between atoms: O_13  and  C_14
REMARK    9  A    between atoms: C_19  and  O_20
REMARK   10  A    between atoms: O_20  and  C_21
REMARK                            x       y       z     vdW  Elec       q    Type
REMARK                         _______ _______ _______ _____ _____    ______ ____
ROOT
ATOM      1  C   UNL     1       3.643   5.748  17.872  0.00  0.00    +0.000 A 
ATOM      2  C   UNL     1       3.162   6.603  18.842  0.00  0.00    +0.000 A 
ATOM      3  N   UNL     1       2.196   5.961  19.569  0.00  0.00    +0.000 N 
ATOM      4  C   UNL     1       2.055   4.667  19.104  0.00  0.00    +0.000 A 
ATOM      5  C   UNL     1       1.223   3.622  19.539  0.00  0.00    +0.000 A 
ATOM      6  C   UNL     1       1.302   2.398  18.871  0.00  0.00    +0.000 A 
ATOM      7  C   UNL     1       2.166   2.224  17.795  0.00  0.00    +0.000 A 
ATOM      8  C   UNL     1       2.985   3.273  17.363  0.00  0.00    +0.000 A 
ATOM      9  C   UNL     1       2.942   4.515  18.031  0.00  0.00    +0.000 A 
ENDROOT
BRANCH   1  11
ATOM     10  N   UNL     1       5.789   5.434  16.946  0.00  0.00    +0.000 NA
ATOM     11  C   UNL     1       4.676   6.093  16.916  0.00  0.00    +0.000 C 
BRANCH  10  14
ATOM     12  C   UNL     1       6.865   5.049  14.858  0.00  0.00    +0.000 C 
ATOM     13  O   UNL     1       6.222   4.060  14.537  0.00  0.00    +0.000 OA
ATOM     14  N   UNL     1       6.729   5.778  16.021  0.00  0.00    +0.000 N 
ATOM     15  H   UNL     1       7.325   6.583  16.148  0.00  0.00    +0.000 HD
BRANCH  12  17
ATOM     16  C   UNL     1       7.906   5.052  12.771  0.00  0.00    +0.000 C 
ATOM     17  O   UNL     1       7.855   5.599  14.092  0.00  0.00    +0.000 OA
ENDBRANCH  12  17
ENDBRANCH  10  14
ENDBRANCH   1  11
BRANCH   3  18
ATOM     18  C   UNL     1       1.418   6.539  20.661  0.00  0.00    +0.000 C 
BRANCH  18  19
ATOM     19  C   UNL     1       1.649   8.031  20.844  0.00  0.00    +0.000 C 
BRANCH  19  20
ATOM     20  O   UNL     1       0.648   8.814  20.189  0.00  0.00    +0.000 OA
BRANCH  20  21
ATOM     21  C   UNL     1      -0.005   9.691  21.028  0.00  0.00    +0.000 A 
ATOM     22  C   UNL     1      -0.182   9.395  22.394  0.00  0.00    +0.000 A 
ATOM     23  C   UNL     1      -0.844  10.268  23.254  0.00  0.00    +0.000 A 
ATOM     24  C   UNL     1      -1.315  11.475  22.770  0.00  0.00    +0.000 A 
ATOM     25  C   UNL     1      -1.124  11.800  21.426  0.00  0.00    +0.000 A 
ATOM     26  C   UNL     1      -0.478  10.919  20.540  0.00  0.00    +0.000 A 
BRANCH  26  27
ATOM     27  O   UNL     1      -0.424  11.419  19.264  0.00  0.00    +0.000 OA
ATOM     28  C   UNL     1      -1.561  12.091  18.749  0.00  0.00    +0.000 C 
ENDBRANCH  26  27
ENDBRANCH  20  21
ENDBRANCH  19  20
ENDBRANCH  18  19
ENDBRANCH   3  18
TORSDOF 8
ENDMDL
MODEL 2
REMARK VINA RESULT:      -7.6      3.839      6.046
REMARK  Name = 
REMARK  10 active torsions:
REMARK  status: ('A' for Active; 'I' for Inactive)
REMARK    1  A    between atoms: C_1  and  O_2
REMARK    2  A    between atoms: O_2  and  C_3
REMARK    3  A    between atoms: N_5  and  N_6
REMARK    4  A    between atoms: C_7  and  C_8
REMARK    5  A    between atoms: N_10  and  C_11
REMARK    6  A    between atoms: C_11  and  C_12
REMARK    7  A    between atoms: C_12  and  O_13
REMARK    8  A    between atoms: O_13  and  C_14
REMARK    9  A    between atoms: C_19  and  O_20
REMARK   10  A    between atoms: O_20  and  C_21
REMARK                            x       y       z     vdW  Elec       q    Type
REMARK                         _______ _______ _______ _____ _____    ______ ____
ROOT
ATOM      1  C   UNL     1       6.678   5.231  18.025  0.00  0.00    +0.000 A 
ATOM      2  C   UNL     1       5.702   4.478  18.644  0.00  0.00    +0.000 A 
ATOM      3  N   UNL     1       5.034   3.744  17.702  0.00  0.00    +0.000 N 
ATOM      4  C   UNL     1       5.585   3.983  16.457  0.00  0.00    +0.000 A 
ATOM      5  C   UNL     1       5.269   3.452  15.196  0.00  0.00    +0.000 A 
ATOM      6  C   UNL     1       6.014   3.881  14.096  0.00  0.00    +0.000 A 
ATOM      7  C   UNL     1       7.028   4.822  14.241  0.00  0.00    +0.000 A 
ATOM      8  C   UNL     1       7.331   5.354  15.500  0.00  0.00    +0.000 A 
ATOM      9  C   UNL     1       6.609   4.924  16.633  0.00  0.00    +0.000 A 
ENDROOT
BRANCH   1  11
ATOM     10  N   UNL     1       7.846   7.274  18.172  0.00  0.00    +0.000 NA
ATOM     11  C   UNL     1       7.580   6.131  18.716  0.00  0.00    +0.000 C 
BRANCH  10  14
ATOM     12  C   UNL     1       8.712   9.451  18.594  0.00  0.00    +0.000 C 
ATOM     13  O   UNL     1       8.050  10.042  17.754  0.00  0.00    +0.000 OA
ATOM     14  N   UNL     1       8.686   8.098  18.860  0.00  0.00    +0.000 N 
ATOM     15  H   UNL     1       9.285   7.748  19.594  0.00  0.00    +0.000 HD
BRANCH  12  17
ATOM     16  C   UNL     1       9.370  11.458  19.582  0.00  0.00    +0.000 C 
ATOM     17  O   UNL     1       9.616  10.058  19.421  0.00  0.00    +0.000 OA
ENDBRANCH  12  17
ENDBRANCH  10  14
ENDBRANCH   1  11
BRANCH   3  18
ATOM     18  C   UNL     1       3.906   2.850  17.951  0.00  0.00    +0.000 C 
BRANCH  18  19
ATOM     19  C   UNL     1       2.657   3.223  17.168  0.00  0.00    +0.000 C 
BRANCH  19  20
ATOM     20  O   UNL     1       1.572   3.582  18.028  0.00  0.00    +0.000 OA
BRANCH  20  21
ATOM     21  C   UNL     1       1.777   4.761  18.712  0.00  0.00    +0.000 A 
ATOM     22  C   UNL     1       2.198   5.927  18.043  0.00  0.00    +0.000 A 
ATOM     23  C   UNL     1       2.414   7.125  18.721  0.00  0.00    +0.000 A 
ATOM     24  C   UNL     1       2.179   7.188  20.083  0.00  0.00    +0.000 A 
ATOM     25  C   UNL     1       1.733   6.052  20.759  0.00  0.00    +0.000 A 
ATOM     26  C   UNL     1       1.533   4.829  20.093  0.00  0.00    +0.000 A 
BRANCH  26  27
ATOM     27  O   UNL     1       1.124   3.837  20.948  0.00  0.00    +0.000 OA
ATOM     28  C   UNL     1       2.064   2.851  21.342  0.00  0.00    +0.000 C 
ENDBRANCH  26  27
ENDBRANCH  20  21
ENDBRANCH  19  20
ENDBRANCH  18  19
ENDBRANCH   3  18
TORSDOF 8
ENDMDL
MODEL 3
REMARK VINA RESULT:      -7.5      1.566      2.061
REMARK  Name = 
REMARK  10 active torsions:
REMARK  status: ('A' for Active; 'I' for Inactive)
REMARK    1  A    between atoms: C_1  and  O_2
REMARK    2  A    between atoms: O_2  and  C_3
REMARK    3  A    between atoms: N_5  and  N_6
REMARK    4  A    between atoms: C_7  and  C_8
REMARK    5  A    between atoms: N_10  and  C_11
REMARK    6  A    between atoms: C_11  and  C_12
REMARK    7  A    between atoms: C_12  and  O_13
REMARK    8  A    between atoms: O_13  and  C_14
REMARK    9  A    between atoms: C_19  and  O_20
REMARK   10  A    between atoms: O_20  and  C_21
REMARK                            x       y       z     vdW  Elec       q    Type
REMARK                         _______ _______ _______ _____ _____    ______ ____
ROOT
ATOM      1  C   UNL     1       3.360   5.493  17.980  0.00  0.00    +0.000 A 
ATOM      2  C   UNL     1       3.094   6.693  18.607  0.00  0.00    +0.000 A 
ATOM      3  N   UNL     1       2.240   6.476  19.653  0.00  0.00    +0.000 N 
ATOM      4  C   UNL     1       1.960   5.126  19.745  0.00  0.00    +0.000 A 
ATOM      5  C   UNL     1       1.168   4.413  20.660  0.00  0.00    +0.000 A 
ATOM      6  C   UNL     1       1.072   3.028  20.509  0.00  0.00    +0.000 A 
ATOM      7  C   UNL     1       1.728   2.375  19.471  0.00  0.00    +0.000 A 
ATOM      8  C   UNL     1       2.508   3.093  18.557  0.00  0.00    +0.000 A 
ATOM      9  C   UNL     1       2.640   4.491  18.697  0.00  0.00    +0.000 A 
ENDROOT
BRANCH   1  11
ATOM     10  N   UNL     1       5.226   6.155  16.701  0.00  0.00    +0.000 NA
ATOM     11  C   UNL     1       4.226   5.344  16.828  0.00  0.00    +0.000 C 
BRANCH  10  14
ATOM     12  C   UNL     1       7.185   5.232  15.712  0.00  0.00    +0.000 C 
ATOM     13  O   UNL     1       7.625   4.697  16.719  0.00  0.00    +0.000 OA
ATOM     14  N   UNL     1       6.026   5.973  15.613  0.00  0.00    +0.000 N 
ATOM     15  H   UNL     1       5.780   6.349  14.708  0.00  0.00    +0.000 HD
BRANCH  12  17
ATOM     16  C   UNL     1       6.980   4.580  13.481  0.00  0.00    +0.000 C 
ATOM     17  O   UNL     1       7.797   5.182  14.490  0.00  0.00    +0.000 OA
ENDBRANCH  12  17
ENDBRANCH  10  14
ENDBRANCH   1  11
BRANCH   3  18
ATOM     18  C   UNL     1       1.690   7.498  20.539  0.00  0.00    +0.000 C 
BRANCH  18  19
ATOM     19  C   UNL     1       1.409   8.818  19.838  0.00  0.00    +0.000 C 
BRANCH  19  20
ATOM     20  O   UNL     1       0.174   9.399  20.262  0.00  0.00    +0.000 OA
BRANCH  20  21
ATOM     21  C   UNL     1      -0.088  10.624  19.686  0.00  0.00    +0.000 A 
ATOM     22  C   UNL     1       0.681  11.759  20.008  0.00  0.00    +0.000 A 
ATOM     23  C   UNL     1       0.427  13.004  19.438  0.00  0.00    +0.000 A 
ATOM     24  C   UNL     1      -0.586  13.132  18.504  0.00  0.00    +0.000 A 
ATOM     25  C   UNL     1      -1.341  12.013  18.149  0.00  0.00    +0.000 A 
ATOM     26  C   UNL     1      -1.112  10.753  18.733  0.00  0.00    +0.000 A 
BRANCH  26  27
ATOM     27  O   UNL     1      -1.982   9.802  18.267  0.00  0.00    +0.000 OA
ATOM     28  C   UNL     1      -3.137  10.226  17.562  0.00  0.00    +0.000 C 
ENDBRANCH  26  27
ENDBRANCH  20  21
ENDBRANCH  19  20
ENDBRANCH  18  19
ENDBRANCH   3  18
TORSDOF 8
ENDMDL
MODEL 4
REMARK VINA RESULT:      -7.4      2.031      2.894
REMARK  Name = 
REMARK  10 active torsions:
REMARK  status: ('A' for Active; 'I' for Inactive)
REMARK    1  A    between atoms: C_1  and  O_2
REMARK    2  A    between atoms: O_2  and  C_3
REMARK    3  A    between atoms: N_5  and  N_6
REMARK    4  A    between atoms: C_7  and  C_8
REMARK    5  A    between atoms: N_10  and  C_11
REMARK    6  A    between atoms: C_11  and  C_12
REMARK    7  A    between atoms: C_12  and  O_13
REMARK    8  A    between atoms: O_13  and  C_14
REMARK    9  A    between atoms: C_19  and  O_20
REMARK   10  A    between atoms: O_20  and  C_21
REMARK                            x       y       z     vdW  Elec       q    Type
REMARK                         _______ _______ _______ _____ _____    ______ ____
ROOT
ATOM      1  C   UNL     1       4.517   4.457  16.737  0.00  0.00    +0.000 A 
ATOM      2  C   UNL     1       4.502   5.771  17.157  0.00  0.00    +0.000 A 
ATOM      3  N   UNL     1       3.473   5.949  18.042  0.00  0.00    +0.000 N 
ATOM      4  C   UNL     1       2.821   4.746  18.236  0.00  0.00    +0.000 A 
ATOM      5  C   UNL     1       1.735   4.414  19.063  0.00  0.00    +0.000 A 
ATOM      6  C   UNL     1       1.285   3.092  19.059  0.00  0.00    +0.000 A 
ATOM      7  C   UNL     1       1.884   2.135  18.247  0.00  0.00    +0.000 A 
ATOM      8  C   UNL     1       2.960   2.475  17.419  0.00  0.00    +0.000 A 
ATOM      9  C   UNL     1       3.449   3.798  17.417  0.00  0.00    +0.000 A 
ENDROOT
BRANCH   1  11
ATOM     10  N   UNL     1       5.316   4.173  14.536  0.00  0.00    +0.000 NA
ATOM     11  C   UNL     1       5.472   3.909  15.793  0.00  0.00    +0.000 C 
BRANCH  10  14
ATOM     12  C   UNL     1       5.890   3.297  12.399  0.00  0.00    +0.000 C 
ATOM     13  O   UNL     1       4.778   3.378  11.899  0.00  0.00    +0.000 OA
ATOM     14  N   UNL     1       6.243   3.653  13.684  0.00  0.00    +0.000 N 
ATOM     15  H   UNL     1       7.209   3.540  13.958  0.00  0.00    +0.000 HD
BRANCH  12  17
ATOM     16  C   UNL     1       6.757   1.560  11.105  0.00  0.00    +0.000 C 
ATOM     17  O   UNL     1       6.991   2.821  11.742  0.00  0.00    +0.000 OA
ENDBRANCH  12  17
ENDBRANCH  10  14
ENDBRANCH   1  11
BRANCH   3  18
ATOM     18  C   UNL     1       3.100   7.207  18.683  0.00  0.00    +0.000 C 
BRANCH  18  19
ATOM     19  C   UNL     1       2.074   8.005  17.894  0.00  0.00    +0.000 C 
BRANCH  19  20
ATOM     20  O   UNL     1       2.042   9.378  18.291  0.00  0.00    +0.000 OA
BRANCH  20  21
ATOM     21  C   UNL     1       0.775   9.842  18.573  0.00  0.00    +0.000 A 
ATOM     22  C   UNL     1      -0.218   9.899  17.575  0.00  0.00    +0.000 A 
ATOM     23  C   UNL     1      -1.501  10.370  17.842  0.00  0.00    +0.000 A 
ATOM     24  C   UNL     1      -1.828  10.764  19.127  0.00  0.00    +0.000 A 
ATOM     25  C   UNL     1      -0.868  10.688  20.136  0.00  0.00    +0.000 A 
ATOM     26  C   UNL     1       0.439  10.237  19.878  0.00  0.00    +0.000 A 
BRANCH  26  27
ATOM     27  O   UNL     1       1.228  10.271  20.999  0.00  0.00    +0.000 OA
ATOM     28  C   UNL     1       1.218   9.152  21.870  0.00  0.00    +0.000 C 
ENDBRANCH  26  27
ENDBRANCH  20  21
ENDBRANCH  19  20
ENDBRANCH  18  19
ENDBRANCH   3  18
TORSDOF 8
ENDMDL
MODEL 5
REMARK VINA RESULT:      -7.4      1.089      1.259
REMARK  Name = 
REMARK  10 active torsions:
REMARK  status: ('A' for Active; 'I' for Inactive)
REMARK    1  A    between atoms: C_1  and  O_2
REMARK    2  A    between atoms: O_2  and  C_3
REMARK    3  A    between atoms: N_5  and  N_6
REMARK    4  A    between atoms: C_7  and  C_8
REMARK    5  A    between atoms: N_10  and  C_11
REMARK    6  A    between atoms: C_11  and  C_12
REMARK    7  A    between atoms: C_12  and  O_13
REMARK    8  A    between atoms: O_13  and  C_14
REMARK    9  A    between atoms: C_19  and  O_20
REMARK   10  A    between atoms: O_20  and  C_21
REMARK                            x       y       z     vdW  Elec       q    Type
REMARK                         _______ _______ _______ _____ _____    ______ ____
ROOT
ATOM      1  C   UNL     1       3.291   6.302  18.083  0.00  0.00    +0.000 A 
ATOM      2  C   UNL     1       2.922   7.403  18.828  0.00  0.00    +0.000 A 
ATOM      3  N   UNL     1       2.114   7.000  19.856  0.00  0.00    +0.000 N 
ATOM      4  C   UNL     1       1.968   5.627  19.815  0.00  0.00    +0.000 A 
ATOM      5  C   UNL     1       1.267   4.753  20.662  0.00  0.00    +0.000 A 
ATOM      6  C   UNL     1       1.303   3.387  20.374  0.00  0.00    +0.000 A 
ATOM      7  C   UNL     1       1.999   2.907  19.270  0.00  0.00    +0.000 A 
ATOM      8  C   UNL     1       2.688   3.785  18.425  0.00  0.00    +0.000 A 
ATOM      9  C   UNL     1       2.686   5.168  18.703  0.00  0.00    +0.000 A 
ENDROOT
BRANCH   1  11
ATOM     10  N   UNL     1       5.276   5.726  16.948  0.00  0.00    +0.000 NA
ATOM     11  C   UNL     1       4.145   6.354  16.913  0.00  0.00    +0.000 C 
BRANCH  10  14
ATOM     12  C   UNL     1       7.260   5.140  15.771  0.00  0.00    +0.000 C 
ATOM     13  O   UNL     1       7.782   4.492  16.668  0.00  0.00    +0.000 OA
ATOM     14  N   UNL     1       6.043   5.786  15.823  0.00  0.00    +0.000 N 
ATOM     15  H   UNL     1       5.732   6.278  14.997  0.00  0.00    +0.000 HD
BRANCH  12  17
ATOM     16  C   UNL     1       7.078   4.730  13.482  0.00  0.00    +0.000 C 
ATOM     17  O   UNL     1       7.826   5.336  14.541  0.00  0.00    +0.000 OA
ENDBRANCH  12  17
ENDBRANCH  10  14
ENDBRANCH   1  11
BRANCH   3  18
ATOM     18  C   UNL     1       1.485   7.871  20.845  0.00  0.00    +0.000 C 
BRANCH  18  19
ATOM     19  C   UNL     1       0.830   9.102  20.237  0.00  0.00    +0.000 C 
BRANCH  19  20
ATOM     20  O   UNL     1       1.120  10.287  20.983  0.00  0.00    +0.000 OA
BRANCH  20  21
ATOM     21  C   UNL     1      -0.003  10.923  21.466  0.00  0.00    +0.000 A 
ATOM     22  C   UNL     1      -0.536  10.599  22.729  0.00  0.00    +0.000 A 
ATOM     23  C   UNL     1      -1.673  11.229  23.230  0.00  0.00    +0.000 A 
ATOM     24  C   UNL     1      -2.283  12.225  22.488  0.00  0.00    +0.000 A 
ATOM     25  C   UNL     1      -1.753  12.581  21.247  0.00  0.00    +0.000 A 
ATOM     26  C   UNL     1      -0.620  11.939  20.717  0.00  0.00    +0.000 A 
BRANCH  26  27
ATOM     27  O   UNL     1      -0.287  12.420  19.477  0.00  0.00    +0.000 OA
ATOM     28  C   UNL     1      -1.082  12.041  18.365  0.00  0.00    +0.000 C 
ENDBRANCH  26  27
ENDBRANCH  20  21
ENDBRANCH  19  20
ENDBRANCH  18  19
ENDBRANCH   3  18
TORSDOF 8
ENDMDL
MODEL 6
REMARK VINA RESULT:      -7.3      1.062      1.850
REMARK  Name = 
REMARK  10 active torsions:
REMARK  status: ('A' for Active; 'I' for Inactive)
REMARK    1  A    between atoms: C_1  and  O_2
REMARK    2  A    between atoms: O_2  and  C_3
REMARK    3  A    between atoms: N_5  and  N_6
REMARK    4  A    between atoms: C_7  and  C_8
REMARK    5  A    between atoms: N_10  and  C_11
REMARK    6  A    between atoms: C_11  and  C_12
REMARK    7  A    between atoms: C_12  and  O_13
REMARK    8  A    between atoms: O_13  and  C_14
REMARK    9  A    between atoms: C_19  and  O_20
REMARK   10  A    between atoms: O_20  and  C_21
REMARK                            x       y       z     vdW  Elec       q    Type
REMARK                         _______ _______ _______ _____ _____    ______ ____
ROOT
ATOM      1  C   UNL     1       3.430   5.933  18.041  0.00  0.00    +0.000 A 
ATOM      2  C   UNL     1       3.108   6.893  18.978  0.00  0.00    +0.000 A 
ATOM      3  N   UNL     1       2.162   6.391  19.830  0.00  0.00    +0.000 N 
ATOM      4  C   UNL     1       1.875   5.085  19.480  0.00  0.00    +0.000 A 
ATOM      5  C   UNL     1       1.003   4.150  20.062  0.00  0.00    +0.000 A 
ATOM      6  C   UNL     1       0.923   2.879  19.486  0.00  0.00    +0.000 A 
ATOM      7  C   UNL     1       1.671   2.555  18.360  0.00  0.00    +0.000 A 
ATOM      8  C   UNL     1       2.531   3.496  17.781  0.00  0.00    +0.000 A 
ATOM      9  C   UNL     1       2.648   4.781  18.352  0.00  0.00    +0.000 A 
ENDROOT
BRANCH   1  11
ATOM     10  N   UNL     1       5.639   5.842  17.220  0.00  0.00    +0.000 NA
ATOM     11  C   UNL     1       4.398   6.119  16.979  0.00  0.00    +0.000 C 
BRANCH  10  14
ATOM     12  C   UNL     1       6.750   4.995  15.294  0.00  0.00    +0.000 C 
ATOM     13  O   UNL     1       6.256   3.877  15.313  0.00  0.00    +0.000 OA
ATOM     14  N   UNL     1       6.515   6.016  16.191  0.00  0.00    +0.000 N 
ATOM     15  H   UNL     1       6.990   6.895  16.044  0.00  0.00    +0.000 HD
BRANCH  12  17
ATOM     16  C   UNL     1       7.441   4.811  13.073  0.00  0.00    +0.000 C 
ATOM     17  O   UNL     1       7.648   5.418  14.352  0.00  0.00    +0.000 OA
ENDBRANCH  12  17
ENDBRANCH  10  14
ENDBRANCH   1  11
BRANCH   3  18
ATOM     18  C   UNL     1       1.533   7.110  20.935  0.00  0.00    +0.000 C 
BRANCH  18  19
ATOM     19  C   UNL     1       1.288   8.581  20.636  0.00  0.00    +0.000 C 
BRANCH  19  20
ATOM     20  O   UNL     1      -0.044   8.982  20.970  0.00  0.00    +0.000 OA
BRANCH  20  21
ATOM     21  C   UNL     1      -0.454  10.127  20.322  0.00  0.00    +0.000 A 
ATOM     22  C   UNL     1      -0.754  10.117  18.945  0.00  0.00    +0.000 A 
ATOM     23  C   UNL     1      -1.165  11.267  18.275  0.00  0.00    +0.000 A 
ATOM     24  C   UNL     1      -1.317  12.448  18.979  0.00  0.00    +0.000 A 
ATOM     25  C   UNL     1      -1.054  12.472  20.349  0.00  0.00    +0.000 A 
ATOM     26  C   UNL     1      -0.615  11.326  21.036  0.00  0.00    +0.000 A 
BRANCH  26  27
ATOM     27  O   UNL     1      -0.386  11.576  22.365  0.00  0.00    +0.000 OA
ATOM     28  C   UNL     1      -1.072  12.653  22.981  0.00  0.00    +0.000 C 
ENDBRANCH  26  27
ENDBRANCH  20  21
ENDBRANCH  19  20
ENDBRANCH  18  19
ENDBRANCH   3  18
TORSDOF 8
ENDMDL
MODEL 7
REMARK VINA RESULT:      -7.3      1.495      2.137
REMARK  Name = 
REMARK  10 active torsions:
REMARK  status: ('A' for Active; 'I' for Inactive)
REMARK    1  A    between atoms: C_1  and  O_2
REMARK    2  A    between atoms: O_2  and  C_3
REMARK    3  A    between atoms: N_5  and  N_6
REMARK    4  A    between atoms: C_7  and  C_8
REMARK    5  A    between atoms: N_10  and  C_11
REMARK    6  A    between atoms: C_11  and  C_12
REMARK    7  A    between atoms: C_12  and  O_13
REMARK    8  A    between atoms: O_13  and  C_14
REMARK    9  A    between atoms: C_19  and  O_20
REMARK   10  A    between atoms: O_20  and  C_21
REMARK                            x       y       z     vdW  Elec       q    Type
REMARK                         _______ _______ _______ _____ _____    ______ ____
ROOT
ATOM      1  C   UNL     1       3.360   5.348  17.990  0.00  0.00    +0.000 A 
ATOM      2  C   UNL     1       3.127   6.544  18.638  0.00  0.00    +0.000 A 
ATOM      3  N   UNL     1       2.256   6.334  19.671  0.00  0.00    +0.000 N 
ATOM      4  C   UNL     1       1.930   4.992  19.733  0.00  0.00    +0.000 A 
ATOM      5  C   UNL     1       1.106   4.287  20.625  0.00  0.00    +0.000 A 
ATOM      6  C   UNL     1       0.967   2.909  20.444  0.00  0.00    +0.000 A 
ATOM      7  C   UNL     1       1.612   2.256  19.399  0.00  0.00    +0.000 A 
ATOM      8  C   UNL     1       2.424   2.967  18.509  0.00  0.00    +0.000 A 
ATOM      9  C   UNL     1       2.600   4.356  18.679  0.00  0.00    +0.000 A 
ENDROOT
BRANCH   1  11
ATOM     10  N   UNL     1       5.357   4.576  17.003  0.00  0.00    +0.000 NA
ATOM     11  C   UNL     1       4.233   5.195  16.843  0.00  0.00    +0.000 C 
BRANCH  10  14
ATOM     12  C   UNL     1       7.136   5.357  15.628  0.00  0.00    +0.000 C 
ATOM     13  O   UNL     1       7.409   6.351  16.284  0.00  0.00    +0.000 OA
ATOM     14  N   UNL     1       6.143   4.439  15.898  0.00  0.00    +0.000 N 
ATOM     15  H   UNL     1       6.038   3.655  15.269  0.00  0.00    +0.000 HD
BRANCH  12  17
ATOM     16  C   UNL     1       6.906   4.505  13.468  0.00  0.00    +0.000 C 
ATOM     17  O   UNL     1       7.789   4.993  14.482  0.00  0.00    +0.000 OA
ENDBRANCH  12  17
ENDBRANCH  10  14
ENDBRANCH   1  11
BRANCH   3  18
ATOM     18  C   UNL     1       1.730   7.355  20.573  0.00  0.00    +0.000 C 
BRANCH  18  19
ATOM     19  C   UNL     1       1.543   8.710  19.907  0.00  0.00    +0.000 C 
BRANCH  19  20
ATOM     20  O   UNL     1       0.758   9.597  20.708  0.00  0.00    +0.000 OA
BRANCH  20  21
ATOM     21  C   UNL     1       0.063  10.535  19.974  0.00  0.00    +0.000 A 
ATOM     22  C   UNL     1      -0.906  10.147  19.028  0.00  0.00    +0.000 A 
ATOM     23  C   UNL     1      -1.612  11.082  18.276  0.00  0.00    +0.000 A 
ATOM     24  C   UNL     1      -1.386  12.432  18.479  0.00  0.00    +0.000 A 
ATOM     25  C   UNL     1      -0.450  12.837  19.432  0.00  0.00    +0.000 A 
ATOM     26  C   UNL     1       0.288  11.905  20.183  0.00  0.00    +0.000 A 
BRANCH  26  27
ATOM     27  O   UNL     1       1.171  12.515  21.037  0.00  0.00    +0.000 OA
ATOM     28  C   UNL     1       2.295  13.182  20.489  0.00  0.00    +0.000 C 
ENDBRANCH  26  27
ENDBRANCH  20  21
ENDBRANCH  19  20
ENDBRANCH  18  19
ENDBRANCH   3  18
TORSDOF 8
ENDMDL
MODEL 8
REMARK VINA RESULT:      -7.3      1.101      1.250
REMARK  Name = 
REMARK  10 active torsions:
REMARK  status: ('A' for Active; 'I' for Inactive)
REMARK    1  A    between atoms: C_1  and  O_2
REMARK    2  A    between atoms: O_2  and  C_3
REMARK    3  A    between atoms: N_5  and  N_6
REMARK    4  A    between atoms: C_7  and  C_8
REMARK    5  A    between atoms: N_10  and  C_11
REMARK    6  A    between atoms: C_11  and  C_12
REMARK    7  A    between atoms: C_12  and  O_13
REMARK    8  A    between atoms: O_13  and  C_14
REMARK    9  A    between atoms: C_19  and  O_20
REMARK   10  A    between atoms: O_20  and  C_21
REMARK                            x       y       z     vdW  Elec       q    Type
REMARK                         _______ _______ _______ _____ _____    ______ ____
ROOT
ATOM      1  C   UNL     1       3.336   5.497  18.022  0.00  0.00    +0.000 A 
ATOM      2  C   UNL     1       3.235   6.556  18.900  0.00  0.00    +0.000 A 
ATOM      3  N   UNL     1       2.344   6.238  19.888  0.00  0.00    +0.000 N 
ATOM      4  C   UNL     1       1.873   4.955  19.687  0.00  0.00    +0.000 A 
ATOM      5  C   UNL     1       0.974   4.179  20.437  0.00  0.00    +0.000 A 
ATOM      6  C   UNL     1       0.685   2.889  19.988  0.00  0.00    +0.000 A 
ATOM      7  C   UNL     1       1.255   2.393  18.820  0.00  0.00    +0.000 A 
ATOM      8  C   UNL     1       2.143   3.175  18.073  0.00  0.00    +0.000 A 
ATOM      9  C   UNL     1       2.470   4.475  18.514  0.00  0.00    +0.000 A 
ENDROOT
BRANCH   1  11
ATOM     10  N   UNL     1       5.147   4.615  16.796  0.00  0.00    +0.000 NA
ATOM     11  C   UNL     1       4.189   5.483  16.850  0.00  0.00    +0.000 C 
BRANCH  10  14
ATOM     12  C   UNL     1       7.043   5.417  15.601  0.00  0.00    +0.000 C 
ATOM     13  O   UNL     1       7.458   6.175  16.466  0.00  0.00    +0.000 OA
ATOM     14  N   UNL     1       5.917   4.625  15.671  0.00  0.00    +0.000 N 
ATOM     15  H   UNL     1       5.701   4.037  14.878  0.00  0.00    +0.000 HD
BRANCH  12  17
ATOM     16  C   UNL     1       6.889   4.409  13.503  0.00  0.00    +0.000 C 
ATOM     17  O   UNL     1       7.649   5.239  14.388  0.00  0.00    +0.000 OA
ENDBRANCH  12  17
ENDBRANCH  10  14
ENDBRANCH   1  11
BRANCH   3  18
ATOM     18  C   UNL     1       1.933   7.109  20.986  0.00  0.00    +0.000 C 
BRANCH  18  19
ATOM     19  C   UNL     1       1.136   8.321  20.530  0.00  0.00    +0.000 C 
BRANCH  19  20
ATOM     20  O   UNL     1       1.468   9.494  21.277  0.00  0.00    +0.000 OA
BRANCH  20  21
ATOM     21  C   UNL     1       0.384  10.299  21.553  0.00  0.00    +0.000 A 
ATOM     22  C   UNL     1      -0.293  10.212  22.785  0.00  0.00    +0.000 A 
ATOM     23  C   UNL     1      -1.393  11.014  23.077  0.00  0.00    +0.000 A 
ATOM     24  C   UNL     1      -1.820  11.948  22.150  0.00  0.00    +0.000 A 
ATOM     25  C   UNL     1      -1.146  12.070  20.935  0.00  0.00    +0.000 A 
ATOM     26  C   UNL     1      -0.048  11.252  20.615  0.00  0.00    +0.000 A 
BRANCH  26  27
ATOM     27  O   UNL     1       0.446  11.516  19.364  0.00  0.00    +0.000 OA
ATOM     28  C   UNL     1       1.540  12.410  19.240  0.00  0.00    +0.000 C 
ENDBRANCH  26  27
ENDBRANCH  20  21
ENDBRANCH  19  20
ENDBRANCH  18  19
ENDBRANCH   3  18
TORSDOF 8
ENDMDL
MODEL 9
REMARK VINA RESULT:      -7.2      1.479      2.165
REMARK  Name = 
REMARK  10 active torsions:
REMARK  status: ('A' for Active; 'I' for Inactive)
REMARK    1  A    between atoms: C_1  and  O_2
REMARK    2  A    between atoms: O_2  and  C_3
REMARK    3  A    between atoms: N_5  and  N_6
REMARK    4  A    between atoms: C_7  and  C_8
REMARK    5  A    between atoms: N_10  and  C_11
REMARK    6  A    between atoms: C_11  and  C_12
REMARK    7  A    between atoms: C_12  and  O_13
REMARK    8  A    between atoms: O_13  and  C_14
REMARK    9  A    between atoms: C_19  and  O_20
REMARK   10  A    between atoms: O_20  and  C_21
REMARK                            x       y       z     vdW  Elec       q    Type
REMARK                         _______ _______ _______ _____ _____    ______ ____
ROOT
ATOM      1  C   UNL     1       3.291   5.432  18.132  0.00  0.00    +0.000 A 
ATOM      2  C   UNL     1       2.930   6.574  18.816  0.00  0.00    +0.000 A 
ATOM      3  N   UNL     1       2.109   6.234  19.857  0.00  0.00    +0.000 N 
ATOM      4  C   UNL     1       1.948   4.862  19.886  0.00  0.00    +0.000 A 
ATOM      5  C   UNL     1       1.230   4.041  20.772  0.00  0.00    +0.000 A 
ATOM      6  C   UNL     1       1.253   2.662  20.555  0.00  0.00    +0.000 A 
ATOM      7  C   UNL     1       1.951   2.117  19.482  0.00  0.00    +0.000 A 
ATOM      8  C   UNL     1       2.656   2.943  18.599  0.00  0.00    +0.000 A 
ATOM      9  C   UNL     1       2.668   4.338  18.804  0.00  0.00    +0.000 A 
ENDROOT
BRANCH   1  11
ATOM     10  N   UNL     1       5.159   4.598  16.958  0.00  0.00    +0.000 NA
ATOM     11  C   UNL     1       4.154   5.414  16.968  0.00  0.00    +0.000 C 
BRANCH  10  14
ATOM     12  C   UNL     1       7.025   5.442  15.746  0.00  0.00    +0.000 C 
ATOM     13  O   UNL     1       7.396   6.252  16.584  0.00  0.00    +0.000 OA
ATOM     14  N   UNL     1       5.937   4.600  15.840  0.00  0.00    +0.000 N 
ATOM     15  H   UNL     1       5.756   3.972  15.068  0.00  0.00    +0.000 HD
BRANCH  12  17
ATOM     16  C   UNL     1       6.910   4.390  13.667  0.00  0.00    +0.000 C 
ATOM     17  O   UNL     1       7.649   5.245  14.545  0.00  0.00    +0.000 OA
ENDBRANCH  12  17
ENDBRANCH  10  14
ENDBRANCH   1  11
BRANCH   3  18
ATOM     18  C   UNL     1       1.483   7.162  20.795  0.00  0.00    +0.000 C 
BRANCH  18  19
ATOM     19  C   UNL     1       1.584   8.617  20.363  0.00  0.00    +0.000 C 
BRANCH  19  20
ATOM     20  O   UNL     1       0.347   9.314  20.534  0.00  0.00    +0.000 OA
BRANCH  20  21
ATOM     21  C   UNL     1       0.450  10.676  20.349  0.00  0.00    +0.000 A 
ATOM     22  C   UNL     1       0.806  11.216  19.097  0.00  0.00    +0.000 A 
ATOM     23  C   UNL     1       0.920  12.589  18.896  0.00  0.00    +0.000 A 
ATOM     24  C   UNL     1       0.646  13.456  19.939  0.00  0.00    +0.000 A 
ATOM     25  C   UNL     1       0.263  12.942  21.179  0.00  0.00    +0.000 A 
ATOM     26  C   UNL     1       0.166  11.557  21.405  0.00  0.00    +0.000 A 
BRANCH  26  27
ATOM     27  O   UNL     1      -0.194  11.269  22.696  0.00  0.00    +0.000 OA
ATOM     28  C   UNL     1      -1.506  11.592  23.124  0.00  0.00    +0.000 C 
ENDBRANCH  26  27
ENDBRANCH  20  21
ENDBRANCH  19  20
ENDBRANCH  18  19
ENDBRANCH   3  18
TORSDOF 8
ENDMDL
