MODEL 1
REMARK VINA RESULT:      -8.7      0.000      0.000
REMARK  Name = 
REMARK  4 active torsions:
REMARK  status: ('A' for Active; 'I' for Inactive)
REMARK    1  A    between atoms: C_2  and  O_3
REMARK    2  A    between atoms: C_2  and  C_4
REMARK    3  A    between atoms: C_11  and  N_12
REMARK    4  A    between atoms: N_12  and  C_13
REMARK                            x       y       z     vdW  Elec       q    Type
REMARK                         _______ _______ _______ _____ _____    ______ ____
ROOT
ATOM      1  C   UNL     1       1.674   8.976  18.926  0.00  0.00    +0.000 A 
ATOM      2  C   UNL     1       1.325   8.598  20.219  0.00  0.00    +0.000 A 
ATOM      3  C   UNL     1       1.557   7.287  20.643  0.00  0.00    +0.000 A 
ATOM      4  C   UNL     1       2.153   6.328  19.785  0.00  0.00    +0.000 A 
ATOM      5  C   UNL     1       2.509   6.745  18.487  0.00  0.00    +0.000 A 
ATOM      6  C   UNL     1       2.275   8.047  18.077  0.00  0.00    +0.000 A 
ATOM      7  N   UNL     1       3.071   5.933  17.599  0.00  0.00    +0.000 NA
ATOM      8  C   UNL     1       3.320   4.645  17.940  0.00  0.00    +0.000 A 
ATOM      9  C   UNL     1       3.030   4.103  19.199  0.00  0.00    +0.000 A 
ATOM     10  N   UNL     1       3.298   2.794  19.464  0.00  0.00    +0.000 NA
ATOM     11  C   UNL     1       2.978   2.305  20.680  0.00  0.00    +0.000 A 
ATOM     12  C   UNL     1       2.393   3.059  21.671  0.00  0.00    +0.000 A 
ATOM     13  C   UNL     1       2.116   4.394  21.396  0.00  0.00    +0.000 A 
ATOM     14  C   UNL     1       2.425   4.963  20.139  0.00  0.00    +0.000 A 
ENDROOT
BRANCH   1  16
ATOM     15  O   UNL     1       0.656  11.110  19.097  0.00  0.00    +0.000 OA
ATOM     16  C   UNL     1       1.437  10.378  18.513  0.00  0.00    +0.000 C 
BRANCH  16  17
ATOM     17  O   UNL     1       2.116  10.748  17.408  0.00  0.00    +0.000 OA
ATOM     18  H   UNL     1       1.743  11.500  16.913  0.00  0.00    +0.000 HD
ENDBRANCH  16  17
ENDBRANCH   1  16
BRANCH   8  19
ATOM     19  N   UNL     1       3.957   3.806  16.975  0.00  0.00    +0.000 N 
ATOM     20  H   UNL     1       3.228   3.432  16.364  0.00  0.00    +0.000 HD
BRANCH  19  21
ATOM     21  C   UNL     1       5.118   4.140  16.241  0.00  0.00    +0.000 A 
ATOM     22  C   UNL     1       6.159   4.903  16.792  0.00  0.00    +0.000 A 
ATOM     23  C   UNL     1       7.268   5.271  16.027  0.00  0.00    +0.000 A 
ATOM     24  C   UNL     1       7.345   4.890  14.691  0.00  0.00    +0.000 A 
ATOM     25  C   UNL     1       6.309   4.145  14.129  0.00  0.00    +0.000 A 
ATOM     26 CL   UNL     1       6.405   3.681  12.473  0.00  0.00    +0.000 Cl
ATOM     27  C   UNL     1       5.199   3.778  14.891  0.00  0.00    +0.000 A 
ENDBRANCH  19  21
ENDBRANCH   8  19
TORSDOF 4
ENDMDL
MODEL 2
REMARK VINA RESULT:      -8.7      3.944      6.743
REMARK  Name = 
REMARK  4 active torsions:
REMARK  status: ('A' for Active; 'I' for Inactive)
REMARK    1  A    between atoms: C_2  and  O_3
REMARK    2  A    between atoms: C_2  and  C_4
REMARK    3  A    between atoms: C_11  and  N_12
REMARK    4  A    between atoms: N_12  and  C_13
REMARK                            x       y       z     vdW  Elec       q    Type
REMARK                         _______ _______ _______ _____ _____    ______ ____
ROOT
ATOM      1  C   UNL     1       5.960   5.251  16.393  0.00  0.00    +0.000 A 
ATOM      2  C   UNL     1       5.407   4.032  16.013  0.00  0.00    +0.000 A 
ATOM      3  C   UNL     1       4.280   3.546  16.679  0.00  0.00    +0.000 A 
ATOM      4  C   UNL     1       3.674   4.274  17.735  0.00  0.00    +0.000 A 
ATOM      5  C   UNL     1       4.248   5.512  18.087  0.00  0.00    +0.000 A 
ATOM      6  C   UNL     1       5.366   5.985  17.418  0.00  0.00    +0.000 A 
ATOM      7  N   UNL     1       3.768   6.278  19.059  0.00  0.00    +0.000 NA
ATOM      8  C   UNL     1       2.679   5.865  19.754  0.00  0.00    +0.000 A 
ATOM      9  C   UNL     1       2.002   4.666  19.500  0.00  0.00    +0.000 A 
ATOM     10  N   UNL     1       0.921   4.313  20.248  0.00  0.00    +0.000 NA
ATOM     11  C   UNL     1       0.315   3.135  19.989  0.00  0.00    +0.000 A 
ATOM     12  C   UNL     1       0.732   2.267  19.006  0.00  0.00    +0.000 A 
ATOM     13  C   UNL     1       1.839   2.629  18.246  0.00  0.00    +0.000 A 
ATOM     14  C   UNL     1       2.518   3.848  18.473  0.00  0.00    +0.000 A 
ENDROOT
BRANCH   1  16
ATOM     15  O   UNL     1       7.477   5.298  14.571  0.00  0.00    +0.000 OA
ATOM     16  C   UNL     1       7.140   5.752  15.652  0.00  0.00    +0.000 C 
BRANCH  16  17
ATOM     17  O   UNL     1       7.835   6.706  16.304  0.00  0.00    +0.000 OA
ATOM     18  H   UNL     1       8.699   6.433  16.662  0.00  0.00    +0.000 HD
ENDBRANCH  16  17
ENDBRANCH   1  16
BRANCH   8  19
ATOM     19  N   UNL     1       2.165   6.727  20.770  0.00  0.00    +0.000 N 
ATOM     20  H   UNL     1       2.898   6.845  21.472  0.00  0.00    +0.000 HD
BRANCH  19  21
ATOM     21  C   UNL     1       1.476   7.940  20.542  0.00  0.00    +0.000 A 
ATOM     22  C   UNL     1       1.527   8.611  19.311  0.00  0.00    +0.000 A 
ATOM     23  C   UNL     1       0.887   9.839  19.130  0.00  0.00    +0.000 A 
ATOM     24  C   UNL     1       0.195  10.422  20.187  0.00  0.00    +0.000 A 
ATOM     25  C   UNL     1       0.151   9.772  21.420  0.00  0.00    +0.000 A 
ATOM     26 CL   UNL     1      -0.700  10.500  22.728  0.00  0.00    +0.000 Cl
ATOM     27  C   UNL     1       0.792   8.545  21.604  0.00  0.00    +0.000 A 
ENDBRANCH  19  21
ENDBRANCH   8  19
TORSDOF 4
ENDMDL
MODEL 3
REMARK VINA RESULT:      -8.4      3.960      6.701
REMARK  Name = 
REMARK  4 active torsions:
REMARK  status: ('A' for Active; 'I' for Inactive)
REMARK    1  A    between atoms: C_2  and  O_3
REMARK    2  A    between atoms: C_2  and  C_4
REMARK    3  A    between atoms: C_11  and  N_12
REMARK    4  A    between atoms: N_12  and  C_13
REMARK                            x       y       z     vdW  Elec       q    Type
REMARK                         _______ _______ _______ _____ _____    ______ ____
ROOT
ATOM      1  C   UNL     1       5.814   4.598  15.622  0.00  0.00    +0.000 A 
ATOM      2  C   UNL     1       5.226   3.337  15.647  0.00  0.00    +0.000 A 
ATOM      3  C   UNL     1       4.225   3.059  16.580  0.00  0.00    +0.000 A 
ATOM      4  C   UNL     1       3.782   4.040  17.504  0.00  0.00    +0.000 A 
ATOM      5  C   UNL     1       4.386   5.311  17.444  0.00  0.00    +0.000 A 
ATOM      6  C   UNL     1       5.377   5.577  16.514  0.00  0.00    +0.000 A 
ATOM      7  N   UNL     1       4.053   6.305  18.259  0.00  0.00    +0.000 NA
ATOM      8  C   UNL     1       3.093   6.104  19.195  0.00  0.00    +0.000 A 
ATOM      9  C   UNL     1       2.402   4.896  19.355  0.00  0.00    +0.000 A 
ATOM     10  N   UNL     1       1.458   4.765  20.327  0.00  0.00    +0.000 NA
ATOM     11  C   UNL     1       0.836   3.576  20.464  0.00  0.00    +0.000 A 
ATOM     12  C   UNL     1       1.106   2.482  19.674  0.00  0.00    +0.000 A 
ATOM     13  C   UNL     1       2.074   2.617  18.685  0.00  0.00    +0.000 A 
ATOM     14  C   UNL     1       2.762   3.838  18.494  0.00  0.00    +0.000 A 
ENDROOT
BRANCH   1  16
ATOM     15  O   UNL     1       7.767   5.659  14.796  0.00  0.00    +0.000 OA
ATOM     16  C   UNL     1       6.856   4.871  14.605  0.00  0.00    +0.000 C 
BRANCH  16  17
ATOM     17  O   UNL     1       6.671   4.217  13.441  0.00  0.00    +0.000 OA
ATOM     18  H   UNL     1       5.745   4.039  13.196  0.00  0.00    +0.000 HD
ENDBRANCH  16  17
ENDBRANCH   1  16
BRANCH   8  19
ATOM     19  N   UNL     1       2.732   7.203  20.034  0.00  0.00    +0.000 N 
ATOM     20  H   UNL     1       3.597   7.599  20.409  0.00  0.00    +0.000 HD
BRANCH  19  21
ATOM     21  C   UNL     1       1.807   8.218  19.700  0.00  0.00    +0.000 A 
ATOM     22  C   UNL     1       1.673   8.709  18.392  0.00  0.00    +0.000 A 
ATOM     23  C   UNL     1       0.795   9.754  18.099  0.00  0.00    +0.000 A 
ATOM     24  C   UNL     1       0.046  10.334  19.117  0.00  0.00    +0.000 A 
ATOM     25  C   UNL     1       0.182   9.866  20.423  0.00  0.00    +0.000 A 
ATOM     26 CL   UNL     1      -0.742  10.592  21.682  0.00  0.00    +0.000 Cl
ATOM     27  C   UNL     1       1.061   8.822  20.719  0.00  0.00    +0.000 A 
ENDBRANCH  19  21
ENDBRANCH   8  19
TORSDOF 4
ENDMDL
MODEL 4
REMARK VINA RESULT:      -8.4      3.384      6.384
REMARK  Name = 
REMARK  4 active torsions:
REMARK  status: ('A' for Active; 'I' for Inactive)
REMARK    1  A    between atoms: C_2  and  O_3
REMARK    2  A    between atoms: C_2  and  C_4
REMARK    3  A    between atoms: C_11  and  N_12
REMARK    4  A    between atoms: N_12  and  C_13
REMARK                            x       y       z     vdW  Elec       q    Type
REMARK                         _______ _______ _______ _____ _____    ______ ____
ROOT
ATOM      1  C   UNL     1       6.012   5.301  16.560  0.00  0.00    +0.000 A 
ATOM      2  C   UNL     1       5.491   4.094  16.102  0.00  0.00    +0.000 A 
ATOM      3  C   UNL     1       4.355   3.557  16.711  0.00  0.00    +0.000 A 
ATOM      4  C   UNL     1       3.709   4.219  17.787  0.00  0.00    +0.000 A 
ATOM      5  C   UNL     1       4.252   5.445  18.218  0.00  0.00    +0.000 A 
ATOM      6  C   UNL     1       5.379   5.971  17.606  0.00  0.00    +0.000 A 
ATOM      7  N   UNL     1       3.733   6.152  19.215  0.00  0.00    +0.000 NA
ATOM      8  C   UNL     1       2.633   5.686  19.857  0.00  0.00    +0.000 A 
ATOM      9  C   UNL     1       1.984   4.491  19.522  0.00  0.00    +0.000 A 
ATOM     10  N   UNL     1       0.890   4.083  20.222  0.00  0.00    +0.000 NA
ATOM     11  C   UNL     1       0.311   2.911  19.885  0.00  0.00    +0.000 A 
ATOM     12  C   UNL     1       0.769   2.102  18.870  0.00  0.00    +0.000 A 
ATOM     13  C   UNL     1       1.889   2.520  18.161  0.00  0.00    +0.000 A 
ATOM     14  C   UNL     1       2.541   3.737  18.469  0.00  0.00    +0.000 A 
ENDROOT
BRANCH   1  16
ATOM     15  O   UNL     1       7.624   5.411  14.824  0.00  0.00    +0.000 OA
ATOM     16  C   UNL     1       7.203   5.858  15.878  0.00  0.00    +0.000 C 
BRANCH  16  17
ATOM     17  O   UNL     1       7.807   6.857  16.554  0.00  0.00    +0.000 OA
ATOM     18  H   UNL     1       8.446   6.582  17.237  0.00  0.00    +0.000 HD
ENDBRANCH  16  17
ENDBRANCH   1  16
BRANCH   8  19
ATOM     19  N   UNL     1       2.077   6.486  20.902  0.00  0.00    +0.000 N 
ATOM     20  H   UNL     1       2.758   6.511  21.664  0.00  0.00    +0.000 HD
BRANCH  19  21
ATOM     21  C   UNL     1       1.459   7.745  20.728  0.00  0.00    +0.000 A 
ATOM     22  C   UNL     1       0.477   8.225  21.608  0.00  0.00    +0.000 A 
ATOM     23  C   UNL     1      -0.162   9.446  21.381  0.00  0.00    +0.000 A 
ATOM     24  C   UNL     1       0.163  10.199  20.258  0.00  0.00    +0.000 A 
ATOM     25  C   UNL     1       1.126   9.725  19.368  0.00  0.00    +0.000 A 
ATOM     26 CL   UNL     1       1.521  10.657  17.975  0.00  0.00    +0.000 Cl
ATOM     27  C   UNL     1       1.765   8.504  19.592  0.00  0.00    +0.000 A 
ENDBRANCH  19  21
ENDBRANCH   8  19
TORSDOF 4
ENDMDL
MODEL 5
REMARK VINA RESULT:      -8.1      4.235      7.253
REMARK  Name = 
REMARK  4 active torsions:
REMARK  status: ('A' for Active; 'I' for Inactive)
REMARK    1  A    between atoms: C_2  and  O_3
REMARK    2  A    between atoms: C_2  and  C_4
REMARK    3  A    between atoms: C_11  and  N_12
REMARK    4  A    between atoms: N_12  and  C_13
REMARK                            x       y       z     vdW  Elec       q    Type
REMARK                         _______ _______ _______ _____ _____    ______ ____
ROOT
ATOM      1  C   UNL     1       5.764   3.718  13.352  0.00  0.00    +0.000 A 
ATOM      2  C   UNL     1       6.714   4.735  13.367  0.00  0.00    +0.000 A 
ATOM      3  C   UNL     1       7.113   5.289  14.585  0.00  0.00    +0.000 A 
ATOM      4  C   UNL     1       6.578   4.833  15.817  0.00  0.00    +0.000 A 
ATOM      5  C   UNL     1       5.629   3.793  15.769  0.00  0.00    +0.000 A 
ATOM      6  C   UNL     1       5.240   3.249  14.556  0.00  0.00    +0.000 A 
ATOM      7  N   UNL     1       5.060   3.288  16.857  0.00  0.00    +0.000 NA
ATOM      8  C   UNL     1       5.396   3.784  18.074  0.00  0.00    +0.000 A 
ATOM      9  C   UNL     1       6.334   4.806  18.266  0.00  0.00    +0.000 A 
ATOM     10  N   UNL     1       6.610   5.260  19.520  0.00  0.00    +0.000 NA
ATOM     11  C   UNL     1       7.500   6.266  19.658  0.00  0.00    +0.000 A 
ATOM     12  C   UNL     1       8.145   6.860  18.598  0.00  0.00    +0.000 A 
ATOM     13  C   UNL     1       7.857   6.397  17.319  0.00  0.00    +0.000 A 
ATOM     14  C   UNL     1       6.931   5.348  17.110  0.00  0.00    +0.000 A 
ENDROOT
BRANCH   1  16
ATOM     15  O   UNL     1       4.430   3.544  11.399  0.00  0.00    +0.000 OA
ATOM     16  C   UNL     1       5.378   3.133  12.047  0.00  0.00    +0.000 C 
BRANCH  16  17
ATOM     17  O   UNL     1       6.129   2.077  11.675  0.00  0.00    +0.000 OA
ATOM     18  H   UNL     1       6.892   1.875  12.248  0.00  0.00    +0.000 HD
ENDBRANCH  16  17
ENDBRANCH   1  16
BRANCH   8  19
ATOM     19  N   UNL     1       4.793   3.196  19.228  0.00  0.00    +0.000 N 
ATOM     20  H   UNL     1       5.477   3.237  19.986  0.00  0.00    +0.000 HD
BRANCH  19  21
ATOM     21  C   UNL     1       3.490   3.471  19.700  0.00  0.00    +0.000 A 
ATOM     22  C   UNL     1       2.499   2.481  19.785  0.00  0.00    +0.000 A 
ATOM     23  C   UNL     1       1.201   2.790  20.198  0.00  0.00    +0.000 A 
ATOM     24  C   UNL     1       0.872   4.103  20.519  0.00  0.00    +0.000 A 
ATOM     25  C   UNL     1       1.843   5.098  20.423  0.00  0.00    +0.000 A 
ATOM     26 CL   UNL     1       1.430   6.723  20.814  0.00  0.00    +0.000 Cl
ATOM     27  C   UNL     1       3.141   4.791  20.009  0.00  0.00    +0.000 A 
ENDBRANCH  19  21
ENDBRANCH   8  19
TORSDOF 4
ENDMDL
MODEL 6
REMARK VINA RESULT:      -7.9      1.456      1.755
REMARK  Name = 
REMARK  4 active torsions:
REMARK  status: ('A' for Active; 'I' for Inactive)
REMARK    1  A    between atoms: C_2  and  O_3
REMARK    2  A    between atoms: C_2  and  C_4
REMARK    3  A    between atoms: C_11  and  N_12
REMARK    4  A    between atoms: N_12  and  C_13
REMARK                            x       y       z     vdW  Elec       q    Type
REMARK                         _______ _______ _______ _____ _____    ______ ____
ROOT
ATOM      1  C   UNL     1       1.234   9.259  19.702  0.00  0.00    +0.000 A 
ATOM      2  C   UNL     1       0.960   8.695  20.945  0.00  0.00    +0.000 A 
ATOM      3  C   UNL     1       1.261   7.351  21.175  0.00  0.00    +0.000 A 
ATOM      4  C   UNL     1       1.851   6.542  20.171  0.00  0.00    +0.000 A 
ATOM      5  C   UNL     1       2.129   7.145  18.928  0.00  0.00    +0.000 A 
ATOM      6  C   UNL     1       1.829   8.480  18.710  0.00  0.00    +0.000 A 
ATOM      7  N   UNL     1       2.679   6.486  17.915  0.00  0.00    +0.000 NA
ATOM      8  C   UNL     1       2.991   5.175  18.066  0.00  0.00    +0.000 A 
ATOM      9  C   UNL     1       2.781   4.456  19.250  0.00  0.00    +0.000 A 
ATOM     10  N   UNL     1       3.109   3.137  19.322  0.00  0.00    +0.000 NA
ATOM     11  C   UNL     1       2.865   2.475  20.472  0.00  0.00    +0.000 A 
ATOM     12  C   UNL     1       2.299   3.062  21.580  0.00  0.00    +0.000 A 
ATOM     13  C   UNL     1       1.961   4.408  21.502  0.00  0.00    +0.000 A 
ATOM     14  C   UNL     1       2.190   5.155  20.322  0.00  0.00    +0.000 A 
ENDROOT
BRANCH   1  16
ATOM     15  O   UNL     1       0.814  11.479  20.421  0.00  0.00    +0.000 OA
ATOM     16  C   UNL     1       0.927  10.693  19.496  0.00  0.00    +0.000 C 
BRANCH  16  17
ATOM     17  O   UNL     1       0.727  11.032  18.206  0.00  0.00    +0.000 OA
ATOM     18  H   UNL     1      -0.171  11.337  17.981  0.00  0.00    +0.000 HD
ENDBRANCH  16  17
ENDBRANCH   1  16
BRANCH   8  19
ATOM     19  N   UNL     1       3.613   4.503  16.970  0.00  0.00    +0.000 N 
ATOM     20  H   UNL     1       2.919   4.427  16.223  0.00  0.00    +0.000 HD
BRANCH  19  21
ATOM     21  C   UNL     1       4.893   4.798  16.450  0.00  0.00    +0.000 A 
ATOM     22  C   UNL     1       5.451   4.080  15.380  0.00  0.00    +0.000 A 
ATOM     23  C   UNL     1       6.743   4.351  14.924  0.00  0.00    +0.000 A 
ATOM     24  C   UNL     1       7.503   5.337  15.543  0.00  0.00    +0.000 A 
ATOM     25  C   UNL     1       6.966   6.046  16.617  0.00  0.00    +0.000 A 
ATOM     26 CL   UNL     1       7.913   7.261  17.386  0.00  0.00    +0.000 Cl
ATOM     27  C   UNL     1       5.676   5.776  17.076  0.00  0.00    +0.000 A 
ENDBRANCH  19  21
ENDBRANCH   8  19
TORSDOF 4
ENDMDL
MODEL 7
REMARK VINA RESULT:      -7.8      4.644      8.079
REMARK  Name = 
REMARK  4 active torsions:
REMARK  status: ('A' for Active; 'I' for Inactive)
REMARK    1  A    between atoms: C_2  and  O_3
REMARK    2  A    between atoms: C_2  and  C_4
REMARK    3  A    between atoms: C_11  and  N_12
REMARK    4  A    between atoms: N_12  and  C_13
REMARK                            x       y       z     vdW  Elec       q    Type
REMARK                         _______ _______ _______ _____ _____    ______ ____
ROOT
ATOM      1  C   UNL     1       2.969   6.894  18.317  0.00  0.00    +0.000 A 
ATOM      2  C   UNL     1       2.910   6.545  19.664  0.00  0.00    +0.000 A 
ATOM      3  C   UNL     1       2.129   7.303  20.539  0.00  0.00    +0.000 A 
ATOM      4  C   UNL     1       1.383   8.421  20.087  0.00  0.00    +0.000 A 
ATOM      5  C   UNL     1       1.453   8.740  18.716  0.00  0.00    +0.000 A 
ATOM      6  C   UNL     1       2.229   7.980  17.855  0.00  0.00    +0.000 A 
ATOM      7  N   UNL     1       0.798   9.764  18.181  0.00  0.00    +0.000 NA
ATOM      8  C   UNL     1       0.027  10.547  18.974  0.00  0.00    +0.000 A 
ATOM      9  C   UNL     1      -0.143  10.336  20.349  0.00  0.00    +0.000 A 
ATOM     10  N   UNL     1      -0.926  11.173  21.083  0.00  0.00    +0.000 NA
ATOM     11  C   UNL     1      -1.040  10.950  22.409  0.00  0.00    +0.000 A 
ATOM     12  C   UNL     1      -0.405   9.920  23.063  0.00  0.00    +0.000 A 
ATOM     13  C   UNL     1       0.398   9.069  22.311  0.00  0.00    +0.000 A 
ATOM     14  C   UNL     1       0.559   9.253  20.918  0.00  0.00    +0.000 A 
ENDROOT
BRANCH   1  16
ATOM     15  O   UNL     1       4.534   6.535  16.572  0.00  0.00    +0.000 OA
ATOM     16  C   UNL     1       3.786   6.057  17.408  0.00  0.00    +0.000 C 
BRANCH  16  17
ATOM     17  O   UNL     1       3.584   4.731  17.551  0.00  0.00    +0.000 OA
ATOM     18  H   UNL     1       3.456   4.417  18.465  0.00  0.00    +0.000 HD
ENDBRANCH  16  17
ENDBRANCH   1  16
BRANCH   8  19
ATOM     19  N   UNL     1      -0.692  11.619  18.363  0.00  0.00    +0.000 N 
ATOM     20  H   UNL     1      -0.052  12.092  17.722  0.00  0.00    +0.000 HD
BRANCH  19  21
ATOM     21  C   UNL     1      -1.990  11.524  17.811  0.00  0.00    +0.000 A 
ATOM     22  C   UNL     1      -3.141  11.852  18.543  0.00  0.00    +0.000 A 
ATOM     23  C   UNL     1      -4.416  11.692  17.996  0.00  0.00    +0.000 A 
ATOM     24  C   UNL     1      -4.557  11.187  16.707  0.00  0.00    +0.000 A 
ATOM     25  C   UNL     1      -3.421  10.843  15.976  0.00  0.00    +0.000 A 
ATOM     26 CL   UNL     1      -3.601  10.211  14.384  0.00  0.00    +0.000 Cl
ATOM     27  C   UNL     1      -2.146  11.000  16.522  0.00  0.00    +0.000 A 
ENDBRANCH  19  21
ENDBRANCH   8  19
TORSDOF 4
ENDMDL
MODEL 8
REMARK VINA RESULT:      -7.6      4.444      7.929
REMARK  Name = 
REMARK  4 active torsions:
REMARK  status: ('A' for Active; 'I' for Inactive)
REMARK    1  A    between atoms: C_2  and  O_3
REMARK    2  A    between atoms: C_2  and  C_4
REMARK    3  A    between atoms: C_11  and  N_12
REMARK    4  A    between atoms: N_12  and  C_13
REMARK                            x       y       z     vdW  Elec       q    Type
REMARK                         _______ _______ _______ _____ _____    ______ ____
ROOT
ATOM      1  C   UNL     1       2.984   6.675  18.365  0.00  0.00    +0.000 A 
ATOM      2  C   UNL     1       2.643   6.256  19.648  0.00  0.00    +0.000 A 
ATOM      3  C   UNL     1       1.893   7.096  20.473  0.00  0.00    +0.000 A 
ATOM      4  C   UNL     1       1.458   8.372  20.031  0.00  0.00    +0.000 A 
ATOM      5  C   UNL     1       1.806   8.761  18.723  0.00  0.00    +0.000 A 
ATOM      6  C   UNL     1       2.549   7.920  17.911  0.00  0.00    +0.000 A 
ATOM      7  N   UNL     1       1.455   9.932  18.203  0.00  0.00    +0.000 NA
ATOM      8  C   UNL     1       0.731  10.801  18.951  0.00  0.00    +0.000 A 
ATOM      9  C   UNL     1       0.306  10.536  20.259  0.00  0.00    +0.000 A 
ATOM     10  N   UNL     1      -0.408  11.465  20.952  0.00  0.00    +0.000 NA
ATOM     11  C   UNL     1      -0.773  11.180  22.220  0.00  0.00    +0.000 A 
ATOM     12  C   UNL     1      -0.461   9.999  22.853  0.00  0.00    +0.000 A 
ATOM     13  C   UNL     1       0.273   9.055  22.144  0.00  0.00    +0.000 A 
ATOM     14  C   UNL     1       0.687   9.297  20.813  0.00  0.00    +0.000 A 
ENDROOT
BRANCH   1  16
ATOM     15  O   UNL     1       4.653   6.137  16.769  0.00  0.00    +0.000 OA
ATOM     16  C   UNL     1       3.759   5.752  17.504  0.00  0.00    +0.000 C 
BRANCH  16  17
ATOM     17  O   UNL     1       3.349   4.469  17.565  0.00  0.00    +0.000 OA
ATOM     18  H   UNL     1       3.791   3.853  16.953  0.00  0.00    +0.000 HD
ENDBRANCH  16  17
ENDBRANCH   1  16
BRANCH   8  19
ATOM     19  N   UNL     1       0.339  12.037  18.351  0.00  0.00    +0.000 N 
ATOM     20  H   UNL     1      -0.664  12.151  18.512  0.00  0.00    +0.000 HD
BRANCH  19  21
ATOM     21  C   UNL     1       1.022  13.266  18.490  0.00  0.00    +0.000 A 
ATOM     22  C   UNL     1       0.362  14.455  18.840  0.00  0.00    +0.000 A 
ATOM     23  C   UNL     1       1.049  15.669  18.911  0.00  0.00    +0.000 A 
ATOM     24  C   UNL     1       2.409  15.713  18.619  0.00  0.00    +0.000 A 
ATOM     25  C   UNL     1       3.072  14.542  18.255  0.00  0.00    +0.000 A 
ATOM     26 CL   UNL     1       4.752  14.602  17.886  0.00  0.00    +0.000 Cl
ATOM     27  C   UNL     1       2.386  13.327  18.181  0.00  0.00    +0.000 A 
ENDBRANCH  19  21
ENDBRANCH   8  19
TORSDOF 4
ENDMDL
MODEL 9
REMARK VINA RESULT:      -7.5      5.088      8.354
REMARK  Name = 
REMARK  4 active torsions:
REMARK  status: ('A' for Active; 'I' for Inactive)
REMARK    1  A    between atoms: C_2  and  O_3
REMARK    2  A    between atoms: C_2  and  C_4
REMARK    3  A    between atoms: C_11  and  N_12
REMARK    4  A    between atoms: N_12  and  C_13
REMARK                            x       y       z     vdW  Elec       q    Type
REMARK                         _______ _______ _______ _____ _____    ______ ____
ROOT
ATOM      1  C   UNL     1       2.998   6.647  18.286  0.00  0.00    +0.000 A 
ATOM      2  C   UNL     1       2.953   6.334  19.641  0.00  0.00    +0.000 A 
ATOM      3  C   UNL     1       2.192   7.121  20.507  0.00  0.00    +0.000 A 
ATOM      4  C   UNL     1       1.449   8.234  20.036  0.00  0.00    +0.000 A 
ATOM      5  C   UNL     1       1.503   8.516  18.657  0.00  0.00    +0.000 A 
ATOM      6  C   UNL     1       2.261   7.728  17.806  0.00  0.00    +0.000 A 
ATOM      7  N   UNL     1       0.851   9.532  18.105  0.00  0.00    +0.000 NA
ATOM      8  C   UNL     1       0.097  10.343  18.887  0.00  0.00    +0.000 A 
ATOM      9  C   UNL     1      -0.056  10.168  20.269  0.00  0.00    +0.000 A 
ATOM     10  N   UNL     1      -0.821  11.032  20.991  0.00  0.00    +0.000 NA
ATOM     11  C   UNL     1      -0.920  10.844  22.324  0.00  0.00    +0.000 A 
ATOM     12  C   UNL     1      -0.285   9.824  22.996  0.00  0.00    +0.000 A 
ATOM     13  C   UNL     1       0.500   8.947  22.256  0.00  0.00    +0.000 A 
ATOM     14  C   UNL     1       0.644   9.094  20.856  0.00  0.00    +0.000 A 
ENDROOT
BRANCH   1  16
ATOM     15  O   UNL     1       4.670   6.218  16.660  0.00  0.00    +0.000 OA
ATOM     16  C   UNL     1       3.795   5.780  17.388  0.00  0.00    +0.000 C 
BRANCH  16  17
ATOM     17  O   UNL     1       3.427   4.483  17.407  0.00  0.00    +0.000 OA
ATOM     18  H   UNL     1       3.126   4.139  18.269  0.00  0.00    +0.000 HD
ENDBRANCH  16  17
ENDBRANCH   1  16
BRANCH   8  19
ATOM     19  N   UNL     1      -0.621  11.405  18.258  0.00  0.00    +0.000 N 
ATOM     20  H   UNL     1       0.005  11.836  17.575  0.00  0.00    +0.000 HD
BRANCH  19  21
ATOM     21  C   UNL     1      -1.940  11.319  17.759  0.00  0.00    +0.000 A 
ATOM     22  C   UNL     1      -2.223  10.846  16.469  0.00  0.00    +0.000 A 
ATOM     23  C   UNL     1      -3.530  10.827  15.976  0.00  0.00    +0.000 A 
ATOM     24  C   UNL     1      -4.574  11.296  16.767  0.00  0.00    +0.000 A 
ATOM     25  C   UNL     1      -4.303  11.784  18.045  0.00  0.00    +0.000 A 
ATOM     26 CL   UNL     1      -5.597  12.370  19.017  0.00  0.00    +0.000 Cl
ATOM     27  C   UNL     1      -2.997  11.805  18.538  0.00  0.00    +0.000 A 
ENDBRANCH  19  21
ENDBRANCH   8  19
TORSDOF 4
ENDMDL
