MODEL 1
REMARK VINA RESULT:      -7.3      0.000      0.000
REMARK  Name = 
REMARK  5 active torsions:
REMARK  status: ('A' for Active; 'I' for Inactive)
REMARK    1  A    between atoms: C_1  and  C_2
REMARK    2  A    between atoms: C_2  and  C_3
REMARK    3  A    between atoms: C_2  and  N_18
REMARK    4  A    between atoms: N_18  and  C_19
REMARK    5  A    between atoms: N_18  and  C_20
REMARK                            x       y       z     vdW  Elec       q    Type
REMARK                         _______ _______ _______ _____ _____    ______ ____
ROOT
ATOM      1  C   UNL     1       2.409   7.052  18.829  0.00  0.00    +0.000 A 
ATOM      2  C   UNL     1       2.055   8.043  17.903  0.00  0.00    +0.000 A 
ATOM      3  C   UNL     1       1.406   9.211  18.316  0.00  0.00    +0.000 A 
ATOM      4  C   UNL     1       1.083   9.416  19.676  0.00  0.00    +0.000 A 
ATOM      5  C   UNL     1       1.440   8.410  20.609  0.00  0.00    +0.000 A 
ATOM      6  C   UNL     1       2.095   7.246  20.184  0.00  0.00    +0.000 A 
ATOM      7  O   UNL     1       1.156   8.550  21.898  0.00  0.00    +0.000 OA
ATOM      8  C   UNL     1       0.534   9.610  22.396  0.00  0.00    +0.000 A 
ATOM      9  O   UNL     1       0.313   9.654  23.595  0.00  0.00    +0.000 OA
ATOM     10  C   UNL     1       0.138  10.665  21.553  0.00  0.00    +0.000 A 
ATOM     11  C   UNL     1      -0.525  11.799  22.068  0.00  0.00    +0.000 A 
ATOM     12  C   UNL     1      -0.911  12.836  21.219  0.00  0.00    +0.000 A 
ATOM     13  C   UNL     1      -0.645  12.757  19.856  0.00  0.00    +0.000 A 
ATOM     14  C   UNL     1       0.010  11.643  19.327  0.00  0.00    +0.000 A 
ATOM     15  C   UNL     1       0.415  10.573  20.163  0.00  0.00    +0.000 A 
ENDROOT
BRANCH   1  17
ATOM     16  C   UNL     1       2.029   4.784  17.862  0.00  0.00    +0.000 C 
ATOM     17  C   UNL     1       3.101   5.771  18.370  0.00  0.00    +0.000 C 
BRANCH  17  18
ATOM     18  N   UNL     1       3.920   5.190  19.475  0.00  0.00    +0.000 NA
ATOM     19  C   UNL     1       3.598   3.769  19.720  0.00  0.00    +0.000 C 
ATOM     20  C   UNL     1       5.364   5.296  19.180  0.00  0.00    +0.000 C 
ENDBRANCH  17  18
ENDBRANCH   1  17
TORSDOF 2
ENDMDL
MODEL 2
REMARK VINA RESULT:      -7.2      1.720      2.588
REMARK  Name = 
REMARK  5 active torsions:
REMARK  status: ('A' for Active; 'I' for Inactive)
REMARK    1  A    between atoms: C_1  and  C_2
REMARK    2  A    between atoms: C_2  and  C_3
REMARK    3  A    between atoms: C_2  and  N_18
REMARK    4  A    between atoms: N_18  and  C_19
REMARK    5  A    between atoms: N_18  and  C_20
REMARK                            x       y       z     vdW  Elec       q    Type
REMARK                         _______ _______ _______ _____ _____    ______ ____
ROOT
ATOM      1  C   UNL     1       2.670   6.883  18.681  0.00  0.00    +0.000 A 
ATOM      2  C   UNL     1       2.274   6.483  19.965  0.00  0.00    +0.000 A 
ATOM      3  C   UNL     1       1.533   7.339  20.786  0.00  0.00    +0.000 A 
ATOM      4  C   UNL     1       1.171   8.631  20.343  0.00  0.00    +0.000 A 
ATOM      5  C   UNL     1       1.574   9.033  19.045  0.00  0.00    +0.000 A 
ATOM      6  C   UNL     1       2.313   8.164  18.229  0.00  0.00    +0.000 A 
ATOM      7  O   UNL     1       1.265  10.237  18.582  0.00  0.00    +0.000 OA
ATOM      8  C   UNL     1       0.575  11.131  19.278  0.00  0.00    +0.000 A 
ATOM      9  O   UNL     1       0.337  12.215  18.773  0.00  0.00    +0.000 OA
ATOM     10  C   UNL     1       0.128  10.830  20.578  0.00  0.00    +0.000 A 
ATOM     11  C   UNL     1      -0.606  11.769  21.331  0.00  0.00    +0.000 A 
ATOM     12  C   UNL     1      -1.043  11.455  22.618  0.00  0.00    +0.000 A 
ATOM     13  C   UNL     1      -0.756  10.210  23.167  0.00  0.00    +0.000 A 
ATOM     14  C   UNL     1      -0.030   9.266  22.438  0.00  0.00    +0.000 A 
ATOM     15  C   UNL     1       0.428   9.555  21.128  0.00  0.00    +0.000 A 
ENDROOT
BRANCH   1  17
ATOM     16  C   UNL     1       2.796   4.578  17.737  0.00  0.00    +0.000 C 
ATOM     17  C   UNL     1       3.495   5.952  17.796  0.00  0.00    +0.000 C 
BRANCH  17  18
ATOM     18  N   UNL     1       4.895   5.848  18.303  0.00  0.00    +0.000 NA
ATOM     19  C   UNL     1       5.245   4.468  18.697  0.00  0.00    +0.000 C 
ATOM     20  C   UNL     1       5.865   6.301  17.284  0.00  0.00    +0.000 C 
ENDBRANCH  17  18
ENDBRANCH   1  17
TORSDOF 2
ENDMDL
MODEL 3
REMARK VINA RESULT:      -7.2      2.424      6.785
REMARK  Name = 
REMARK  5 active torsions:
REMARK  status: ('A' for Active; 'I' for Inactive)
REMARK    1  A    between atoms: C_1  and  C_2
REMARK    2  A    between atoms: C_2  and  C_3
REMARK    3  A    between atoms: C_2  and  N_18
REMARK    4  A    between atoms: N_18  and  C_19
REMARK    5  A    between atoms: N_18  and  C_20
REMARK                            x       y       z     vdW  Elec       q    Type
REMARK                         _______ _______ _______ _____ _____    ______ ____
ROOT
ATOM      1  C   UNL     1       1.542   8.540  19.791  0.00  0.00    +0.000 A 
ATOM      2  C   UNL     1       2.019   8.271  18.500  0.00  0.00    +0.000 A 
ATOM      3  C   UNL     1       2.436   6.985  18.143  0.00  0.00    +0.000 A 
ATOM      4  C   UNL     1       2.393   5.926  19.079  0.00  0.00    +0.000 A 
ATOM      5  C   UNL     1       1.913   6.203  20.383  0.00  0.00    +0.000 A 
ATOM      6  C   UNL     1       1.493   7.496  20.727  0.00  0.00    +0.000 A 
ATOM      7  O   UNL     1       1.857   5.247  21.302  0.00  0.00    +0.000 OA
ATOM      8  C   UNL     1       2.236   3.996  21.075  0.00  0.00    +0.000 A 
ATOM      9  O   UNL     1       2.150   3.182  21.979  0.00  0.00    +0.000 OA
ATOM     10  C   UNL     1       2.727   3.618  19.812  0.00  0.00    +0.000 A 
ATOM     11  C   UNL     1       3.135   2.292  19.556  0.00  0.00    +0.000 A 
ATOM     12  C   UNL     1       3.619   1.934  18.298  0.00  0.00    +0.000 A 
ATOM     13  C   UNL     1       3.705   2.885  17.287  0.00  0.00    +0.000 A 
ATOM     14  C   UNL     1       3.307   4.203  17.521  0.00  0.00    +0.000 A 
ATOM     15  C   UNL     1       2.810   4.598  18.787  0.00  0.00    +0.000 A 
ENDROOT
BRANCH   1  17
ATOM     16  C   UNL     1       0.055   9.850  21.306  0.00  0.00    +0.000 C 
ATOM     17  C   UNL     1       1.106   9.951  20.180  0.00  0.00    +0.000 C 
BRANCH  17  18
ATOM     18  N   UNL     1       0.585  10.688  18.991  0.00  0.00    +0.000 NA
ATOM     19  C   UNL     1      -0.891  10.682  18.933  0.00  0.00    +0.000 C 
ATOM     20  C   UNL     1       1.044  12.092  18.993  0.00  0.00    +0.000 C 
ENDBRANCH  17  18
ENDBRANCH   1  17
TORSDOF 2
ENDMDL
MODEL 4
REMARK VINA RESULT:      -7.0      2.318      6.603
REMARK  Name = 
REMARK  5 active torsions:
REMARK  status: ('A' for Active; 'I' for Inactive)
REMARK    1  A    between atoms: C_1  and  C_2
REMARK    2  A    between atoms: C_2  and  C_3
REMARK    3  A    between atoms: C_2  and  N_18
REMARK    4  A    between atoms: N_18  and  C_19
REMARK    5  A    between atoms: N_18  and  C_20
REMARK                            x       y       z     vdW  Elec       q    Type
REMARK                         _______ _______ _______ _____ _____    ______ ____
ROOT
ATOM      1  C   UNL     1       1.373   9.397  19.313  0.00  0.00    +0.000 A 
ATOM      2  C   UNL     1       2.005   9.162  18.084  0.00  0.00    +0.000 A 
ATOM      3  C   UNL     1       2.563   7.914  17.792  0.00  0.00    +0.000 A 
ATOM      4  C   UNL     1       2.510   6.860  18.733  0.00  0.00    +0.000 A 
ATOM      5  C   UNL     1       1.872   7.103  19.975  0.00  0.00    +0.000 A 
ATOM      6  C   UNL     1       1.312   8.357  20.254  0.00  0.00    +0.000 A 
ATOM      7  O   UNL     1       1.799   6.150  20.896  0.00  0.00    +0.000 OA
ATOM      8  C   UNL     1       2.302   4.934  20.729  0.00  0.00    +0.000 A 
ATOM      9  O   UNL     1       2.189   4.121  21.630  0.00  0.00    +0.000 OA
ATOM     10  C   UNL     1       2.955   4.593  19.530  0.00  0.00    +0.000 A 
ATOM     11  C   UNL     1       3.496   3.305  19.337  0.00  0.00    +0.000 A 
ATOM     12  C   UNL     1       4.140   2.981  18.143  0.00  0.00    +0.000 A 
ATOM     13  C   UNL     1       4.253   3.931  17.133  0.00  0.00    +0.000 A 
ATOM     14  C   UNL     1       3.724   5.212  17.304  0.00  0.00    +0.000 A 
ATOM     15  C   UNL     1       3.065   5.571  18.506  0.00  0.00    +0.000 A 
ENDROOT
BRANCH   1  17
ATOM     16  C   UNL     1       0.110  10.704  21.022  0.00  0.00    +0.000 C 
ATOM     17  C   UNL     1       0.782  10.768  19.634  0.00  0.00    +0.000 C 
BRANCH  17  18
ATOM     18  N   UNL     1      -0.171  11.193  18.567  0.00  0.00    +0.000 NA
ATOM     19  C   UNL     1      -1.467  10.491  18.665  0.00  0.00    +0.000 C 
ATOM     20  C   UNL     1      -0.425  12.647  18.630  0.00  0.00    +0.000 C 
ENDBRANCH  17  18
ENDBRANCH   1  17
TORSDOF 2
ENDMDL
MODEL 5
REMARK VINA RESULT:      -7.0      0.831      1.025
REMARK  Name = 
REMARK  5 active torsions:
REMARK  status: ('A' for Active; 'I' for Inactive)
REMARK    1  A    between atoms: C_1  and  C_2
REMARK    2  A    between atoms: C_2  and  C_3
REMARK    3  A    between atoms: C_2  and  N_18
REMARK    4  A    between atoms: N_18  and  C_19
REMARK    5  A    between atoms: N_18  and  C_20
REMARK                            x       y       z     vdW  Elec       q    Type
REMARK                         _______ _______ _______ _____ _____    ______ ____
ROOT
ATOM      1  C   UNL     1       2.283   7.377  18.682  0.00  0.00    +0.000 A 
ATOM      2  C   UNL     1       1.843   8.411  17.845  0.00  0.00    +0.000 A 
ATOM      3  C   UNL     1       1.169   9.519  18.366  0.00  0.00    +0.000 A 
ATOM      4  C   UNL     1       0.907   9.619  19.752  0.00  0.00    +0.000 A 
ATOM      5  C   UNL     1       1.351   8.570  20.595  0.00  0.00    +0.000 A 
ATOM      6  C   UNL     1       2.031   7.467  20.061  0.00  0.00    +0.000 A 
ATOM      7  O   UNL     1       1.127   8.612  21.903  0.00  0.00    +0.000 OA
ATOM      8  C   UNL     1       0.489   9.609  22.502  0.00  0.00    +0.000 A 
ATOM      9  O   UNL     1       0.328   9.563  23.710  0.00  0.00    +0.000 OA
ATOM     10  C   UNL     1       0.009  10.699  21.753  0.00  0.00    +0.000 A 
ATOM     11  C   UNL     1      -0.672  11.766  22.375  0.00  0.00    +0.000 A 
ATOM     12  C   UNL     1      -1.142  12.839  21.619  0.00  0.00    +0.000 A 
ATOM     13  C   UNL     1      -0.942  12.863  20.242  0.00  0.00    +0.000 A 
ATOM     14  C   UNL     1      -0.271  11.815  19.607  0.00  0.00    +0.000 A 
ATOM     15  C   UNL     1       0.219  10.711  20.348  0.00  0.00    +0.000 A 
ENDROOT
BRANCH   1  17
ATOM     16  C   UNL     1       2.648   4.924  18.959  0.00  0.00    +0.000 C 
ATOM     17  C   UNL     1       3.002   6.160  18.104  0.00  0.00    +0.000 C 
BRANCH  17  18
ATOM     18  N   UNL     1       4.474   6.399  18.045  0.00  0.00    +0.000 NA
ATOM     19  C   UNL     1       5.231   5.423  18.857  0.00  0.00    +0.000 C 
ATOM     20  C   UNL     1       4.969   6.328  16.654  0.00  0.00    +0.000 C 
ENDBRANCH  17  18
ENDBRANCH   1  17
TORSDOF 2
ENDMDL
MODEL 6
REMARK VINA RESULT:      -7.0      0.912      1.358
REMARK  Name = 
REMARK  5 active torsions:
REMARK  status: ('A' for Active; 'I' for Inactive)
REMARK    1  A    between atoms: C_1  and  C_2
REMARK    2  A    between atoms: C_2  and  C_3
REMARK    3  A    between atoms: C_2  and  N_18
REMARK    4  A    between atoms: N_18  and  C_19
REMARK    5  A    between atoms: N_18  and  C_20
REMARK                            x       y       z     vdW  Elec       q    Type
REMARK                         _______ _______ _______ _____ _____    ______ ____
ROOT
ATOM      1  C   UNL     1       2.493   6.973  18.959  0.00  0.00    +0.000 A 
ATOM      2  C   UNL     1       2.119   7.898  17.974  0.00  0.00    +0.000 A 
ATOM      3  C   UNL     1       1.423   9.063  18.311  0.00  0.00    +0.000 A 
ATOM      4  C   UNL     1       1.073   9.333  19.653  0.00  0.00    +0.000 A 
ATOM      5  C   UNL     1       1.452   8.395  20.646  0.00  0.00    +0.000 A 
ATOM      6  C   UNL     1       2.153   7.233  20.296  0.00  0.00    +0.000 A 
ATOM      7  O   UNL     1       1.144   8.597  21.921  0.00  0.00    +0.000 OA
ATOM      8  C   UNL     1       0.479   9.661  22.351  0.00  0.00    +0.000 A 
ATOM      9  O   UNL     1       0.239   9.764  23.542  0.00  0.00    +0.000 OA
ATOM     10  C   UNL     1       0.059  10.651  21.445  0.00  0.00    +0.000 A 
ATOM     11  C   UNL     1      -0.650  11.788  21.885  0.00  0.00    +0.000 A 
ATOM     12  C   UNL     1      -1.060  12.762  20.974  0.00  0.00    +0.000 A 
ATOM     13  C   UNL     1      -0.771  12.616  19.621  0.00  0.00    +0.000 A 
ATOM     14  C   UNL     1      -0.071  11.497  19.164  0.00  0.00    +0.000 A 
ATOM     15  C   UNL     1       0.359  10.491  20.065  0.00  0.00    +0.000 A 
ENDROOT
BRANCH   1  17
ATOM     16  C   UNL     1       4.426   6.063  17.671  0.00  0.00    +0.000 C 
ATOM     17  C   UNL     1       3.236   5.694  18.582  0.00  0.00    +0.000 C 
BRANCH  17  18
ATOM     18  N   UNL     1       2.311   4.720  17.931  0.00  0.00    +0.000 NA
ATOM     19  C   UNL     1       3.037   3.695  17.154  0.00  0.00    +0.000 C 
ATOM     20  C   UNL     1       1.470   4.034  18.933  0.00  0.00    +0.000 C 
ENDBRANCH  17  18
ENDBRANCH   1  17
TORSDOF 2
ENDMDL
MODEL 7
REMARK VINA RESULT:      -6.9      2.689      6.794
REMARK  Name = 
REMARK  5 active torsions:
REMARK  status: ('A' for Active; 'I' for Inactive)
REMARK    1  A    between atoms: C_1  and  C_2
REMARK    2  A    between atoms: C_2  and  C_3
REMARK    3  A    between atoms: C_2  and  N_18
REMARK    4  A    between atoms: N_18  and  C_19
REMARK    5  A    between atoms: N_18  and  C_20
REMARK                            x       y       z     vdW  Elec       q    Type
REMARK                         _______ _______ _______ _____ _____    ______ ____
ROOT
ATOM      1  C   UNL     1       1.354   8.513  19.506  0.00  0.00    +0.000 A 
ATOM      2  C   UNL     1       1.850   8.974  18.278  0.00  0.00    +0.000 A 
ATOM      3  C   UNL     1       2.801   8.236  17.566  0.00  0.00    +0.000 A 
ATOM      4  C   UNL     1       3.292   7.011  18.072  0.00  0.00    +0.000 A 
ATOM      5  C   UNL     1       2.790   6.549  19.314  0.00  0.00    +0.000 A 
ATOM      6  C   UNL     1       1.833   7.296  20.016  0.00  0.00    +0.000 A 
ATOM      7  O   UNL     1       3.220   5.408  19.837  0.00  0.00    +0.000 OA
ATOM      8  C   UNL     1       4.126   4.635  19.253  0.00  0.00    +0.000 A 
ATOM      9  O   UNL     1       4.464   3.602  19.807  0.00  0.00    +0.000 OA
ATOM     10  C   UNL     1       4.687   5.004  18.017  0.00  0.00    +0.000 A 
ATOM     11  C   UNL     1       5.652   4.194  17.384  0.00  0.00    +0.000 A 
ATOM     12  C   UNL     1       6.197   4.573  16.157  0.00  0.00    +0.000 A 
ATOM     13  C   UNL     1       5.792   5.757  15.550  0.00  0.00    +0.000 A 
ATOM     14  C   UNL     1       4.838   6.574  16.161  0.00  0.00    +0.000 A 
ATOM     15  C   UNL     1       4.265   6.216  17.407  0.00  0.00    +0.000 A 
ENDROOT
BRANCH   1  17
ATOM     16  C   UNL     1      -0.402  10.274  19.307  0.00  0.00    +0.000 C 
ATOM     17  C   UNL     1       0.330   9.332  20.287  0.00  0.00    +0.000 C 
BRANCH  17  18
ATOM     18  N   UNL     1       0.990  10.079  21.397  0.00  0.00    +0.000 NA
ATOM     19  C   UNL     1       0.715  11.529  21.335  0.00  0.00    +0.000 C 
ATOM     20  C   UNL     1       0.543   9.579  22.714  0.00  0.00    +0.000 C 
ENDBRANCH  17  18
ENDBRANCH   1  17
TORSDOF 2
ENDMDL
MODEL 8
REMARK VINA RESULT:      -6.9      4.808      7.993
REMARK  Name = 
REMARK  5 active torsions:
REMARK  status: ('A' for Active; 'I' for Inactive)
REMARK    1  A    between atoms: C_1  and  C_2
REMARK    2  A    between atoms: C_2  and  C_3
REMARK    3  A    between atoms: C_2  and  N_18
REMARK    4  A    between atoms: N_18  and  C_19
REMARK    5  A    between atoms: N_18  and  C_20
REMARK                            x       y       z     vdW  Elec       q    Type
REMARK                         _______ _______ _______ _____ _____    ______ ____
ROOT
ATOM      1  C   UNL     1       2.868   4.359  18.857  0.00  0.00    +0.000 A 
ATOM      2  C   UNL     1       2.577   3.558  17.744  0.00  0.00    +0.000 A 
ATOM      3  C   UNL     1       3.409   3.563  16.620  0.00  0.00    +0.000 A 
ATOM      4  C   UNL     1       4.561   4.381  16.577  0.00  0.00    +0.000 A 
ATOM      5  C   UNL     1       4.850   5.191  17.704  0.00  0.00    +0.000 A 
ATOM      6  C   UNL     1       4.011   5.174  18.826  0.00  0.00    +0.000 A 
ATOM      7  O   UNL     1       5.916   5.982  17.713  0.00  0.00    +0.000 OA
ATOM      8  C   UNL     1       6.766   6.072  16.699  0.00  0.00    +0.000 A 
ATOM      9  O   UNL     1       7.719   6.827  16.795  0.00  0.00    +0.000 OA
ATOM     10  C   UNL     1       6.568   5.309  15.534  0.00  0.00    +0.000 A 
ATOM     11  C   UNL     1       7.462   5.394  14.447  0.00  0.00    +0.000 A 
ATOM     12  C   UNL     1       7.252   4.630  13.299  0.00  0.00    +0.000 A 
ATOM     13  C   UNL     1       6.155   3.778  13.219  0.00  0.00    +0.000 A 
ATOM     14  C   UNL     1       5.258   3.680  14.285  0.00  0.00    +0.000 A 
ATOM     15  C   UNL     1       5.444   4.443  15.464  0.00  0.00    +0.000 A 
ENDROOT
BRANCH   1  17
ATOM     16  C   UNL     1       1.780   5.819  20.562  0.00  0.00    +0.000 C 
ATOM     17  C   UNL     1       1.945   4.364  20.074  0.00  0.00    +0.000 C 
BRANCH  17  18
ATOM     18  N   UNL     1       2.479   3.470  21.143  0.00  0.00    +0.000 NA
ATOM     19  C   UNL     1       1.413   2.684  21.796  0.00  0.00    +0.000 C 
ATOM     20  C   UNL     1       3.482   2.531  20.599  0.00  0.00    +0.000 C 
ENDBRANCH  17  18
ENDBRANCH   1  17
TORSDOF 2
ENDMDL
MODEL 9
REMARK VINA RESULT:      -6.9      2.918      6.946
REMARK  Name = 
REMARK  5 active torsions:
REMARK  status: ('A' for Active; 'I' for Inactive)
REMARK    1  A    between atoms: C_1  and  C_2
REMARK    2  A    between atoms: C_2  and  C_3
REMARK    3  A    between atoms: C_2  and  N_18
REMARK    4  A    between atoms: N_18  and  C_19
REMARK    5  A    between atoms: N_18  and  C_20
REMARK                            x       y       z     vdW  Elec       q    Type
REMARK                         _______ _______ _______ _____ _____    ______ ____
ROOT
ATOM      1  C   UNL     1       1.743   8.490  19.652  0.00  0.00    +0.000 A 
ATOM      2  C   UNL     1       2.235   8.975  18.433  0.00  0.00    +0.000 A 
ATOM      3  C   UNL     1       3.047   8.179  17.620  0.00  0.00    +0.000 A 
ATOM      4  C   UNL     1       3.397   6.866  18.011  0.00  0.00    +0.000 A 
ATOM      5  C   UNL     1       2.898   6.380  19.246  0.00  0.00    +0.000 A 
ATOM      6  C   UNL     1       2.081   7.187  20.050  0.00  0.00    +0.000 A 
ATOM      7  O   UNL     1       3.200   5.157  19.663  0.00  0.00    +0.000 OA
ATOM      8  C   UNL     1       3.969   4.322  18.977  0.00  0.00    +0.000 A 
ATOM      9  O   UNL     1       4.194   3.215  19.439  0.00  0.00    +0.000 OA
ATOM     10  C   UNL     1       4.513   4.708  17.739  0.00  0.00    +0.000 A 
ATOM     11  C   UNL     1       5.333   3.832  16.998  0.00  0.00    +0.000 A 
ATOM     12  C   UNL     1       5.864   4.230  15.771  0.00  0.00    +0.000 A 
ATOM     13  C   UNL     1       5.588   5.499  15.271  0.00  0.00    +0.000 A 
ATOM     14  C   UNL     1       4.780   6.382  15.990  0.00  0.00    +0.000 A 
ATOM     15  C   UNL     1       4.225   6.006  17.239  0.00  0.00    +0.000 A 
ENDROOT
BRANCH   1  17
ATOM     16  C   UNL     1      -0.260   8.506  21.140  0.00  0.00    +0.000 C 
ATOM     17  C   UNL     1       0.872   9.371  20.545  0.00  0.00    +0.000 C 
BRANCH  17  18
ATOM     18  N   UNL     1       0.344  10.538  19.779  0.00  0.00    +0.000 NA
ATOM     19  C   UNL     1      -1.090  10.390  19.456  0.00  0.00    +0.000 C 
ATOM     20  C   UNL     1       0.523  11.795  20.535  0.00  0.00    +0.000 C 
ENDBRANCH  17  18
ENDBRANCH   1  17
TORSDOF 2
ENDMDL
