MODEL 1
REMARK VINA RESULT:      -5.7      0.000      0.000
REMARK  Name = 
REMARK  20 active torsions:
REMARK  status: ('A' for Active; 'I' for Inactive)
REMARK    1  A    between atoms: C_1  and  C_2
REMARK    2  A    between atoms: C_2  and  C_3
REMARK    3  A    between atoms: C_4  and  C_5
REMARK    4  A    between atoms: C_5  and  C_6
REMARK    5  A    between atoms: C_6  and  C_7
REMARK    6  A    between atoms: C_7  and  C_8
REMARK    7  A    between atoms: C_9  and  C_10
REMARK    8  A    between atoms: C_10  and  N_11
REMARK    9  A    between atoms: N_11  and  C_12
REMARK   10  A    between atoms: C_12  and  C_13
REMARK   11  A    between atoms: C_13  and  C_14
REMARK   12  A    between atoms: C_14  and  N_15
REMARK   13  A    between atoms: N_15  and  C_16
REMARK   14  A    between atoms: N_15  and  C_20
REMARK   15  A    between atoms: C_16  and  C_17
REMARK   16  A    between atoms: C_17  and  C_18
REMARK   17  A    between atoms: C_18  and  N_19
REMARK   18  A    between atoms: C_20  and  C_21
REMARK   19  A    between atoms: C_21  and  C_22
REMARK   20  A    between atoms: C_22  and  N_23
REMARK                            x       y       z     vdW  Elec       q    Type
REMARK                         _______ _______ _______ _____ _____    ______ ____
ROOT
ATOM      1  C   UNL     1       4.056   4.574  16.980  0.00  0.00    +0.000 C 
ENDROOT
BRANCH   1   2
ATOM      2  C   UNL     1       4.707   5.964  17.011  0.00  0.00    +0.000 C 
BRANCH   2   3
ATOM      3  N   UNL     1       5.960   6.131  16.227  0.00  0.00    +0.000 NA
BRANCH   3   4
ATOM      4  C   UNL     1       5.813   5.467  14.909  0.00  0.00    +0.000 C 
BRANCH   4   5
ATOM      5  C   UNL     1       7.045   4.689  14.415  0.00  0.00    +0.000 C 
BRANCH   5   6
ATOM      6  C   UNL     1       7.571   5.214  13.079  0.00  0.00    +0.000 C 
BRANCH   6   7
ATOM      7  N   UNL     1       8.850   5.892  13.274  0.00  0.00    +0.000 NA
ATOM      8  H   UNL     1       9.329   5.495  14.082  0.00  0.00    +0.000 HD
ATOM      9  H   UNL     1       8.681   6.873  13.490  0.00  0.00    +0.000 HD
ENDBRANCH   6   7
ENDBRANCH   5   6
ENDBRANCH   4   5
ENDBRANCH   3   4
BRANCH   3  10
ATOM     10  C   UNL     1       7.113   5.577  16.974  0.00  0.00    +0.000 C 
BRANCH  10  11
ATOM     11  C   UNL     1       7.462   6.229  18.325  0.00  0.00    +0.000 C 
BRANCH  11  12
ATOM     12  C   UNL     1       8.169   7.577  18.196  0.00  0.00    +0.000 C 
BRANCH  12  13
ATOM     13  N   UNL     1       7.386   8.465  17.335  0.00  0.00    +0.000 NA
ATOM     14  H   UNL     1       7.011   7.940  16.546  0.00  0.00    +0.000 HD
ATOM     15  H   UNL     1       7.997   9.178  16.939  0.00  0.00    +0.000 HD
ENDBRANCH  12  13
ENDBRANCH  11  12
ENDBRANCH  10  11
ENDBRANCH   3  10
ENDBRANCH   2   3
ENDBRANCH   1   2
BRANCH   1  16
ATOM     16  C   UNL     1       4.602   3.582  18.007  0.00  0.00    +0.000 C 
BRANCH  16  17
ATOM     17  N   UNL     1       4.067   2.232  17.798  0.00  0.00    +0.000 NA
ATOM     18  H   UNL     1       3.265   2.290  17.167  0.00  0.00    +0.000 HD
BRANCH  17  19
ATOM     19  C   UNL     1       3.598   1.679  19.063  0.00  0.00    +0.000 C 
BRANCH  19  22
ATOM     20  C   UNL     1       1.675   3.200  19.737  0.00  0.00    +0.000 C 
ATOM     21  C   UNL     1       0.763   2.572  18.714  0.00  0.00    +0.000 C 
ATOM     22  C   UNL     1       2.943   2.754  19.882  0.00  0.00    +0.000 C 
BRANCH  20  23
ATOM     23  C   UNL     1       1.177   4.322  20.637  0.00  0.00    +0.000 C 
BRANCH  23  24
ATOM     24  C   UNL     1       2.139   5.498  20.820  0.00  0.00    +0.000 C 
BRANCH  24  28
ATOM     25  C   UNL     1       2.119   8.328  18.142  0.00  0.00    +0.000 C 
ATOM     26  C   UNL     1       1.996   7.634  19.470  0.00  0.00    +0.000 C 
ATOM     27  C   UNL     1       1.486   8.445  20.629  0.00  0.00    +0.000 C 
ATOM     28  C   UNL     1       2.335   6.335  19.586  0.00  0.00    +0.000 C 
ENDBRANCH  24  28
ENDBRANCH  23  24
ENDBRANCH  20  23
ENDBRANCH  19  22
ENDBRANCH  17  19
ENDBRANCH  16  17
ENDBRANCH   1  16
TORSDOF 17
ENDMDL
MODEL 2
REMARK VINA RESULT:      -5.6      2.313      7.206
REMARK  Name = 
REMARK  20 active torsions:
REMARK  status: ('A' for Active; 'I' for Inactive)
REMARK    1  A    between atoms: C_1  and  C_2
REMARK    2  A    between atoms: C_2  and  C_3
REMARK    3  A    between atoms: C_4  and  C_5
REMARK    4  A    between atoms: C_5  and  C_6
REMARK    5  A    between atoms: C_6  and  C_7
REMARK    6  A    between atoms: C_7  and  C_8
REMARK    7  A    between atoms: C_9  and  C_10
REMARK    8  A    between atoms: C_10  and  N_11
REMARK    9  A    between atoms: N_11  and  C_12
REMARK   10  A    between atoms: C_12  and  C_13
REMARK   11  A    between atoms: C_13  and  C_14
REMARK   12  A    between atoms: C_14  and  N_15
REMARK   13  A    between atoms: N_15  and  C_16
REMARK   14  A    between atoms: N_15  and  C_20
REMARK   15  A    between atoms: C_16  and  C_17
REMARK   16  A    between atoms: C_17  and  C_18
REMARK   17  A    between atoms: C_18  and  N_19
REMARK   18  A    between atoms: C_20  and  C_21
REMARK   19  A    between atoms: C_21  and  C_22
REMARK   20  A    between atoms: C_22  and  N_23
REMARK                            x       y       z     vdW  Elec       q    Type
REMARK                         _______ _______ _______ _____ _____    ______ ____
ROOT
ATOM      1  C   UNL     1       4.284   6.139  18.569  0.00  0.00    +0.000 C 
ENDROOT
BRANCH   1   2
ATOM      2  C   UNL     1       2.783   5.826  18.660  0.00  0.00    +0.000 C 
BRANCH   2   3
ATOM      3  N   UNL     1       2.412   4.427  19.000  0.00  0.00    +0.000 NA
BRANCH   3   4
ATOM      4  C   UNL     1       1.963   3.722  17.774  0.00  0.00    +0.000 C 
BRANCH   4   5
ATOM      5  C   UNL     1       2.943   2.680  17.208  0.00  0.00    +0.000 C 
BRANCH   5   6
ATOM      6  C   UNL     1       3.410   1.681  18.266  0.00  0.00    +0.000 C 
BRANCH   6   7
ATOM      7  N   UNL     1       4.485   2.262  19.066  0.00  0.00    +0.000 NA
ATOM      8  H   UNL     1       4.095   2.691  19.905  0.00  0.00    +0.000 HD
ATOM      9  H   UNL     1       4.930   3.010  18.538  0.00  0.00    +0.000 HD
ENDBRANCH   6   7
ENDBRANCH   5   6
ENDBRANCH   4   5
ENDBRANCH   3   4
BRANCH   3  10
ATOM     10  C   UNL     1       1.355   4.411  20.037  0.00  0.00    +0.000 C 
BRANCH  10  11
ATOM     11  C   UNL     1       0.968   3.045  20.634  0.00  0.00    +0.000 C 
BRANCH  11  12
ATOM     12  C   UNL     1       1.602   2.763  21.995  0.00  0.00    +0.000 C 
BRANCH  12  13
ATOM     13  N   UNL     1       3.011   2.404  21.818  0.00  0.00    +0.000 NA
ATOM     14  H   UNL     1       3.136   1.406  21.976  0.00  0.00    +0.000 HD
ATOM     15  H   UNL     1       3.572   2.878  22.524  0.00  0.00    +0.000 HD
ENDBRANCH  12  13
ENDBRANCH  11  12
ENDBRANCH  10  11
ENDBRANCH   3  10
ENDBRANCH   2   3
ENDBRANCH   1   2
BRANCH   1  16
ATOM     16  C   UNL     1       4.702   6.950  17.342  0.00  0.00    +0.000 C 
BRANCH  16  17
ATOM     17  N   UNL     1       5.963   7.666  17.566  0.00  0.00    +0.000 NA
ATOM     18  H   UNL     1       5.837   8.644  17.296  0.00  0.00    +0.000 HD
BRANCH  17  19
ATOM     19  C   UNL     1       7.011   7.104  16.723  0.00  0.00    +0.000 C 
BRANCH  19  22
ATOM     20  C   UNL     1       6.709   4.649  16.135  0.00  0.00    +0.000 C 
ATOM     21  C   UNL     1       7.556   4.220  17.307  0.00  0.00    +0.000 C 
ATOM     22  C   UNL     1       6.466   5.962  15.917  0.00  0.00    +0.000 C 
BRANCH  20  23
ATOM     23  C   UNL     1       6.097   3.616  15.200  0.00  0.00    +0.000 C 
BRANCH  23  24
ATOM     24  C   UNL     1       6.362   3.837  13.708  0.00  0.00    +0.000 C 
BRANCH  24  28
ATOM     25  C   UNL     1       3.721   3.167  10.923  0.00  0.00    +0.000 C 
ATOM     26  C   UNL     1       4.946   3.010  11.781  0.00  0.00    +0.000 C 
ATOM     27  C   UNL     1       5.932   1.944  11.388  0.00  0.00    +0.000 C 
ATOM     28  C   UNL     1       5.128   3.809  12.851  0.00  0.00    +0.000 C 
ENDBRANCH  24  28
ENDBRANCH  23  24
ENDBRANCH  20  23
ENDBRANCH  19  22
ENDBRANCH  17  19
ENDBRANCH  16  17
ENDBRANCH   1  16
TORSDOF 17
ENDMDL
MODEL 3
REMARK VINA RESULT:      -5.5      2.647      7.089
REMARK  Name = 
REMARK  20 active torsions:
REMARK  status: ('A' for Active; 'I' for Inactive)
REMARK    1  A    between atoms: C_1  and  C_2
REMARK    2  A    between atoms: C_2  and  C_3
REMARK    3  A    between atoms: C_4  and  C_5
REMARK    4  A    between atoms: C_5  and  C_6
REMARK    5  A    between atoms: C_6  and  C_7
REMARK    6  A    between atoms: C_7  and  C_8
REMARK    7  A    between atoms: C_9  and  C_10
REMARK    8  A    between atoms: C_10  and  N_11
REMARK    9  A    between atoms: N_11  and  C_12
REMARK   10  A    between atoms: C_12  and  C_13
REMARK   11  A    between atoms: C_13  and  C_14
REMARK   12  A    between atoms: C_14  and  N_15
REMARK   13  A    between atoms: N_15  and  C_16
REMARK   14  A    between atoms: N_15  and  C_20
REMARK   15  A    between atoms: C_16  and  C_17
REMARK   16  A    between atoms: C_17  and  C_18
REMARK   17  A    between atoms: C_18  and  N_19
REMARK   18  A    between atoms: C_20  and  C_21
REMARK   19  A    between atoms: C_21  and  C_22
REMARK   20  A    between atoms: C_22  and  N_23
REMARK                            x       y       z     vdW  Elec       q    Type
REMARK                         _______ _______ _______ _____ _____    ______ ____
ROOT
ATOM      1  C   UNL     1       4.031   3.598  16.172  0.00  0.00    +0.000 C 
ENDROOT
BRANCH   1   2
ATOM      2  C   UNL     1       3.798   2.836  17.485  0.00  0.00    +0.000 C 
BRANCH   2   3
ATOM      3  N   UNL     1       2.982   3.524  18.520  0.00  0.00    +0.000 NA
BRANCH   3   4
ATOM      4  C   UNL     1       3.837   4.465  19.283  0.00  0.00    +0.000 C 
BRANCH   4   5
ATOM      5  C   UNL     1       3.701   5.949  18.899  0.00  0.00    +0.000 C 
BRANCH   5   6
ATOM      6  C   UNL     1       2.511   6.623  19.582  0.00  0.00    +0.000 C 
BRANCH   6   7
ATOM      7  N   UNL     1       2.281   6.026  20.895  0.00  0.00    +0.000 NA
ATOM      8  H   UNL     1       1.293   6.093  21.135  0.00  0.00    +0.000 HD
ATOM      9  H   UNL     1       2.788   6.559  21.600  0.00  0.00    +0.000 HD
ENDBRANCH   6   7
ENDBRANCH   5   6
ENDBRANCH   4   5
ENDBRANCH   3   4
BRANCH   3  10
ATOM     10  C   UNL     1       2.351   2.531  19.422  0.00  0.00    +0.000 C 
BRANCH  10  11
ATOM     11  C   UNL     1       1.088   2.971  20.186  0.00  0.00    +0.000 C 
BRANCH  11  12
ATOM     12  C   UNL     1       1.156   2.714  21.691  0.00  0.00    +0.000 C 
BRANCH  12  13
ATOM     13  N   UNL     1       2.489   3.057  22.191  0.00  0.00    +0.000 NA
ATOM     14  H   UNL     1       3.084   2.230  22.181  0.00  0.00    +0.000 HD
ATOM     15  H   UNL     1       2.420   3.349  23.164  0.00  0.00    +0.000 HD
ENDBRANCH  12  13
ENDBRANCH  11  12
ENDBRANCH  10  11
ENDBRANCH   3  10
ENDBRANCH   2   3
ENDBRANCH   1   2
BRANCH   1  16
ATOM     16  C   UNL     1       5.444   4.154  15.989  0.00  0.00    +0.000 C 
BRANCH  16  17
ATOM     17  N   UNL     1       6.264   3.962  17.190  0.00  0.00    +0.000 NA
ATOM     18  H   UNL     1       5.839   4.476  17.964  0.00  0.00    +0.000 HD
BRANCH  17  19
ATOM     19  C   UNL     1       7.599   4.508  16.975  0.00  0.00    +0.000 C 
BRANCH  19  22
ATOM     20  C   UNL     1       7.704   6.846  17.969  0.00  0.00    +0.000 C 
ATOM     21  C   UNL     1       8.032   6.296  19.335  0.00  0.00    +0.000 C 
ATOM     22  C   UNL     1       7.538   6.007  16.922  0.00  0.00    +0.000 C 
BRANCH  20  23
ATOM     23  C   UNL     1       7.582   8.346  17.745  0.00  0.00    +0.000 C 
BRANCH  23  24
ATOM     24  C   UNL     1       8.574   9.214  18.523  0.00  0.00    +0.000 C 
BRANCH  24  28
ATOM     25  C   UNL     1       9.891  12.780  17.668  0.00  0.00    +0.000 C 
ATOM     26  C   UNL     1       9.753  11.446  18.348  0.00  0.00    +0.000 C 
ATOM     27  C   UNL     1      10.601  11.201  19.566  0.00  0.00    +0.000 C 
ATOM     28  C   UNL     1       8.894  10.527  17.865  0.00  0.00    +0.000 C 
ENDBRANCH  24  28
ENDBRANCH  23  24
ENDBRANCH  20  23
ENDBRANCH  19  22
ENDBRANCH  17  19
ENDBRANCH  16  17
ENDBRANCH   1  16
TORSDOF 17
ENDMDL
MODEL 4
REMARK VINA RESULT:      -5.5      2.205      4.376
REMARK  Name = 
REMARK  20 active torsions:
REMARK  status: ('A' for Active; 'I' for Inactive)
REMARK    1  A    between atoms: C_1  and  C_2
REMARK    2  A    between atoms: C_2  and  C_3
REMARK    3  A    between atoms: C_4  and  C_5
REMARK    4  A    between atoms: C_5  and  C_6
REMARK    5  A    between atoms: C_6  and  C_7
REMARK    6  A    between atoms: C_7  and  C_8
REMARK    7  A    between atoms: C_9  and  C_10
REMARK    8  A    between atoms: C_10  and  N_11
REMARK    9  A    between atoms: N_11  and  C_12
REMARK   10  A    between atoms: C_12  and  C_13
REMARK   11  A    between atoms: C_13  and  C_14
REMARK   12  A    between atoms: C_14  and  N_15
REMARK   13  A    between atoms: N_15  and  C_16
REMARK   14  A    between atoms: N_15  and  C_20
REMARK   15  A    between atoms: C_16  and  C_17
REMARK   16  A    between atoms: C_17  and  C_18
REMARK   17  A    between atoms: C_18  and  N_19
REMARK   18  A    between atoms: C_20  and  C_21
REMARK   19  A    between atoms: C_21  and  C_22
REMARK   20  A    between atoms: C_22  and  N_23
REMARK                            x       y       z     vdW  Elec       q    Type
REMARK                         _______ _______ _______ _____ _____    ______ ____
ROOT
ATOM      1  C   UNL     1       4.326   3.444  17.295  0.00  0.00    +0.000 C 
ENDROOT
BRANCH   1   2
ATOM      2  C   UNL     1       4.688   4.318  16.086  0.00  0.00    +0.000 C 
BRANCH   2   3
ATOM      3  N   UNL     1       6.090   4.810  16.013  0.00  0.00    +0.000 NA
BRANCH   3   4
ATOM      4  C   UNL     1       6.141   6.229  16.441  0.00  0.00    +0.000 C 
BRANCH   4   5
ATOM      5  C   UNL     1       7.226   6.574  17.475  0.00  0.00    +0.000 C 
BRANCH   5   6
ATOM      6  C   UNL     1       7.231   5.611  18.661  0.00  0.00    +0.000 C 
BRANCH   6   7
ATOM      7  N   UNL     1       7.838   4.340  18.274  0.00  0.00    +0.000 NA
ATOM      8  H   UNL     1       8.662   4.163  18.848  0.00  0.00    +0.000 HD
ATOM      9  H   UNL     1       8.164   4.403  17.311  0.00  0.00    +0.000 HD
ENDBRANCH   6   7
ENDBRANCH   5   6
ENDBRANCH   4   5
ENDBRANCH   3   4
BRANCH   3  10
ATOM     10  C   UNL     1       6.621   4.652  14.638  0.00  0.00    +0.000 C 
BRANCH  10  11
ATOM     11  C   UNL     1       5.796   3.802  13.654  0.00  0.00    +0.000 C 
BRANCH  11  12
ATOM     12  C   UNL     1       6.506   3.527  12.329  0.00  0.00    +0.000 C 
BRANCH  12  13
ATOM     13  N   UNL     1       6.148   2.192  11.845  0.00  0.00    +0.000 NA
ATOM     14  H   UNL     1       6.393   1.494  12.544  0.00  0.00    +0.000 HD
ATOM     15  H   UNL     1       6.700   1.974  11.017  0.00  0.00    +0.000 HD
ENDBRANCH  12  13
ENDBRANCH  11  12
ENDBRANCH  10  11
ENDBRANCH   3  10
ENDBRANCH   2   3
ENDBRANCH   1   2
BRANCH   1  16
ATOM     16  C   UNL     1       2.998   3.790  17.969  0.00  0.00    +0.000 C 
BRANCH  16  17
ATOM     17  N   UNL     1       3.072   3.644  19.426  0.00  0.00    +0.000 NA
ATOM     18  H   UNL     1       2.257   3.115  19.745  0.00  0.00    +0.000 HD
BRANCH  17  19
ATOM     19  C   UNL     1       3.026   4.955  20.062  0.00  0.00    +0.000 C 
BRANCH  19  22
ATOM     20  C   UNL     1       2.442   7.246  19.126  0.00  0.00    +0.000 C 
ATOM     21  C   UNL     1       1.741   7.636  20.402  0.00  0.00    +0.000 C 
ATOM     22  C   UNL     1       3.031   6.033  19.018  0.00  0.00    +0.000 C 
BRANCH  20  23
ATOM     23  C   UNL     1       2.519   8.215  17.955  0.00  0.00    +0.000 C 
BRANCH  23  24
ATOM     24  C   UNL     1       1.363   9.212  17.845  0.00  0.00    +0.000 C 
BRANCH  24  28
ATOM     25  C   UNL     1       1.196  12.789  19.378  0.00  0.00    +0.000 C 
ATOM     26  C   UNL     1       0.801  11.386  19.011  0.00  0.00    +0.000 C 
ATOM     27  C   UNL     1      -0.588  10.941  19.378  0.00  0.00    +0.000 C 
ATOM     28  C   UNL     1       1.677  10.582  18.375  0.00  0.00    +0.000 C 
ENDBRANCH  24  28
ENDBRANCH  23  24
ENDBRANCH  20  23
ENDBRANCH  19  22
ENDBRANCH  17  19
ENDBRANCH  16  17
ENDBRANCH   1  16
TORSDOF 17
ENDMDL
MODEL 5
REMARK VINA RESULT:      -5.4      2.506      6.756
REMARK  Name = 
REMARK  20 active torsions:
REMARK  status: ('A' for Active; 'I' for Inactive)
REMARK    1  A    between atoms: C_1  and  C_2
REMARK    2  A    between atoms: C_2  and  C_3
REMARK    3  A    between atoms: C_4  and  C_5
REMARK    4  A    between atoms: C_5  and  C_6
REMARK    5  A    between atoms: C_6  and  C_7
REMARK    6  A    between atoms: C_7  and  C_8
REMARK    7  A    between atoms: C_9  and  C_10
REMARK    8  A    between atoms: C_10  and  N_11
REMARK    9  A    between atoms: N_11  and  C_12
REMARK   10  A    between atoms: C_12  and  C_13
REMARK   11  A    between atoms: C_13  and  C_14
REMARK   12  A    between atoms: C_14  and  N_15
REMARK   13  A    between atoms: N_15  and  C_16
REMARK   14  A    between atoms: N_15  and  C_20
REMARK   15  A    between atoms: C_16  and  C_17
REMARK   16  A    between atoms: C_17  and  C_18
REMARK   17  A    between atoms: C_18  and  N_19
REMARK   18  A    between atoms: C_20  and  C_21
REMARK   19  A    between atoms: C_21  and  C_22
REMARK   20  A    between atoms: C_22  and  N_23
REMARK                            x       y       z     vdW  Elec       q    Type
REMARK                         _______ _______ _______ _____ _____    ______ ____
ROOT
ATOM      1  C   UNL     1       4.016   4.120  16.811  0.00  0.00    +0.000 C 
ENDROOT
BRANCH   1   2
ATOM      2  C   UNL     1       3.697   3.988  18.307  0.00  0.00    +0.000 C 
BRANCH   2   3
ATOM      3  N   UNL     1       3.437   5.250  19.048  0.00  0.00    +0.000 NA
BRANCH   3   4
ATOM      4  C   UNL     1       2.832   4.937  20.366  0.00  0.00    +0.000 C 
BRANCH   4   5
ATOM      5  C   UNL     1       1.422   4.323  20.322  0.00  0.00    +0.000 C 
BRANCH   5   6
ATOM      6  C   UNL     1       1.286   3.105  21.235  0.00  0.00    +0.000 C 
BRANCH   6   7
ATOM      7  N   UNL     1       2.516   2.907  21.996  0.00  0.00    +0.000 NA
ATOM      8  H   UNL     1       2.337   2.288  22.786  0.00  0.00    +0.000 HD
ATOM      9  H   UNL     1       2.816   3.798  22.389  0.00  0.00    +0.000 HD
ENDBRANCH   6   7
ENDBRANCH   5   6
ENDBRANCH   4   5
ENDBRANCH   3   4
BRANCH   3  10
ATOM     10  C   UNL     1       2.553   6.139  18.258  0.00  0.00    +0.000 C 
BRANCH  10  11
ATOM     11  C   UNL     1       3.131   7.493  17.806  0.00  0.00    +0.000 C 
BRANCH  11  12
ATOM     12  C   UNL     1       2.190   8.674  18.035  0.00  0.00    +0.000 C 
BRANCH  12  13
ATOM     13  N   UNL     1       1.645   8.616  19.393  0.00  0.00    +0.000 NA
ATOM     14  H   UNL     1       2.339   8.952  20.059  0.00  0.00    +0.000 HD
ATOM     15  H   UNL     1       1.457   7.646  19.641  0.00  0.00    +0.000 HD
ENDBRANCH  12  13
ENDBRANCH  11  12
ENDBRANCH  10  11
ENDBRANCH   3  10
ENDBRANCH   2   3
ENDBRANCH   1   2
BRANCH   1  16
ATOM     16  C   UNL     1       5.304   3.429  16.361  0.00  0.00    +0.000 C 
BRANCH  16  17
ATOM     17  N   UNL     1       5.969   4.166  15.281  0.00  0.00    +0.000 NA
ATOM     18  H   UNL     1       6.139   3.526  14.502  0.00  0.00    +0.000 HD
BRANCH  17  19
ATOM     19  C   UNL     1       7.261   4.663  15.738  0.00  0.00    +0.000 C 
BRANCH  19  22
ATOM     20  C   UNL     1       7.187   6.485  17.510  0.00  0.00    +0.000 C 
ATOM     21  C   UNL     1       7.462   5.487  18.607  0.00  0.00    +0.000 C 
ATOM     22  C   UNL     1       7.126   6.077  16.222  0.00  0.00    +0.000 C 
BRANCH  20  23
ATOM     23  C   UNL     1       7.000   7.960  17.831  0.00  0.00    +0.000 C 
BRANCH  23  24
ATOM     24  C   UNL     1       8.219   8.851  17.576  0.00  0.00    +0.000 C 
BRANCH  24  28
ATOM     25  C   UNL     1       9.939  11.172  20.190  0.00  0.00    +0.000 C 
ATOM     26  C   UNL     1       9.235  10.725  18.939  0.00  0.00    +0.000 C 
ATOM     27  C   UNL     1       9.030  11.751  17.859  0.00  0.00    +0.000 C 
ATOM     28  C   UNL     1       8.818   9.450  18.818  0.00  0.00    +0.000 C 
ENDBRANCH  24  28
ENDBRANCH  23  24
ENDBRANCH  20  23
ENDBRANCH  19  22
ENDBRANCH  17  19
ENDBRANCH  16  17
ENDBRANCH   1  16
TORSDOF 17
ENDMDL
MODEL 6
REMARK VINA RESULT:      -5.4      1.492      1.786
REMARK  Name = 
REMARK  20 active torsions:
REMARK  status: ('A' for Active; 'I' for Inactive)
REMARK    1  A    between atoms: C_1  and  C_2
REMARK    2  A    between atoms: C_2  and  C_3
REMARK    3  A    between atoms: C_4  and  C_5
REMARK    4  A    between atoms: C_5  and  C_6
REMARK    5  A    between atoms: C_6  and  C_7
REMARK    6  A    between atoms: C_7  and  C_8
REMARK    7  A    between atoms: C_9  and  C_10
REMARK    8  A    between atoms: C_10  and  N_11
REMARK    9  A    between atoms: N_11  and  C_12
REMARK   10  A    between atoms: C_12  and  C_13
REMARK   11  A    between atoms: C_13  and  C_14
REMARK   12  A    between atoms: C_14  and  N_15
REMARK   13  A    between atoms: N_15  and  C_16
REMARK   14  A    between atoms: N_15  and  C_20
REMARK   15  A    between atoms: C_16  and  C_17
REMARK   16  A    between atoms: C_17  and  C_18
REMARK   17  A    between atoms: C_18  and  N_19
REMARK   18  A    between atoms: C_20  and  C_21
REMARK   19  A    between atoms: C_21  and  C_22
REMARK   20  A    between atoms: C_22  and  N_23
REMARK                            x       y       z     vdW  Elec       q    Type
REMARK                         _______ _______ _______ _____ _____    ______ ____
ROOT
ATOM      1  C   UNL     1       3.473   3.534  17.146  0.00  0.00    +0.000 C 
ENDROOT
BRANCH   1   2
ATOM      2  C   UNL     1       4.858   3.541  16.482  0.00  0.00    +0.000 C 
BRANCH   2   3
ATOM      3  N   UNL     1       5.546   4.856  16.388  0.00  0.00    +0.000 NA
BRANCH   3   4
ATOM      4  C   UNL     1       5.843   5.160  14.967  0.00  0.00    +0.000 C 
BRANCH   4   5
ATOM      5  C   UNL     1       6.507   4.027  14.168  0.00  0.00    +0.000 C 
BRANCH   5   6
ATOM      6  C   UNL     1       5.771   3.721  12.864  0.00  0.00    +0.000 C 
BRANCH   6   7
ATOM      7  N   UNL     1       6.455   2.652  12.140  0.00  0.00    +0.000 NA
ATOM      8  H   UNL     1       5.768   2.038  11.704  0.00  0.00    +0.000 HD
ATOM      9  H   UNL     1       6.978   2.080  12.801  0.00  0.00    +0.000 HD
ENDBRANCH   6   7
ENDBRANCH   5   6
ENDBRANCH   4   5
ENDBRANCH   3   4
BRANCH   3  10
ATOM     10  C   UNL     1       6.787   4.847  17.198  0.00  0.00    +0.000 C 
BRANCH  10  11
ATOM     11  C   UNL     1       7.105   6.109  18.021  0.00  0.00    +0.000 C 
BRANCH  11  12
ATOM     12  C   UNL     1       7.609   7.283  17.183  0.00  0.00    +0.000 C 
BRANCH  12  13
ATOM     13  N   UNL     1       8.095   8.346  18.065  0.00  0.00    +0.000 NA
ATOM     14  H   UNL     1       9.112   8.322  18.108  0.00  0.00    +0.000 HD
ATOM     15  H   UNL     1       7.764   8.177  19.013  0.00  0.00    +0.000 HD
ENDBRANCH  12  13
ENDBRANCH  11  12
ENDBRANCH  10  11
ENDBRANCH   3  10
ENDBRANCH   2   3
ENDBRANCH   1   2
BRANCH   1  16
ATOM     16  C   UNL     1       3.150   2.277  17.954  0.00  0.00    +0.000 C 
BRANCH  16  17
ATOM     17  N   UNL     1       4.280   1.863  18.793  0.00  0.00    +0.000 NA
ATOM     18  H   UNL     1       4.288   0.843  18.853  0.00  0.00    +0.000 HD
BRANCH  17  19
ATOM     19  C   UNL     1       4.115   2.386  20.144  0.00  0.00    +0.000 C 
BRANCH  19  22
ATOM     20  C   UNL     1       2.102   3.821  20.741  0.00  0.00    +0.000 C 
ATOM     21  C   UNL     1       1.526   2.729  21.607  0.00  0.00    +0.000 C 
ATOM     22  C   UNL     1       3.286   3.637  20.114  0.00  0.00    +0.000 C 
BRANCH  20  23
ATOM     23  C   UNL     1       1.376   5.149  20.581  0.00  0.00    +0.000 C 
BRANCH  23  24
ATOM     24  C   UNL     1       2.267   6.394  20.595  0.00  0.00    +0.000 C 
BRANCH  24  28
ATOM     25  C   UNL     1       1.831   9.103  17.829  0.00  0.00    +0.000 C 
ATOM     26  C   UNL     1       2.331   7.882  18.549  0.00  0.00    +0.000 C 
ATOM     27  C   UNL     1       3.458   7.117  17.910  0.00  0.00    +0.000 C 
ATOM     28  C   UNL     1       1.776   7.514  19.720  0.00  0.00    +0.000 C 
ENDBRANCH  24  28
ENDBRANCH  23  24
ENDBRANCH  20  23
ENDBRANCH  19  22
ENDBRANCH  17  19
ENDBRANCH  16  17
ENDBRANCH   1  16
TORSDOF 17
ENDMDL
MODEL 7
REMARK VINA RESULT:      -5.4      2.461      7.037
REMARK  Name = 
REMARK  20 active torsions:
REMARK  status: ('A' for Active; 'I' for Inactive)
REMARK    1  A    between atoms: C_1  and  C_2
REMARK    2  A    between atoms: C_2  and  C_3
REMARK    3  A    between atoms: C_4  and  C_5
REMARK    4  A    between atoms: C_5  and  C_6
REMARK    5  A    between atoms: C_6  and  C_7
REMARK    6  A    between atoms: C_7  and  C_8
REMARK    7  A    between atoms: C_9  and  C_10
REMARK    8  A    between atoms: C_10  and  N_11
REMARK    9  A    between atoms: N_11  and  C_12
REMARK   10  A    between atoms: C_12  and  C_13
REMARK   11  A    between atoms: C_13  and  C_14
REMARK   12  A    between atoms: C_14  and  N_15
REMARK   13  A    between atoms: N_15  and  C_16
REMARK   14  A    between atoms: N_15  and  C_20
REMARK   15  A    between atoms: C_16  and  C_17
REMARK   16  A    between atoms: C_17  and  C_18
REMARK   17  A    between atoms: C_18  and  N_19
REMARK   18  A    between atoms: C_20  and  C_21
REMARK   19  A    between atoms: C_21  and  C_22
REMARK   20  A    between atoms: C_22  and  N_23
REMARK                            x       y       z     vdW  Elec       q    Type
REMARK                         _______ _______ _______ _____ _____    ______ ____
ROOT
ATOM      1  C   UNL     1       3.158   3.681  17.245  0.00  0.00    +0.000 C 
ENDROOT
BRANCH   1   2
ATOM      2  C   UNL     1       1.972   3.597  18.217  0.00  0.00    +0.000 C 
BRANCH   2   3
ATOM      3  N   UNL     1       1.533   4.871  18.846  0.00  0.00    +0.000 NA
BRANCH   3   4
ATOM      4  C   UNL     1       2.551   5.922  18.600  0.00  0.00    +0.000 C 
BRANCH   4   5
ATOM      5  C   UNL     1       2.415   7.194  19.454  0.00  0.00    +0.000 C 
BRANCH   5   6
ATOM      6  C   UNL     1       1.785   8.353  18.682  0.00  0.00    +0.000 C 
BRANCH   6   7
ATOM      7  N   UNL     1       2.532   8.602  17.452  0.00  0.00    +0.000 NA
ATOM      8  H   UNL     1       3.526   8.674  17.663  0.00  0.00    +0.000 HD
ATOM      9  H   UNL     1       2.251   9.501  17.064  0.00  0.00    +0.000 HD
ENDBRANCH   6   7
ENDBRANCH   5   6
ENDBRANCH   4   5
ENDBRANCH   3   4
BRANCH   3  10
ATOM     10  C   UNL     1       1.312   4.679  20.299  0.00  0.00    +0.000 C 
BRANCH  10  11
ATOM     11  C   UNL     1       2.509   4.199  21.140  0.00  0.00    +0.000 C 
BRANCH  11  12
ATOM     12  C   UNL     1       2.481   2.705  21.460  0.00  0.00    +0.000 C 
BRANCH  12  13
ATOM     13  N   UNL     1       1.367   2.415  22.366  0.00  0.00    +0.000 NA
ATOM     14  H   UNL     1       0.483   2.624  21.905  0.00  0.00    +0.000 HD
ATOM     15  H   UNL     1       1.421   3.032  23.175  0.00  0.00    +0.000 HD
ENDBRANCH  12  13
ENDBRANCH  11  12
ENDBRANCH  10  11
ENDBRANCH   3  10
ENDBRANCH   2   3
ENDBRANCH   1   2
BRANCH   1  16
ATOM     16  C   UNL     1       4.368   2.829  17.628  0.00  0.00    +0.000 C 
BRANCH  16  17
ATOM     17  N   UNL     1       5.005   3.310  18.859  0.00  0.00    +0.000 NA
ATOM     18  H   UNL     1       4.284   3.697  19.473  0.00  0.00    +0.000 HD
BRANCH  17  19
ATOM     19  C   UNL     1       5.945   4.381  18.550  0.00  0.00    +0.000 C 
BRANCH  19  22
ATOM     20  C   UNL     1       6.149   5.471  16.262  0.00  0.00    +0.000 C 
ATOM     21  C   UNL     1       5.773   6.819  16.823  0.00  0.00    +0.000 C 
ATOM     22  C   UNL     1       6.239   4.397  17.078  0.00  0.00    +0.000 C 
BRANCH  20  23
ATOM     23  C   UNL     1       6.457   5.306  14.781  0.00  0.00    +0.000 C 
BRANCH  23  24
ATOM     24  C   UNL     1       5.520   4.372  14.011  0.00  0.00    +0.000 C 
BRANCH  24  28
ATOM     25  C   UNL     1       6.433   1.835  11.199  0.00  0.00    +0.000 C 
ATOM     26  C   UNL     1       5.677   2.876  11.976  0.00  0.00    +0.000 C 
ATOM     27  C   UNL     1       4.315   3.262  11.469  0.00  0.00    +0.000 C 
ATOM     28  C   UNL     1       6.221   3.421  13.082  0.00  0.00    +0.000 C 
ENDBRANCH  24  28
ENDBRANCH  23  24
ENDBRANCH  20  23
ENDBRANCH  19  22
ENDBRANCH  17  19
ENDBRANCH  16  17
ENDBRANCH   1  16
TORSDOF 17
ENDMDL
MODEL 8
REMARK VINA RESULT:      -5.4      1.454      1.809
REMARK  Name = 
REMARK  20 active torsions:
REMARK  status: ('A' for Active; 'I' for Inactive)
REMARK    1  A    between atoms: C_1  and  C_2
REMARK    2  A    between atoms: C_2  and  C_3
REMARK    3  A    between atoms: C_4  and  C_5
REMARK    4  A    between atoms: C_5  and  C_6
REMARK    5  A    between atoms: C_6  and  C_7
REMARK    6  A    between atoms: C_7  and  C_8
REMARK    7  A    between atoms: C_9  and  C_10
REMARK    8  A    between atoms: C_10  and  N_11
REMARK    9  A    between atoms: N_11  and  C_12
REMARK   10  A    between atoms: C_12  and  C_13
REMARK   11  A    between atoms: C_13  and  C_14
REMARK   12  A    between atoms: C_14  and  N_15
REMARK   13  A    between atoms: N_15  and  C_16
REMARK   14  A    between atoms: N_15  and  C_20
REMARK   15  A    between atoms: C_16  and  C_17
REMARK   16  A    between atoms: C_17  and  C_18
REMARK   17  A    between atoms: C_18  and  N_19
REMARK   18  A    between atoms: C_20  and  C_21
REMARK   19  A    between atoms: C_21  and  C_22
REMARK   20  A    between atoms: C_22  and  N_23
REMARK                            x       y       z     vdW  Elec       q    Type
REMARK                         _______ _______ _______ _____ _____    ______ ____
ROOT
ATOM      1  C   UNL     1       3.498   3.427  16.977  0.00  0.00    +0.000 C 
ENDROOT
BRANCH   1   2
ATOM      2  C   UNL     1       4.783   3.825  17.718  0.00  0.00    +0.000 C 
BRANCH   2   3
ATOM      3  N   UNL     1       5.852   4.463  16.904  0.00  0.00    +0.000 NA
BRANCH   3   4
ATOM      4  C   UNL     1       6.028   3.710  15.638  0.00  0.00    +0.000 C 
BRANCH   4   5
ATOM      5  C   UNL     1       5.938   4.544  14.349  0.00  0.00    +0.000 C 
BRANCH   5   6
ATOM      6  C   UNL     1       6.743   3.935  13.201  0.00  0.00    +0.000 C 
BRANCH   6   7
ATOM      7  N   UNL     1       5.908   3.012  12.437  0.00  0.00    +0.000 NA
ATOM      8  H   UNL     1       4.925   3.243  12.575  0.00  0.00    +0.000 HD
ATOM      9  H   UNL     1       6.037   2.067  12.796  0.00  0.00    +0.000 HD
ENDBRANCH   6   7
ENDBRANCH   5   6
ENDBRANCH   4   5
ENDBRANCH   3   4
BRANCH   3  10
ATOM     10  C   UNL     1       7.120   4.517  17.669  0.00  0.00    +0.000 C 
BRANCH  10  11
ATOM     11  C   UNL     1       7.277   5.649  18.702  0.00  0.00    +0.000 C 
BRANCH  11  12
ATOM     12  C   UNL     1       7.739   6.974  18.100  0.00  0.00    +0.000 C 
BRANCH  12  13
ATOM     13  N   UNL     1       7.402   7.014  16.676  0.00  0.00    +0.000 NA
ATOM     14  H   UNL     1       8.142   6.571  16.133  0.00  0.00    +0.000 HD
ATOM     15  H   UNL     1       7.361   7.984  16.365  0.00  0.00    +0.000 HD
ENDBRANCH  12  13
ENDBRANCH  11  12
ENDBRANCH  10  11
ENDBRANCH   3  10
ENDBRANCH   2   3
ENDBRANCH   1   2
BRANCH   1  16
ATOM     16  C   UNL     1       2.719   2.273  17.610  0.00  0.00    +0.000 C 
BRANCH  16  17
ATOM     17  N   UNL     1       3.511   1.574  18.628  0.00  0.00    +0.000 NA
ATOM     18  H   UNL     1       3.574   0.586  18.373  0.00  0.00    +0.000 HD
BRANCH  17  19
ATOM     19  C   UNL     1       2.845   1.658  19.922  0.00  0.00    +0.000 C 
BRANCH  19  22
ATOM     20  C   UNL     1       1.756   3.885  20.487  0.00  0.00    +0.000 C 
ATOM     21  C   UNL     1       0.391   3.359  20.121  0.00  0.00    +0.000 C 
ATOM     22  C   UNL     1       2.839   3.078  20.406  0.00  0.00    +0.000 C 
BRANCH  20  23
ATOM     23  C   UNL     1       1.932   5.315  20.976  0.00  0.00    +0.000 C 
BRANCH  23  24
ATOM     24  C   UNL     1       2.850   6.196  20.124  0.00  0.00    +0.000 C 
BRANCH  24  28
ATOM     25  C   UNL     1       1.851   9.102  17.729  0.00  0.00    +0.000 C 
ATOM     26  C   UNL     1       2.573   7.902  18.276  0.00  0.00    +0.000 C 
ATOM     27  C   UNL     1       3.768   7.407  17.509  0.00  0.00    +0.000 C 
ATOM     28  C   UNL     1       2.145   7.316  19.411  0.00  0.00    +0.000 C 
ENDBRANCH  24  28
ENDBRANCH  23  24
ENDBRANCH  20  23
ENDBRANCH  19  22
ENDBRANCH  17  19
ENDBRANCH  16  17
ENDBRANCH   1  16
TORSDOF 17
ENDMDL
MODEL 9
REMARK VINA RESULT:      -5.4      2.740      7.274
REMARK  Name = 
REMARK  20 active torsions:
REMARK  status: ('A' for Active; 'I' for Inactive)
REMARK    1  A    between atoms: C_1  and  C_2
REMARK    2  A    between atoms: C_2  and  C_3
REMARK    3  A    between atoms: C_4  and  C_5
REMARK    4  A    between atoms: C_5  and  C_6
REMARK    5  A    between atoms: C_6  and  C_7
REMARK    6  A    between atoms: C_7  and  C_8
REMARK    7  A    between atoms: C_9  and  C_10
REMARK    8  A    between atoms: C_10  and  N_11
REMARK    9  A    between atoms: N_11  and  C_12
REMARK   10  A    between atoms: C_12  and  C_13
REMARK   11  A    between atoms: C_13  and  C_14
REMARK   12  A    between atoms: C_14  and  N_15
REMARK   13  A    between atoms: N_15  and  C_16
REMARK   14  A    between atoms: N_15  and  C_20
REMARK   15  A    between atoms: C_16  and  C_17
REMARK   16  A    between atoms: C_17  and  C_18
REMARK   17  A    between atoms: C_18  and  N_19
REMARK   18  A    between atoms: C_20  and  C_21
REMARK   19  A    between atoms: C_21  and  C_22
REMARK   20  A    between atoms: C_22  and  N_23
REMARK                            x       y       z     vdW  Elec       q    Type
REMARK                         _______ _______ _______ _____ _____    ______ ____
ROOT
ATOM      1  C   UNL     1       5.170   4.801  18.799  0.00  0.00    +0.000 C 
ENDROOT
BRANCH   1   2
ATOM      2  C   UNL     1       4.145   5.296  19.830  0.00  0.00    +0.000 C 
BRANCH   2   3
ATOM      3  N   UNL     1       2.748   5.468  19.353  0.00  0.00    +0.000 NA
BRANCH   3   4
ATOM      4  C   UNL     1       2.600   4.846  18.015  0.00  0.00    +0.000 C 
BRANCH   4   5
ATOM      5  C   UNL     1       1.366   3.946  17.832  0.00  0.00    +0.000 C 
BRANCH   5   6
ATOM      6  C   UNL     1       1.202   2.939  18.969  0.00  0.00    +0.000 C 
BRANCH   6   7
ATOM      7  N   UNL     1       0.523   3.565  20.100  0.00  0.00    +0.000 NA
ATOM      8  H   UNL     1       1.084   4.339  20.452  0.00  0.00    +0.000 HD
ATOM      9  H   UNL     1       0.448   2.892  20.862  0.00  0.00    +0.000 HD
ENDBRANCH   6   7
ENDBRANCH   5   6
ENDBRANCH   4   5
ENDBRANCH   3   4
BRANCH   3  10
ATOM     10  C   UNL     1       2.391   6.906  19.311  0.00  0.00    +0.000 C 
BRANCH  10  11
ATOM     11  C   UNL     1       2.247   7.559  17.924  0.00  0.00    +0.000 C 
BRANCH  11  12
ATOM     12  C   UNL     1       2.392   9.080  17.938  0.00  0.00    +0.000 C 
BRANCH  12  13
ATOM     13  N   UNL     1       1.083   9.703  17.724  0.00  0.00    +0.000 NA
ATOM     14  H   UNL     1       0.646   9.906  18.621  0.00  0.00    +0.000 HD
ATOM     15  H   UNL     1       0.469   9.044  17.249  0.00  0.00    +0.000 HD
ENDBRANCH  12  13
ENDBRANCH  11  12
ENDBRANCH  10  11
ENDBRANCH   3  10
ENDBRANCH   2   3
ENDBRANCH   1   2
BRANCH   1  16
ATOM     16  C   UNL     1       6.585   5.352  18.978  0.00  0.00    +0.000 C 
BRANCH  16  17
ATOM     17  N   UNL     1       6.897   6.387  17.986  0.00  0.00    +0.000 NA
ATOM     18  H   UNL     1       6.875   7.300  18.446  0.00  0.00    +0.000 HD
BRANCH  17  19
ATOM     19  C   UNL     1       5.884   6.394  16.937  0.00  0.00    +0.000 C 
BRANCH  19  22
ATOM     20  C   UNL     1       6.613   4.994  14.944  0.00  0.00    +0.000 C 
ATOM     21  C   UNL     1       5.982   3.756  15.528  0.00  0.00    +0.000 C 
ATOM     22  C   UNL     1       6.528   6.174  15.600  0.00  0.00    +0.000 C 
BRANCH  20  23
ATOM     23  C   UNL     1       7.329   4.942  13.602  0.00  0.00    +0.000 C 
BRANCH  23  24
ATOM     24  C   UNL     1       6.950   3.767  12.697  0.00  0.00    +0.000 C 
BRANCH  24  28
ATOM     25  C   UNL     1       3.586   3.085  10.853  0.00  0.00    +0.000 C 
ATOM     26  C   UNL     1       4.943   2.852  11.457  0.00  0.00    +0.000 C 
ATOM     27  C   UNL     1       5.571   1.502  11.242  0.00  0.00    +0.000 C 
ATOM     28  C   UNL     1       5.550   3.832  12.155  0.00  0.00    +0.000 C 
ENDBRANCH  24  28
ENDBRANCH  23  24
ENDBRANCH  20  23
ENDBRANCH  19  22
ENDBRANCH  17  19
ENDBRANCH  16  17
ENDBRANCH   1  16
TORSDOF 17
ENDMDL
