MODEL 1
REMARK VINA RESULT:      -5.9      0.000      0.000
REMARK  Name = 
REMARK  20 active torsions:
REMARK  status: ('A' for Active; 'I' for Inactive)
REMARK    1  A    between atoms: C_1  and  C_2
REMARK    2  A    between atoms: C_3  and  C_4
REMARK    3  A    between atoms: C_3  and  C_5
REMARK    4  A    between atoms: C_5  and  O_7
REMARK    5  A    between atoms: O_7  and  C_8
REMARK    6  A    between atoms: C_9  and  O_10
REMARK    7  A    between atoms: O_10  and  C_11
REMARK    8  A    between atoms: C_11  and  C_13
REMARK    9  A    between atoms: C_13  and  C_14
REMARK   10  A    between atoms: C_15  and  C_16
REMARK   11  A    between atoms: C_17  and  O_18
REMARK   12  A    between atoms: C_19  and  O_20
REMARK   13  A    between atoms: O_20  and  C_21
REMARK   14  A    between atoms: C_21  and  C_23
REMARK   15  A    between atoms: C_23  and  C_24
REMARK   16  A    between atoms: C_25  and  C_26
REMARK   17  A    between atoms: C_27  and  O_28
REMARK   18  A    between atoms: O_28  and  C_29
REMARK   19  A    between atoms: C_29  and  C_30
REMARK   20  A    between atoms: C_32  and  O_33
REMARK                            x       y       z     vdW  Elec       q    Type
REMARK                         _______ _______ _______ _____ _____    ______ ____
ROOT
ATOM      1  C   UNL     1      -2.587  12.128  21.378  0.00  0.00    +0.000 C 
ATOM      2  C   UNL     1      -3.887  12.788  20.858  0.00  0.00    +0.000 C 
ATOM      3  C   UNL     1      -3.809  14.332  21.052  0.00  0.00    +0.000 C 
ATOM      4  C   UNL     1      -3.574  14.754  22.521  0.00  0.00    +0.000 C 
ATOM      5  C   UNL     1      -2.349  14.019  23.113  0.00  0.00    +0.000 C 
ATOM      6  C   UNL     1      -2.374  12.495  22.872  0.00  0.00    +0.000 C 
ENDROOT
BRANCH   3   7
ATOM      7  O   UNL     1      -2.801  14.911  20.215  0.00  0.00    +0.000 OA
ATOM      8  H   UNL     1      -2.602  14.310  19.475  0.00  0.00    +0.000 HD
ENDBRANCH   3   7
BRANCH   6   9
ATOM      9  O   UNL     1      -3.369  11.866  23.691  0.00  0.00    +0.000 OA
ATOM     10  H   UNL     1      -4.128  12.472  23.781  0.00  0.00    +0.000 HD
ENDBRANCH   6   9
BRANCH   1  11
ATOM     11  O   UNL     1      -1.454  12.551  20.564  0.00  0.00    +0.000 OA
BRANCH  11  12
ATOM     12  C   UNL     1      -0.260  11.923  20.828  0.00  0.00    +0.000 C 
ATOM     13  O   UNL     1       0.700  12.455  21.369  0.00  0.00    +0.000 OA
BRANCH  12  16
ATOM     14  C   UNL     1      -0.196   9.466  22.819  0.00  0.00    +0.000 C 
ATOM     15  C   UNL     1      -0.227   9.433  21.330  0.00  0.00    +0.000 C 
ATOM     16  C   UNL     1      -0.256  10.469  20.470  0.00  0.00    +0.000 C 
ATOM     17  C   UNL     1      -0.275  10.192  18.980  0.00  0.00    +0.000 C 
ENDBRANCH  12  16
ENDBRANCH  11  12
ENDBRANCH   1  11
BRANCH   2  18
ATOM     18  O   UNL     1      -5.093  12.279  21.478  0.00  0.00    +0.000 OA
BRANCH  18  19
ATOM     19  C   UNL     1      -6.244  12.486  20.775  0.00  0.00    +0.000 C 
ATOM     20  O   UNL     1      -6.762  13.573  20.580  0.00  0.00    +0.000 OA
BRANCH  19  21
ATOM     21  C   UNL     1      -6.870  11.199  20.367  0.00  0.00    +0.000 C 
ATOM     22  C   UNL     1      -7.916  10.603  21.262  0.00  0.00    +0.000 C 
ATOM     23  C   UNL     1      -6.628  10.645  19.158  0.00  0.00    +0.000 C 
ATOM     24  C   UNL     1      -5.673  11.075  18.086  0.00  0.00    +0.000 C 
ENDBRANCH  19  21
ENDBRANCH  18  19
ENDBRANCH   2  18
BRANCH   4  25
ATOM     25  O   UNL     1      -4.786  14.523  23.285  0.00  0.00    +0.000 OA
BRANCH  25  26
ATOM     26  C   UNL     1      -5.345  15.679  23.769  0.00  0.00    +0.000 C 
ATOM     27  O   UNL     1      -4.808  16.411  24.585  0.00  0.00    +0.000 OA
BRANCH  26  28
ATOM     28  C   UNL     1      -6.666  15.975  23.148  0.00  0.00    +0.000 C 
ATOM     29  C   UNL     1      -6.776  17.121  22.185  0.00  0.00    +0.000 C 
ATOM     30  C   UNL     1      -7.752  15.210  23.394  0.00  0.00    +0.000 C 
ATOM     31  C   UNL     1      -7.915  14.019  24.294  0.00  0.00    +0.000 C 
ENDBRANCH  26  28
ENDBRANCH  25  26
ENDBRANCH   4  25
BRANCH   5  32
ATOM     32  O   UNL     1      -2.230  14.272  24.541  0.00  0.00    +0.000 OA
BRANCH  32  33
ATOM     33  C   UNL     1      -1.292  15.184  24.902  0.00  0.00    +0.000 C 
ATOM     34  C   UNL     1      -1.598  15.796  26.241  0.00  0.00    +0.000 C 
ATOM     35  O   UNL     1      -0.288  15.451  24.257  0.00  0.00    +0.000 OA
ENDBRANCH  32  33
ENDBRANCH   5  32
TORSDOF 13
ENDMDL
MODEL 2
REMARK VINA RESULT:      -5.7      3.308      5.692
REMARK  Name = 
REMARK  20 active torsions:
REMARK  status: ('A' for Active; 'I' for Inactive)
REMARK    1  A    between atoms: C_1  and  C_2
REMARK    2  A    between atoms: C_3  and  C_4
REMARK    3  A    between atoms: C_3  and  C_5
REMARK    4  A    between atoms: C_5  and  O_7
REMARK    5  A    between atoms: O_7  and  C_8
REMARK    6  A    between atoms: C_9  and  O_10
REMARK    7  A    between atoms: O_10  and  C_11
REMARK    8  A    between atoms: C_11  and  C_13
REMARK    9  A    between atoms: C_13  and  C_14
REMARK   10  A    between atoms: C_15  and  C_16
REMARK   11  A    between atoms: C_17  and  O_18
REMARK   12  A    between atoms: C_19  and  O_20
REMARK   13  A    between atoms: O_20  and  C_21
REMARK   14  A    between atoms: C_21  and  C_23
REMARK   15  A    between atoms: C_23  and  C_24
REMARK   16  A    between atoms: C_25  and  C_26
REMARK   17  A    between atoms: C_27  and  O_28
REMARK   18  A    between atoms: O_28  and  C_29
REMARK   19  A    between atoms: C_29  and  C_30
REMARK   20  A    between atoms: C_32  and  O_33
REMARK                            x       y       z     vdW  Elec       q    Type
REMARK                         _______ _______ _______ _____ _____    ______ ____
ROOT
ATOM      1  C   UNL     1       1.100  12.302  20.267  0.00  0.00    +0.000 C 
ATOM      2  C   UNL     1      -0.185  13.074  20.656  0.00  0.00    +0.000 C 
ATOM      3  C   UNL     1      -0.412  14.254  19.666  0.00  0.00    +0.000 C 
ATOM      4  C   UNL     1       0.777  15.241  19.604  0.00  0.00    +0.000 C 
ATOM      5  C   UNL     1       2.101  14.487  19.336  0.00  0.00    +0.000 C 
ATOM      6  C   UNL     1       2.312  13.272  20.263  0.00  0.00    +0.000 C 
ENDROOT
BRANCH   3   7
ATOM      7  O   UNL     1      -0.714  13.777  18.349  0.00  0.00    +0.000 OA
ATOM      8  H   UNL     1      -0.581  14.492  17.701  0.00  0.00    +0.000 HD
ENDBRANCH   3   7
BRANCH   6   9
ATOM      9  O   UNL     1       2.620  13.698  21.598  0.00  0.00    +0.000 OA
ATOM     10  H   UNL     1       2.895  12.920  22.118  0.00  0.00    +0.000 HD
ENDBRANCH   6   9
BRANCH   1  11
ATOM     11  O   UNL     1       0.924  11.670  18.965  0.00  0.00    +0.000 OA
BRANCH  11  12
ATOM     12  C   UNL     1       0.297  10.446  18.975  0.00  0.00    +0.000 C 
ATOM     13  O   UNL     1      -0.905  10.281  18.818  0.00  0.00    +0.000 OA
BRANCH  12  16
ATOM     14  C   UNL     1       0.825   8.703  21.561  0.00  0.00    +0.000 C 
ATOM     15  C   UNL     1       1.455   8.559  20.219  0.00  0.00    +0.000 C 
ATOM     16  C   UNL     1       1.240   9.291  19.109  0.00  0.00    +0.000 C 
ATOM     17  C   UNL     1       2.012   8.964  17.847  0.00  0.00    +0.000 C 
ENDBRANCH  12  16
ENDBRANCH  11  12
ENDBRANCH   1  11
BRANCH   2  18
ATOM     18  O   UNL     1      -0.181  13.572  22.017  0.00  0.00    +0.000 OA
BRANCH  18  19
ATOM     19  C   UNL     1      -0.933  12.858  22.904  0.00  0.00    +0.000 C 
ATOM     20  O   UNL     1      -0.766  11.682  23.179  0.00  0.00    +0.000 OA
BRANCH  19  21
ATOM     21  C   UNL     1      -2.073  13.662  23.418  0.00  0.00    +0.000 C 
ATOM     22  C   UNL     1      -1.812  14.635  24.531  0.00  0.00    +0.000 C 
ATOM     23  C   UNL     1      -3.283  13.644  22.815  0.00  0.00    +0.000 C 
ATOM     24  C   UNL     1      -3.767  12.803  21.674  0.00  0.00    +0.000 C 
ENDBRANCH  19  21
ENDBRANCH  18  19
ENDBRANCH   2  18
BRANCH   4  25
ATOM     25  O   UNL     1       0.818  16.019  20.828  0.00  0.00    +0.000 OA
BRANCH  25  26
ATOM     26  C   UNL     1       0.086  17.177  20.753  0.00  0.00    +0.000 C 
ATOM     27  O   UNL     1       0.158  17.975  19.831  0.00  0.00    +0.000 OA
BRANCH  26  28
ATOM     28  C   UNL     1      -0.852  17.333  21.900  0.00  0.00    +0.000 C 
ATOM     29  C   UNL     1      -0.314  17.807  23.219  0.00  0.00    +0.000 C 
ATOM     30  C   UNL     1      -2.176  17.105  21.768  0.00  0.00    +0.000 C 
ATOM     31  C   UNL     1      -2.966  16.639  20.579  0.00  0.00    +0.000 C 
ENDBRANCH  26  28
ENDBRANCH  25  26
ENDBRANCH   4  25
BRANCH   5  32
ATOM     32  O   UNL     1       3.243  15.381  19.455  0.00  0.00    +0.000 OA
BRANCH  32  33
ATOM     33  C   UNL     1       3.354  16.328  18.489  0.00  0.00    +0.000 C 
ATOM     34  C   UNL     1       3.533  15.715  17.127  0.00  0.00    +0.000 C 
ATOM     35  O   UNL     1       3.271  17.533  18.676  0.00  0.00    +0.000 OA
ENDBRANCH  32  33
ENDBRANCH   5  32
TORSDOF 13
ENDMDL
MODEL 3
REMARK VINA RESULT:      -5.6      3.164      5.570
REMARK  Name = 
REMARK  20 active torsions:
REMARK  status: ('A' for Active; 'I' for Inactive)
REMARK    1  A    between atoms: C_1  and  C_2
REMARK    2  A    between atoms: C_3  and  C_4
REMARK    3  A    between atoms: C_3  and  C_5
REMARK    4  A    between atoms: C_5  and  O_7
REMARK    5  A    between atoms: O_7  and  C_8
REMARK    6  A    between atoms: C_9  and  O_10
REMARK    7  A    between atoms: O_10  and  C_11
REMARK    8  A    between atoms: C_11  and  C_13
REMARK    9  A    between atoms: C_13  and  C_14
REMARK   10  A    between atoms: C_15  and  C_16
REMARK   11  A    between atoms: C_17  and  O_18
REMARK   12  A    between atoms: C_19  and  O_20
REMARK   13  A    between atoms: O_20  and  C_21
REMARK   14  A    between atoms: C_21  and  C_23
REMARK   15  A    between atoms: C_23  and  C_24
REMARK   16  A    between atoms: C_25  and  C_26
REMARK   17  A    between atoms: C_27  and  O_28
REMARK   18  A    between atoms: O_28  and  C_29
REMARK   19  A    between atoms: C_29  and  C_30
REMARK   20  A    between atoms: C_32  and  O_33
REMARK                            x       y       z     vdW  Elec       q    Type
REMARK                         _______ _______ _______ _____ _____    ______ ____
ROOT
ATOM      1  C   UNL     1       0.960  12.400  20.568  0.00  0.00    +0.000 C 
ATOM      2  C   UNL     1      -0.390  13.108  20.839  0.00  0.00    +0.000 C 
ATOM      3  C   UNL     1      -0.639  14.201  19.757  0.00  0.00    +0.000 C 
ATOM      4  C   UNL     1       0.486  15.258  19.683  0.00  0.00    +0.000 C 
ATOM      5  C   UNL     1       1.867  14.579  19.534  0.00  0.00    +0.000 C 
ATOM      6  C   UNL     1       2.107  13.446  20.554  0.00  0.00    +0.000 C 
ENDROOT
BRANCH   3   7
ATOM      7  O   UNL     1      -0.840  13.617  18.465  0.00  0.00    +0.000 OA
ATOM      8  H   UNL     1      -0.134  13.906  17.860  0.00  0.00    +0.000 HD
ENDBRANCH   3   7
BRANCH   6   9
ATOM      9  O   UNL     1       2.316  13.980  21.869  0.00  0.00    +0.000 OA
ATOM     10  H   UNL     1       2.562  13.250  22.467  0.00  0.00    +0.000 HD
ENDBRANCH   6   9
BRANCH   1  11
ATOM     11  O   UNL     1       0.894  11.671  19.307  0.00  0.00    +0.000 OA
BRANCH  11  12
ATOM     12  C   UNL     1       0.127  10.529  19.316  0.00  0.00    +0.000 C 
ATOM     13  O   UNL     1      -1.014  10.456  18.883  0.00  0.00    +0.000 OA
BRANCH  12  16
ATOM     14  C   UNL     1       2.226   8.749  17.757  0.00  0.00    +0.000 C 
ATOM     15  C   UNL     1       1.743   8.576  19.155  0.00  0.00    +0.000 C 
ATOM     16  C   UNL     1       0.852   9.325  19.833  0.00  0.00    +0.000 C 
ATOM     17  C   UNL     1       0.503   8.950  21.258  0.00  0.00    +0.000 C 
ENDBRANCH  12  16
ENDBRANCH  11  12
ENDBRANCH   1  11
BRANCH   2  18
ATOM     18  O   UNL     1      -0.490  13.696  22.159  0.00  0.00    +0.000 OA
BRANCH  18  19
ATOM     19  C   UNL     1      -1.210  12.975  23.068  0.00  0.00    +0.000 C 
ATOM     20  O   UNL     1      -1.042  11.794  23.319  0.00  0.00    +0.000 OA
BRANCH  19  21
ATOM     21  C   UNL     1      -2.321  13.782  23.641  0.00  0.00    +0.000 C 
ATOM     22  C   UNL     1      -1.988  14.808  24.685  0.00  0.00    +0.000 C 
ATOM     23  C   UNL     1      -3.576  13.717  23.143  0.00  0.00    +0.000 C 
ATOM     24  C   UNL     1      -4.135  12.818  22.084  0.00  0.00    +0.000 C 
ENDBRANCH  19  21
ENDBRANCH  18  19
ENDBRANCH   2  18
BRANCH   4  25
ATOM     25  O   UNL     1       0.412  16.118  20.851  0.00  0.00    +0.000 OA
BRANCH  25  26
ATOM     26  C   UNL     1      -0.421  17.193  20.673  0.00  0.00    +0.000 C 
ATOM     27  O   UNL     1      -0.438  17.890  19.670  0.00  0.00    +0.000 OA
BRANCH  26  28
ATOM     28  C   UNL     1      -1.347  17.391  21.823  0.00  0.00    +0.000 C 
ATOM     29  C   UNL     1      -0.822  18.028  23.077  0.00  0.00    +0.000 C 
ATOM     30  C   UNL     1      -2.653  17.056  21.747  0.00  0.00    +0.000 C 
ATOM     31  C   UNL     1      -3.427  16.421  20.628  0.00  0.00    +0.000 C 
ENDBRANCH  26  28
ENDBRANCH  25  26
ENDBRANCH   4  25
BRANCH   5  32
ATOM     32  O   UNL     1       2.942  15.553  19.645  0.00  0.00    +0.000 OA
BRANCH  32  33
ATOM     33  C   UNL     1       3.090  16.392  18.588  0.00  0.00    +0.000 C 
ATOM     34  C   UNL     1       3.531  15.656  17.352  0.00  0.00    +0.000 C 
ATOM     35  O   UNL     1       2.851  17.590  18.605  0.00  0.00    +0.000 OA
ENDBRANCH  32  33
ENDBRANCH   5  32
TORSDOF 13
ENDMDL
MODEL 4
REMARK VINA RESULT:      -5.6      3.148      6.906
REMARK  Name = 
REMARK  20 active torsions:
REMARK  status: ('A' for Active; 'I' for Inactive)
REMARK    1  A    between atoms: C_1  and  C_2
REMARK    2  A    between atoms: C_3  and  C_4
REMARK    3  A    between atoms: C_3  and  C_5
REMARK    4  A    between atoms: C_5  and  O_7
REMARK    5  A    between atoms: O_7  and  C_8
REMARK    6  A    between atoms: C_9  and  O_10
REMARK    7  A    between atoms: O_10  and  C_11
REMARK    8  A    between atoms: C_11  and  C_13
REMARK    9  A    between atoms: C_13  and  C_14
REMARK   10  A    between atoms: C_15  and  C_16
REMARK   11  A    between atoms: C_17  and  O_18
REMARK   12  A    between atoms: C_19  and  O_20
REMARK   13  A    between atoms: O_20  and  C_21
REMARK   14  A    between atoms: C_21  and  C_23
REMARK   15  A    between atoms: C_23  and  C_24
REMARK   16  A    between atoms: C_25  and  C_26
REMARK   17  A    between atoms: C_27  and  O_28
REMARK   18  A    between atoms: O_28  and  C_29
REMARK   19  A    between atoms: C_29  and  C_30
REMARK   20  A    between atoms: C_32  and  O_33
REMARK                            x       y       z     vdW  Elec       q    Type
REMARK                         _______ _______ _______ _____ _____    ______ ____
ROOT
ATOM      1  C   UNL     1       0.903  11.041  19.180  0.00  0.00    +0.000 C 
ATOM      2  C   UNL     1       0.933  11.691  20.585  0.00  0.00    +0.000 C 
ATOM      3  C   UNL     1      -0.369  11.332  21.360  0.00  0.00    +0.000 C 
ATOM      4  C   UNL     1      -1.660  11.763  20.625  0.00  0.00    +0.000 C 
ATOM      5  C   UNL     1      -1.667  11.230  19.173  0.00  0.00    +0.000 C 
ATOM      6  C   UNL     1      -0.358  11.516  18.409  0.00  0.00    +0.000 C 
ENDROOT
BRANCH   3   7
ATOM      7  O   UNL     1      -0.427   9.933  21.659  0.00  0.00    +0.000 OA
ATOM      8  H   UNL     1      -0.468   9.420  20.832  0.00  0.00    +0.000 HD
ENDBRANCH   3   7
BRANCH   6   9
ATOM      9  O   UNL     1      -0.253  12.909  18.083  0.00  0.00    +0.000 OA
ATOM     10  H   UNL     1      -0.734  13.425  18.758  0.00  0.00    +0.000 HD
ENDBRANCH   6   9
BRANCH   1  11
ATOM     11  O   UNL     1       0.930   9.588  19.304  0.00  0.00    +0.000 OA
BRANCH  11  12
ATOM     12  C   UNL     1       1.805   8.933  18.470  0.00  0.00    +0.000 C 
ATOM     13  O   UNL     1       2.190   9.363  17.392  0.00  0.00    +0.000 OA
BRANCH  12  16
ATOM     14  C   UNL     1       3.957   7.008  17.178  0.00  0.00    +0.000 C 
ATOM     15  C   UNL     1       3.248   6.843  18.477  0.00  0.00    +0.000 C 
ATOM     16  C   UNL     1       2.331   7.653  19.041  0.00  0.00    +0.000 C 
ATOM     17  C   UNL     1       1.732   7.273  20.380  0.00  0.00    +0.000 C 
ENDBRANCH  12  16
ENDBRANCH  11  12
ENDBRANCH   1  11
BRANCH   2  18
ATOM     18  O   UNL     1       1.106  13.130  20.562  0.00  0.00    +0.000 OA
BRANCH  18  19
ATOM     19  C   UNL     1       2.400  13.563  20.598  0.00  0.00    +0.000 C 
ATOM     20  O   UNL     1       3.183  13.363  21.511  0.00  0.00    +0.000 OA
BRANCH  19  21
ATOM     21  C   UNL     1       2.716  14.422  19.425  0.00  0.00    +0.000 C 
ATOM     22  C   UNL     1       3.254  13.765  18.187  0.00  0.00    +0.000 C 
ATOM     23  C   UNL     1       2.394  15.735  19.400  0.00  0.00    +0.000 C 
ATOM     24  C   UNL     1       1.814  16.594  20.481  0.00  0.00    +0.000 C 
ENDBRANCH  19  21
ENDBRANCH  18  19
ENDBRANCH   2  18
BRANCH   4  25
ATOM     25  O   UNL     1      -1.787  13.207  20.689  0.00  0.00    +0.000 OA
BRANCH  25  26
ATOM     26  C   UNL     1      -2.840  13.620  21.466  0.00  0.00    +0.000 C 
ATOM     27  O   UNL     1      -3.893  14.048  21.023  0.00  0.00    +0.000 OA
BRANCH  26  28
ATOM     28  C   UNL     1      -2.577  13.439  22.922  0.00  0.00    +0.000 C 
ATOM     29  C   UNL     1      -3.419  12.468  23.697  0.00  0.00    +0.000 C 
ATOM     30  C   UNL     1      -1.572  14.090  23.546  0.00  0.00    +0.000 C 
ATOM     31  C   UNL     1      -0.590  15.094  23.015  0.00  0.00    +0.000 C 
ENDBRANCH  26  28
ENDBRANCH  25  26
ENDBRANCH   4  25
BRANCH   5  32
ATOM     32  O   UNL     1      -2.786  11.778  18.423  0.00  0.00    +0.000 OA
BRANCH  32  33
ATOM     33  C   UNL     1      -3.213  11.035  17.370  0.00  0.00    +0.000 C 
ATOM     34  C   UNL     1      -3.303   9.575  17.721  0.00  0.00    +0.000 C 
ATOM     35  O   UNL     1      -3.536  11.484  16.280  0.00  0.00    +0.000 OA
ENDBRANCH  32  33
ENDBRANCH   5  32
TORSDOF 13
ENDMDL
MODEL 5
REMARK VINA RESULT:      -5.5      3.070      6.706
REMARK  Name = 
REMARK  20 active torsions:
REMARK  status: ('A' for Active; 'I' for Inactive)
REMARK    1  A    between atoms: C_1  and  C_2
REMARK    2  A    between atoms: C_3  and  C_4
REMARK    3  A    between atoms: C_3  and  C_5
REMARK    4  A    between atoms: C_5  and  O_7
REMARK    5  A    between atoms: O_7  and  C_8
REMARK    6  A    between atoms: C_9  and  O_10
REMARK    7  A    between atoms: O_10  and  C_11
REMARK    8  A    between atoms: C_11  and  C_13
REMARK    9  A    between atoms: C_13  and  C_14
REMARK   10  A    between atoms: C_15  and  C_16
REMARK   11  A    between atoms: C_17  and  O_18
REMARK   12  A    between atoms: C_19  and  O_20
REMARK   13  A    between atoms: O_20  and  C_21
REMARK   14  A    between atoms: C_21  and  C_23
REMARK   15  A    between atoms: C_23  and  C_24
REMARK   16  A    between atoms: C_25  and  C_26
REMARK   17  A    between atoms: C_27  and  O_28
REMARK   18  A    between atoms: O_28  and  C_29
REMARK   19  A    between atoms: C_29  and  C_30
REMARK   20  A    between atoms: C_32  and  O_33
REMARK                            x       y       z     vdW  Elec       q    Type
REMARK                         _______ _______ _______ _____ _____    ______ ____
ROOT
ATOM      1  C   UNL     1       0.894  11.127  19.227  0.00  0.00    +0.000 C 
ATOM      2  C   UNL     1       0.865  11.842  20.600  0.00  0.00    +0.000 C 
ATOM      3  C   UNL     1      -0.482  11.542  21.323  0.00  0.00    +0.000 C 
ATOM      4  C   UNL     1      -1.725  11.959  20.503  0.00  0.00    +0.000 C 
ATOM      5  C   UNL     1      -1.669  11.358  19.079  0.00  0.00    +0.000 C 
ATOM      6  C   UNL     1      -0.317  11.586  18.371  0.00  0.00    +0.000 C 
ENDROOT
BRANCH   3   7
ATOM      7  O   UNL     1      -0.582  10.159  21.683  0.00  0.00    +0.000 OA
ATOM      8  H   UNL     1      -1.115  10.067  22.493  0.00  0.00    +0.000 HD
ENDBRANCH   3   7
BRANCH   6   9
ATOM      9  O   UNL     1      -0.169  12.961  17.987  0.00  0.00    +0.000 OA
ATOM     10  H   UNL     1       0.617  13.327  18.434  0.00  0.00    +0.000 HD
ENDBRANCH   6   9
BRANCH   1  11
ATOM     11  O   UNL     1       0.886   9.682  19.420  0.00  0.00    +0.000 OA
BRANCH  11  12
ATOM     12  C   UNL     1       1.730   8.965  18.604  0.00  0.00    +0.000 C 
ATOM     13  O   UNL     1       2.116   9.339  17.504  0.00  0.00    +0.000 OA
BRANCH  12  16
ATOM     14  C   UNL     1       3.829   6.938  17.382  0.00  0.00    +0.000 C 
ATOM     15  C   UNL     1       3.118   6.839  18.687  0.00  0.00    +0.000 C 
ATOM     16  C   UNL     1       2.224   7.694  19.221  0.00  0.00    +0.000 C 
ATOM     17  C   UNL     1       1.617   7.379  20.574  0.00  0.00    +0.000 C 
ENDBRANCH  12  16
ENDBRANCH  11  12
ENDBRANCH   1  11
BRANCH   2  18
ATOM     18  O   UNL     1       1.067  13.275  20.519  0.00  0.00    +0.000 OA
BRANCH  18  19
ATOM     19  C   UNL     1       2.367  13.686  20.577  0.00  0.00    +0.000 C 
ATOM     20  O   UNL     1       3.130  13.476  21.505  0.00  0.00    +0.000 OA
BRANCH  19  21
ATOM     21  C   UNL     1       2.719  14.535  19.408  0.00  0.00    +0.000 C 
ATOM     22  C   UNL     1       3.302  13.869  18.195  0.00  0.00    +0.000 C 
ATOM     23  C   UNL     1       2.391  15.846  19.359  0.00  0.00    +0.000 C 
ATOM     24  C   UNL     1       1.770  16.713  20.411  0.00  0.00    +0.000 C 
ENDBRANCH  19  21
ENDBRANCH  18  19
ENDBRANCH   2  18
BRANCH   4  25
ATOM     25  O   UNL     1      -1.828  13.407  20.493  0.00  0.00    +0.000 OA
BRANCH  25  26
ATOM     26  C   UNL     1      -2.952  13.870  21.127  0.00  0.00    +0.000 C 
ATOM     27  O   UNL     1      -4.081  13.790  20.668  0.00  0.00    +0.000 OA
BRANCH  26  28
ATOM     28  C   UNL     1      -2.654  14.438  22.472  0.00  0.00    +0.000 C 
ATOM     29  C   UNL     1      -2.119  15.837  22.567  0.00  0.00    +0.000 C 
ATOM     30  C   UNL     1      -2.896  13.743  23.605  0.00  0.00    +0.000 C 
ATOM     31  C   UNL     1      -3.427  12.351  23.792  0.00  0.00    +0.000 C 
ENDBRANCH  26  28
ENDBRANCH  25  26
ENDBRANCH   4  25
BRANCH   5  32
ATOM     32  O   UNL     1      -2.737  11.890  18.247  0.00  0.00    +0.000 OA
BRANCH  32  33
ATOM     33  C   UNL     1      -3.794  11.063  18.043  0.00  0.00    +0.000 C 
ATOM     34  C   UNL     1      -3.370   9.764  17.414  0.00  0.00    +0.000 C 
ATOM     35  O   UNL     1      -4.946  11.305  18.369  0.00  0.00    +0.000 OA
ENDBRANCH  32  33
ENDBRANCH   5  32
TORSDOF 13
ENDMDL
MODEL 6
REMARK VINA RESULT:      -5.5      3.349      6.927
REMARK  Name = 
REMARK  20 active torsions:
REMARK  status: ('A' for Active; 'I' for Inactive)
REMARK    1  A    between atoms: C_1  and  C_2
REMARK    2  A    between atoms: C_3  and  C_4
REMARK    3  A    between atoms: C_3  and  C_5
REMARK    4  A    between atoms: C_5  and  O_7
REMARK    5  A    between atoms: O_7  and  C_8
REMARK    6  A    between atoms: C_9  and  O_10
REMARK    7  A    between atoms: O_10  and  C_11
REMARK    8  A    between atoms: C_11  and  C_13
REMARK    9  A    between atoms: C_13  and  C_14
REMARK   10  A    between atoms: C_15  and  C_16
REMARK   11  A    between atoms: C_17  and  O_18
REMARK   12  A    between atoms: C_19  and  O_20
REMARK   13  A    between atoms: O_20  and  C_21
REMARK   14  A    between atoms: C_21  and  C_23
REMARK   15  A    between atoms: C_23  and  C_24
REMARK   16  A    between atoms: C_25  and  C_26
REMARK   17  A    between atoms: C_27  and  O_28
REMARK   18  A    between atoms: O_28  and  C_29
REMARK   19  A    between atoms: C_29  and  C_30
REMARK   20  A    between atoms: C_32  and  O_33
REMARK                            x       y       z     vdW  Elec       q    Type
REMARK                         _______ _______ _______ _____ _____    ______ ____
ROOT
ATOM      1  C   UNL     1       0.386  11.176  18.571  0.00  0.00    +0.000 C 
ATOM      2  C   UNL     1       0.810  12.165  19.685  0.00  0.00    +0.000 C 
ATOM      3  C   UNL     1      -0.208  12.102  20.862  0.00  0.00    +0.000 C 
ATOM      4  C   UNL     1      -1.662  12.408  20.434  0.00  0.00    +0.000 C 
ATOM      5  C   UNL     1      -2.080  11.518  19.240  0.00  0.00    +0.000 C 
ATOM      6  C   UNL     1      -1.051  11.514  18.090  0.00  0.00    +0.000 C 
ENDROOT
BRANCH   3   7
ATOM      7  O   UNL     1      -0.156  10.834  21.527  0.00  0.00    +0.000 OA
ATOM      8  H   UNL     1      -0.631  10.887  22.375  0.00  0.00    +0.000 HD
ENDBRANCH   3   7
BRANCH   6   9
ATOM      9  O   UNL     1      -1.065  12.766  17.389  0.00  0.00    +0.000 OA
ATOM     10  H   UNL     1      -0.168  12.945  17.051  0.00  0.00    +0.000 HD
ENDBRANCH   6   9
BRANCH   1  11
ATOM     11  O   UNL     1       0.469   9.807  19.066  0.00  0.00    +0.000 OA
BRANCH  11  12
ATOM     12  C   UNL     1       1.535   9.070  18.606  0.00  0.00    +0.000 C 
ATOM     13  O   UNL     1       2.171   9.325  17.593  0.00  0.00    +0.000 OA
BRANCH  12  16
ATOM     14  C   UNL     1       3.186   6.480  17.849  0.00  0.00    +0.000 C 
ATOM     15  C   UNL     1       2.627   6.849  19.180  0.00  0.00    +0.000 C 
ATOM     16  C   UNL     1       1.924   7.947  19.517  0.00  0.00    +0.000 C 
ATOM     17  C   UNL     1       1.444   8.107  20.946  0.00  0.00    +0.000 C 
ENDBRANCH  12  16
ENDBRANCH  11  12
ENDBRANCH   1  11
BRANCH   2  18
ATOM     18  O   UNL     1       0.948  13.535  19.232  0.00  0.00    +0.000 OA
BRANCH  18  19
ATOM     19  C   UNL     1       2.227  13.946  18.995  0.00  0.00    +0.000 C 
ATOM     20  O   UNL     1       2.992  13.436  18.194  0.00  0.00    +0.000 OA
BRANCH  19  21
ATOM     21  C   UNL     1       2.628  15.035  19.926  0.00  0.00    +0.000 C 
ATOM     22  C   UNL     1       3.336  14.660  21.195  0.00  0.00    +0.000 C 
ATOM     23  C   UNL     1       2.505  16.338  19.588  0.00  0.00    +0.000 C 
ATOM     24  C   UNL     1       1.882  16.953  18.372  0.00  0.00    +0.000 C 
ENDBRANCH  19  21
ENDBRANCH  18  19
ENDBRANCH   2  18
BRANCH   4  25
ATOM     25  O   UNL     1      -1.787  13.825  20.144  0.00  0.00    +0.000 OA
BRANCH  25  26
ATOM     26  C   UNL     1      -2.080  14.576  21.254  0.00  0.00    +0.000 C 
ATOM     27  O   UNL     1      -3.054  14.394  21.968  0.00  0.00    +0.000 OA
BRANCH  26  28
ATOM     28  C   UNL     1      -1.047  15.614  21.527  0.00  0.00    +0.000 C 
ATOM     29  C   UNL     1      -0.031  15.362  22.603  0.00  0.00    +0.000 C 
ATOM     30  C   UNL     1      -0.974  16.750  20.800  0.00  0.00    +0.000 C 
ATOM     31  C   UNL     1      -1.845  17.241  19.680  0.00  0.00    +0.000 C 
ENDBRANCH  26  28
ENDBRANCH  25  26
ENDBRANCH   4  25
BRANCH   5  32
ATOM     32  O   UNL     1      -3.376  11.923  18.717  0.00  0.00    +0.000 OA
BRANCH  32  33
ATOM     33  C   UNL     1      -3.978  11.039  17.882  0.00  0.00    +0.000 C 
ATOM     34  C   UNL     1      -4.851  11.733  16.873  0.00  0.00    +0.000 C 
ATOM     35  O   UNL     1      -3.805   9.829  17.900  0.00  0.00    +0.000 OA
ENDBRANCH  32  33
ENDBRANCH   5  32
TORSDOF 13
ENDMDL
MODEL 7
REMARK VINA RESULT:      -5.4      3.059      6.564
REMARK  Name = 
REMARK  20 active torsions:
REMARK  status: ('A' for Active; 'I' for Inactive)
REMARK    1  A    between atoms: C_1  and  C_2
REMARK    2  A    between atoms: C_3  and  C_4
REMARK    3  A    between atoms: C_3  and  C_5
REMARK    4  A    between atoms: C_5  and  O_7
REMARK    5  A    between atoms: O_7  and  C_8
REMARK    6  A    between atoms: C_9  and  O_10
REMARK    7  A    between atoms: O_10  and  C_11
REMARK    8  A    between atoms: C_11  and  C_13
REMARK    9  A    between atoms: C_13  and  C_14
REMARK   10  A    between atoms: C_15  and  C_16
REMARK   11  A    between atoms: C_17  and  O_18
REMARK   12  A    between atoms: C_19  and  O_20
REMARK   13  A    between atoms: O_20  and  C_21
REMARK   14  A    between atoms: C_21  and  C_23
REMARK   15  A    between atoms: C_23  and  C_24
REMARK   16  A    between atoms: C_25  and  C_26
REMARK   17  A    between atoms: C_27  and  O_28
REMARK   18  A    between atoms: O_28  and  C_29
REMARK   19  A    between atoms: C_29  and  C_30
REMARK   20  A    between atoms: C_32  and  O_33
REMARK                            x       y       z     vdW  Elec       q    Type
REMARK                         _______ _______ _______ _____ _____    ______ ____
ROOT
ATOM      1  C   UNL     1       0.485  11.297  18.879  0.00  0.00    +0.000 C 
ATOM      2  C   UNL     1       0.675  12.159  20.151  0.00  0.00    +0.000 C 
ATOM      3  C   UNL     1      -0.502  11.908  21.140  0.00  0.00    +0.000 C 
ATOM      4  C   UNL     1      -1.891  12.199  20.528  0.00  0.00    +0.000 C 
ATOM      5  C   UNL     1      -2.069  11.445  19.189  0.00  0.00    +0.000 C 
ATOM      6  C   UNL     1      -0.881  11.627  18.221  0.00  0.00    +0.000 C 
ENDROOT
BRANCH   3   7
ATOM      7  O   UNL     1      -0.471  10.572  21.655  0.00  0.00    +0.000 OA
ATOM      8  H   UNL     1      -0.962  10.531  22.495  0.00  0.00    +0.000 HD
ENDBRANCH   3   7
BRANCH   6   9
ATOM      9  O   UNL     1      -0.869  12.954  17.675  0.00  0.00    +0.000 OA
ATOM     10  H   UNL     1       0.034  13.154  17.362  0.00  0.00    +0.000 HD
ENDBRANCH   6   9
BRANCH   1  11
ATOM     11  O   UNL     1       0.579   9.882  19.220  0.00  0.00    +0.000 OA
BRANCH  11  12
ATOM     12  C   UNL     1       1.560   9.174  18.567  0.00  0.00    +0.000 C 
ATOM     13  O   UNL     1       2.056   9.499  17.498  0.00  0.00    +0.000 OA
BRANCH  12  16
ATOM     14  C   UNL     1       3.523   6.917  17.538  0.00  0.00    +0.000 C 
ATOM     15  C   UNL     1       2.884   7.029  18.879  0.00  0.00    +0.000 C 
ATOM     16  C   UNL     1       2.048   7.983  19.332  0.00  0.00    +0.000 C 
ATOM     17  C   UNL     1       1.510   7.884  20.745  0.00  0.00    +0.000 C 
ENDBRANCH  12  16
ENDBRANCH  11  12
ENDBRANCH   1  11
BRANCH   2  18
ATOM     18  O   UNL     1       0.793  13.579  19.885  0.00  0.00    +0.000 OA
BRANCH  18  19
ATOM     19  C   UNL     1       1.898  14.182  20.412  0.00  0.00    +0.000 C 
ATOM     20  O   UNL     1       2.509  13.795  21.394  0.00  0.00    +0.000 OA
BRANCH  19  21
ATOM     21  C   UNL     1       2.209  15.455  19.707  0.00  0.00    +0.000 C 
ATOM     22  C   UNL     1       1.483  16.698  20.133  0.00  0.00    +0.000 C 
ATOM     23  C   UNL     1       3.219  15.543  18.813  0.00  0.00    +0.000 C 
ATOM     24  C   UNL     1       4.105  14.465  18.268  0.00  0.00    +0.000 C 
ENDBRANCH  19  21
ENDBRANCH  18  19
ENDBRANCH   2  18
BRANCH   4  25
ATOM     25  O   UNL     1      -2.060  13.634  20.385  0.00  0.00    +0.000 OA
BRANCH  25  26
ATOM     26  C   UNL     1      -2.579  14.228  21.508  0.00  0.00    +0.000 C 
ATOM     27  O   UNL     1      -1.963  15.006  22.220  0.00  0.00    +0.000 OA
BRANCH  26  28
ATOM     28  C   UNL     1      -4.003  13.858  21.741  0.00  0.00    +0.000 C 
ATOM     29  C   UNL     1      -5.047  14.348  20.780  0.00  0.00    +0.000 C 
ATOM     30  C   UNL     1      -4.369  13.056  22.764  0.00  0.00    +0.000 C 
ATOM     31  C   UNL     1      -3.541  12.431  23.849  0.00  0.00    +0.000 C 
ENDBRANCH  26  28
ENDBRANCH  25  26
ENDBRANCH   4  25
BRANCH   5  32
ATOM     32  O   UNL     1      -3.295  11.854  18.520  0.00  0.00    +0.000 OA
BRANCH  32  33
ATOM     33  C   UNL     1      -3.854  10.931  17.696  0.00  0.00    +0.000 C 
ATOM     34  C   UNL     1      -4.714  11.574  16.644  0.00  0.00    +0.000 C 
ATOM     35  O   UNL     1      -3.654   9.727  17.755  0.00  0.00    +0.000 OA
ENDBRANCH  32  33
ENDBRANCH   5  32
TORSDOF 13
ENDMDL
MODEL 8
REMARK VINA RESULT:      -5.4      3.190      6.629
REMARK  Name = 
REMARK  20 active torsions:
REMARK  status: ('A' for Active; 'I' for Inactive)
REMARK    1  A    between atoms: C_1  and  C_2
REMARK    2  A    between atoms: C_3  and  C_4
REMARK    3  A    between atoms: C_3  and  C_5
REMARK    4  A    between atoms: C_5  and  O_7
REMARK    5  A    between atoms: O_7  and  C_8
REMARK    6  A    between atoms: C_9  and  O_10
REMARK    7  A    between atoms: O_10  and  C_11
REMARK    8  A    between atoms: C_11  and  C_13
REMARK    9  A    between atoms: C_13  and  C_14
REMARK   10  A    between atoms: C_15  and  C_16
REMARK   11  A    between atoms: C_17  and  O_18
REMARK   12  A    between atoms: C_19  and  O_20
REMARK   13  A    between atoms: O_20  and  C_21
REMARK   14  A    between atoms: C_21  and  C_23
REMARK   15  A    between atoms: C_23  and  C_24
REMARK   16  A    between atoms: C_25  and  C_26
REMARK   17  A    between atoms: C_27  and  O_28
REMARK   18  A    between atoms: O_28  and  C_29
REMARK   19  A    between atoms: C_29  and  C_30
REMARK   20  A    between atoms: C_32  and  O_33
REMARK                            x       y       z     vdW  Elec       q    Type
REMARK                         _______ _______ _______ _____ _____    ______ ____
ROOT
ATOM      1  C   UNL     1       0.480  11.335  18.720  0.00  0.00    +0.000 C 
ATOM      2  C   UNL     1       0.783  12.361  19.840  0.00  0.00    +0.000 C 
ATOM      3  C   UNL     1      -0.277  12.234  20.974  0.00  0.00    +0.000 C 
ATOM      4  C   UNL     1      -1.729  12.430  20.481  0.00  0.00    +0.000 C 
ATOM      5  C   UNL     1      -2.030  11.503  19.280  0.00  0.00    +0.000 C 
ATOM      6  C   UNL     1      -0.955  11.563  18.175  0.00  0.00    +0.000 C 
ENDROOT
BRANCH   3   7
ATOM      7  O   UNL     1      -0.162  10.979  21.654  0.00  0.00    +0.000 OA
ATOM      8  H   UNL     1      -0.692  10.997  22.471  0.00  0.00    +0.000 HD
ENDBRANCH   3   7
BRANCH   6   9
ATOM      9  O   UNL     1      -1.030  12.805  17.460  0.00  0.00    +0.000 OA
ATOM     10  H   UNL     1      -0.464  13.460  17.912  0.00  0.00    +0.000 HD
ENDBRANCH   6   9
BRANCH   1  11
ATOM     11  O   UNL     1       0.641   9.980  19.233  0.00  0.00    +0.000 OA
BRANCH  11  12
ATOM     12  C   UNL     1       1.544   9.190  18.560  0.00  0.00    +0.000 C 
ATOM     13  O   UNL     1       2.008   9.449  17.459  0.00  0.00    +0.000 OA
BRANCH  12  16
ATOM     14  C   UNL     1       3.561   6.941  17.622  0.00  0.00    +0.000 C 
ATOM     15  C   UNL     1       2.854   7.045  18.929  0.00  0.00    +0.000 C 
ATOM     16  C   UNL     1       1.994   7.996  19.344  0.00  0.00    +0.000 C 
ATOM     17  C   UNL     1       1.384   7.889  20.726  0.00  0.00    +0.000 C 
ENDBRANCH  12  16
ENDBRANCH  11  12
ENDBRANCH   1  11
BRANCH   2  18
ATOM     18  O   UNL     1       0.842  13.733  19.378  0.00  0.00    +0.000 OA
BRANCH  18  19
ATOM     19  C   UNL     1       2.005  14.393  19.649  0.00  0.00    +0.000 C 
ATOM     20  O   UNL     1       3.108  14.067  19.246  0.00  0.00    +0.000 OA
BRANCH  19  21
ATOM     21  C   UNL     1       1.784  15.510  20.607  0.00  0.00    +0.000 C 
ATOM     22  C   UNL     1       2.131  15.288  22.050  0.00  0.00    +0.000 C 
ATOM     23  C   UNL     1       1.426  16.744  20.187  0.00  0.00    +0.000 C 
ATOM     24  C   UNL     1       1.075  17.217  18.809  0.00  0.00    +0.000 C 
ENDBRANCH  19  21
ENDBRANCH  18  19
ENDBRANCH   2  18
BRANCH   4  25
ATOM     25  O   UNL     1      -1.944  13.831  20.170  0.00  0.00    +0.000 OA
BRANCH  25  26
ATOM     26  C   UNL     1      -2.757  14.464  21.076  0.00  0.00    +0.000 C 
ATOM     27  O   UNL     1      -3.875  14.078  21.380  0.00  0.00    +0.000 OA
BRANCH  26  28
ATOM     28  C   UNL     1      -2.104  15.652  21.693  0.00  0.00    +0.000 C 
ATOM     29  C   UNL     1      -2.188  16.975  20.988  0.00  0.00    +0.000 C 
ATOM     30  C   UNL     1      -1.482  15.578  22.890  0.00  0.00    +0.000 C 
ATOM     31  C   UNL     1      -1.263  14.401  23.796  0.00  0.00    +0.000 C 
ENDBRANCH  26  28
ENDBRANCH  25  26
ENDBRANCH   4  25
BRANCH   5  32
ATOM     32  O   UNL     1      -3.328  11.808  18.698  0.00  0.00    +0.000 OA
BRANCH  32  33
ATOM     33  C   UNL     1      -3.818  10.887  17.831  0.00  0.00    +0.000 C 
ATOM     34  C   UNL     1      -4.497  11.535  16.656  0.00  0.00    +0.000 C 
ATOM     35  O   UNL     1      -3.688   9.677  17.946  0.00  0.00    +0.000 OA
ENDBRANCH  32  33
ENDBRANCH   5  32
TORSDOF 13
ENDMDL
MODEL 9
REMARK VINA RESULT:      -5.4      2.126      5.377
REMARK  Name = 
REMARK  20 active torsions:
REMARK  status: ('A' for Active; 'I' for Inactive)
REMARK    1  A    between atoms: C_1  and  C_2
REMARK    2  A    between atoms: C_3  and  C_4
REMARK    3  A    between atoms: C_3  and  C_5
REMARK    4  A    between atoms: C_5  and  O_7
REMARK    5  A    between atoms: O_7  and  C_8
REMARK    6  A    between atoms: C_9  and  O_10
REMARK    7  A    between atoms: O_10  and  C_11
REMARK    8  A    between atoms: C_11  and  C_13
REMARK    9  A    between atoms: C_13  and  C_14
REMARK   10  A    between atoms: C_15  and  C_16
REMARK   11  A    between atoms: C_17  and  O_18
REMARK   12  A    between atoms: C_19  and  O_20
REMARK   13  A    between atoms: O_20  and  C_21
REMARK   14  A    between atoms: C_21  and  C_23
REMARK   15  A    between atoms: C_23  and  C_24
REMARK   16  A    between atoms: C_25  and  C_26
REMARK   17  A    between atoms: C_27  and  O_28
REMARK   18  A    between atoms: O_28  and  C_29
REMARK   19  A    between atoms: C_29  and  C_30
REMARK   20  A    between atoms: C_32  and  O_33
REMARK                            x       y       z     vdW  Elec       q    Type
REMARK                         _______ _______ _______ _____ _____    ______ ____
ROOT
ATOM      1  C   UNL     1      -0.905  12.335  20.483  0.00  0.00    +0.000 C 
ATOM      2  C   UNL     1      -0.381  12.804  21.863  0.00  0.00    +0.000 C 
ATOM      3  C   UNL     1      -1.376  12.371  22.980  0.00  0.00    +0.000 C 
ATOM      4  C   UNL     1      -2.810  12.909  22.769  0.00  0.00    +0.000 C 
ATOM      5  C   UNL     1      -3.321  12.562  21.351  0.00  0.00    +0.000 C 
ATOM      6  C   UNL     1      -2.321  12.921  20.233  0.00  0.00    +0.000 C 
ENDROOT
BRANCH   3   7
ATOM      7  O   UNL     1      -1.410  10.946  23.122  0.00  0.00    +0.000 OA
ATOM      8  H   UNL     1      -1.536  10.711  24.059  0.00  0.00    +0.000 HD
ENDBRANCH   3   7
BRANCH   6   9
ATOM      9  O   UNL     1      -2.251  14.343  20.051  0.00  0.00    +0.000 OA
ATOM     10  H   UNL     1      -3.138  14.721  20.199  0.00  0.00    +0.000 HD
ENDBRANCH   6   9
BRANCH   1  11
ATOM     11  O   UNL     1      -0.920  10.878  20.428  0.00  0.00    +0.000 OA
BRANCH  11  12
ATOM     12  C   UNL     1      -0.537  10.322  19.229  0.00  0.00    +0.000 C 
ATOM     13  O   UNL     1      -1.171  10.415  18.187  0.00  0.00    +0.000 OA
BRANCH  12  16
ATOM     14  C   UNL     1       0.565   8.444  21.524  0.00  0.00    +0.000 C 
ATOM     15  C   UNL     1       1.254   8.851  20.268  0.00  0.00    +0.000 C 
ATOM     16  C   UNL     1       0.798   9.647  19.282  0.00  0.00    +0.000 C 
ATOM     17  C   UNL     1       1.689   9.932  18.090  0.00  0.00    +0.000 C 
ENDBRANCH  12  16
ENDBRANCH  11  12
ENDBRANCH   1  11
BRANCH   2  18
ATOM     18  O   UNL     1      -0.145  14.232  21.946  0.00  0.00    +0.000 OA
BRANCH  18  19
ATOM     19  C   UNL     1       1.102  14.641  21.570  0.00  0.00    +0.000 C 
ATOM     20  O   UNL     1       2.116  14.496  22.230  0.00  0.00    +0.000 OA
BRANCH  19  21
ATOM     21  C   UNL     1       1.060  15.401  20.292  0.00  0.00    +0.000 C 
ATOM     22  C   UNL     1       0.569  16.819  20.324  0.00  0.00    +0.000 C 
ATOM     23  C   UNL     1       1.587  14.901  19.152  0.00  0.00    +0.000 C 
ATOM     24  C   UNL     1       2.169  13.547  18.885  0.00  0.00    +0.000 C 
ENDBRANCH  19  21
ENDBRANCH  18  19
ENDBRANCH   2  18
BRANCH   4  25
ATOM     25  O   UNL     1      -2.829  14.337  23.033  0.00  0.00    +0.000 OA
BRANCH  25  26
ATOM     26  C   UNL     1      -3.677  14.682  24.055  0.00  0.00    +0.000 C 
ATOM     27  O   UNL     1      -4.775  14.179  24.234  0.00  0.00    +0.000 OA
BRANCH  26  28
ATOM     28  C   UNL     1      -3.089  15.708  24.960  0.00  0.00    +0.000 C 
ATOM     29  C   UNL     1      -1.807  15.396  25.677  0.00  0.00    +0.000 C 
ATOM     30  C   UNL     1      -3.655  16.925  25.115  0.00  0.00    +0.000 C 
ATOM     31  C   UNL     1      -4.912  17.491  24.520  0.00  0.00    +0.000 C 
ENDBRANCH  26  28
ENDBRANCH  25  26
ENDBRANCH   4  25
BRANCH   5  32
ATOM     32  O   UNL     1      -4.592  13.217  21.081  0.00  0.00    +0.000 OA
BRANCH  32  33
ATOM     33  C   UNL     1      -5.685  12.412  21.089  0.00  0.00    +0.000 C 
ATOM     34  C   UNL     1      -6.068  11.981  19.700  0.00  0.00    +0.000 C 
ATOM     35  O   UNL     1      -6.268  12.031  22.094  0.00  0.00    +0.000 OA
ENDBRANCH  32  33
ENDBRANCH   5  32
TORSDOF 13
ENDMDL
