MODEL 1
REMARK VINA RESULT:      -9.1      0.000      0.000
REMARK  Name = 
REMARK  10 active torsions:
REMARK  status: ('A' for Active; 'I' for Inactive)
REMARK    1  A    between atoms: C_1  and  O_2
REMARK    2  A    between atoms: O_2  and  C_3
REMARK    3  A    between atoms: C_5  and  N_6
REMARK    4  A    between atoms: N_6  and  C_7
REMARK    5  A    between atoms: C_7  and  C_8
REMARK    6  A    between atoms: C_15  and  N_16
REMARK    7  A    between atoms: C_22  and  N_23
REMARK    8  A    between atoms: N_23  and  C_24
REMARK    9  A    between atoms: C_29  and  N_30
REMARK   10  A    between atoms: C_31  and  C_32
REMARK                            x       y       z     vdW  Elec       q    Type
REMARK                         _______ _______ _______ _____ _____    ______ ____
ROOT
ATOM      1  N   UNL     1       6.061   4.392  18.671  0.00  0.00    +0.000 N 
ATOM      2  C   UNL     1       4.893   4.058  19.356  0.00  0.00    +0.000 A 
ATOM      3  N   UNL     1       4.781   2.789  19.770  0.00  0.00    +0.000 NA
ATOM      4  C   UNL     1       3.647   2.468  20.432  0.00  0.00    +0.000 A 
ATOM      5  C   UNL     1       2.620   3.352  20.675  0.00  0.00    +0.000 A 
ATOM      6 CL   UNL     1       1.192   2.833  21.482  0.00  0.00    +0.000 Cl
ATOM      7  C   UNL     1       2.833   4.655  20.269  0.00  0.00    +0.000 A 
ATOM      8  N   UNL     1       3.960   4.978  19.606  0.00  0.00    +0.000 NA
ATOM      9  H   UNL     1       6.601   3.560  18.535  0.00  0.00    +0.000 HD
ENDROOT
BRANCH   1  15
ATOM     10  C   UNL     1       6.298   6.470  17.341  0.00  0.00    +0.000 A 
ATOM     11  C   UNL     1       7.011   7.666  17.104  0.00  0.00    +0.000 A 
ATOM     12  C   UNL     1       8.131   8.041  17.856  0.00  0.00    +0.000 A 
ATOM     13  C   UNL     1       8.433   7.260  18.960  0.00  0.00    +0.000 A 
ATOM     14  C   UNL     1       7.712   6.093  19.228  0.00  0.00    +0.000 A 
ATOM     15  C   UNL     1       6.664   5.633  18.412  0.00  0.00    +0.000 A 
BRANCH  10  17
ATOM     16  C   UNL     1       5.414   5.518  15.312  0.00  0.00    +0.000 C 
ATOM     17  O   UNL     1       5.249   6.323  16.467  0.00  0.00    +0.000 OA
ENDBRANCH  10  17
BRANCH  12  18
ATOM     18  N   UNL     1       8.794   9.235  17.567  0.00  0.00    +0.000 N 
ATOM     19  H   UNL     1       9.627   9.075  17.007  0.00  0.00    +0.000 HD
BRANCH  18  20
ATOM     20  C   UNL     1       9.096  10.149  18.674  0.00  0.00    +0.000 C 
BRANCH  20  21
ATOM     21  C   UNL     1       9.743  11.402  18.193  0.00  0.00    +0.000 A 
ATOM     22  C   UNL     1      11.047  11.706  17.858  0.00  0.00    +0.000 A 
ATOM     23  C   UNL     1      11.062  13.082  17.537  0.00  0.00    +0.000 A 
ATOM     24  C   UNL     1       9.770  13.527  17.685  0.00  0.00    +0.000 A 
ATOM     25  O   UNL     1       8.958  12.512  18.082  0.00  0.00    +0.000 OA
ENDBRANCH  20  21
ENDBRANCH  18  20
ENDBRANCH  12  18
ENDBRANCH   1  15
BRANCH   7  26
ATOM     26  N   UNL     1       1.908   5.707  20.535  0.00  0.00    +0.000 N 
ATOM     27  H   UNL     1       0.992   5.312  20.706  0.00  0.00    +0.000 HD
BRANCH  26  28
ATOM     28  C   UNL     1       1.902   6.928  19.793  0.00  0.00    +0.000 A 
ATOM     29  C   UNL     1       2.323   6.877  18.441  0.00  0.00    +0.000 A 
ATOM     30  C   UNL     1       2.225   7.975  17.590  0.00  0.00    +0.000 A 
ATOM     31  C   UNL     1       1.741   9.170  18.085  0.00  0.00    +0.000 A 
ATOM     32  C   UNL     1       1.391   9.271  19.431  0.00  0.00    +0.000 A 
ATOM     33  C   UNL     1       1.470   8.172  20.310  0.00  0.00    +0.000 A 
BRANCH  33  34
ATOM     34  N   UNL     1       1.158   8.332  21.690  0.00  0.00    +0.000 N 
ATOM     35  C   UNL     1       0.223   9.217  22.211  0.00  0.00    +0.000 C 
ATOM     36  C   UNL     1       0.243   9.332  23.714  0.00  0.00    +0.000 C 
ATOM     37  O   UNL     1      -0.601   9.871  21.576  0.00  0.00    +0.000 OA
ATOM     38  H   UNL     1       1.672   7.760  22.342  0.00  0.00    +0.000 HD
ENDBRANCH  33  34
ENDBRANCH  26  28
ENDBRANCH   7  26
TORSDOF 8
ENDMDL
MODEL 2
REMARK VINA RESULT:      -8.9      3.722      6.172
REMARK  Name = 
REMARK  10 active torsions:
REMARK  status: ('A' for Active; 'I' for Inactive)
REMARK    1  A    between atoms: C_1  and  O_2
REMARK    2  A    between atoms: O_2  and  C_3
REMARK    3  A    between atoms: C_5  and  N_6
REMARK    4  A    between atoms: N_6  and  C_7
REMARK    5  A    between atoms: C_7  and  C_8
REMARK    6  A    between atoms: C_15  and  N_16
REMARK    7  A    between atoms: C_22  and  N_23
REMARK    8  A    between atoms: N_23  and  C_24
REMARK    9  A    between atoms: C_29  and  N_30
REMARK   10  A    between atoms: C_31  and  C_32
REMARK                            x       y       z     vdW  Elec       q    Type
REMARK                         _______ _______ _______ _____ _____    ______ ____
ROOT
ATOM      1  N   UNL     1       1.758   6.907  20.816  0.00  0.00    +0.000 N 
ATOM      2  C   UNL     1       1.203   8.154  21.100  0.00  0.00    +0.000 A 
ATOM      3  N   UNL     1       1.010   8.445  22.394  0.00  0.00    +0.000 NA
ATOM      4  C   UNL     1       0.470   9.654  22.667  0.00  0.00    +0.000 A 
ATOM      5  C   UNL     1       0.096  10.566  21.705  0.00  0.00    +0.000 A 
ATOM      6 CL   UNL     1      -0.633  12.059  22.152  0.00  0.00    +0.000 Cl
ATOM      7  C   UNL     1       0.379  10.218  20.398  0.00  0.00    +0.000 A 
ATOM      8  N   UNL     1       0.914   9.014  20.123  0.00  0.00    +0.000 NA
ATOM      9  H   UNL     1       1.846   6.393  21.670  0.00  0.00    +0.000 HD
ENDROOT
BRANCH   1  15
ATOM     10  C   UNL     1       2.597   5.048  19.408  0.00  0.00    +0.000 A 
ATOM     11  C   UNL     1       3.328   4.643  18.269  0.00  0.00    +0.000 A 
ATOM     12  C   UNL     1       3.939   5.554  17.399  0.00  0.00    +0.000 A 
ATOM     13  C   UNL     1       3.672   6.897  17.612  0.00  0.00    +0.000 A 
ATOM     14  C   UNL     1       2.920   7.310  18.714  0.00  0.00    +0.000 A 
ATOM     15  C   UNL     1       2.403   6.417  19.669  0.00  0.00    +0.000 A 
BRANCH  10  17
ATOM     16  C   UNL     1       1.073   3.186  19.531  0.00  0.00    +0.000 C 
ATOM     17  O   UNL     1       2.105   3.971  20.104  0.00  0.00    +0.000 OA
ENDBRANCH  10  17
BRANCH  12  18
ATOM     18  N   UNL     1       4.652   5.087  16.293  0.00  0.00    +0.000 N 
ATOM     19  H   UNL     1       4.092   4.453  15.728  0.00  0.00    +0.000 HD
BRANCH  18  20
ATOM     20  C   UNL     1       5.988   4.524  16.512  0.00  0.00    +0.000 C 
BRANCH  20  21
ATOM     21  C   UNL     1       6.787   5.353  17.458  0.00  0.00    +0.000 A 
ATOM     22  C   UNL     1       7.346   6.610  17.348  0.00  0.00    +0.000 A 
ATOM     23  C   UNL     1       8.048   6.838  18.553  0.00  0.00    +0.000 A 
ATOM     24  C   UNL     1       7.865   5.714  19.324  0.00  0.00    +0.000 A 
ATOM     25  O   UNL     1       7.097   4.804  18.667  0.00  0.00    +0.000 OA
ENDBRANCH  20  21
ENDBRANCH  18  20
ENDBRANCH  12  18
ENDBRANCH   1  15
BRANCH   7  26
ATOM     26  N   UNL     1       0.143  11.095  19.299  0.00  0.00    +0.000 N 
ATOM     27  H   UNL     1       0.439  12.031  19.548  0.00  0.00    +0.000 HD
BRANCH  26  28
ATOM     28  C   UNL     1      -1.049  11.036  18.514  0.00  0.00    +0.000 A 
ATOM     29  C   UNL     1      -1.185   9.959  17.605  0.00  0.00    +0.000 A 
ATOM     30  C   UNL     1      -2.360   9.728  16.894  0.00  0.00    +0.000 A 
ATOM     31  C   UNL     1      -3.421  10.601  17.044  0.00  0.00    +0.000 A 
ATOM     32  C   UNL     1      -3.288  11.715  17.874  0.00  0.00    +0.000 A 
ATOM     33  C   UNL     1      -2.114  11.964  18.612  0.00  0.00    +0.000 A 
BRANCH  33  34
ATOM     34  N   UNL     1      -1.998  13.143  19.402  0.00  0.00    +0.000 N 
ATOM     35  C   UNL     1      -0.994  14.096  19.291  0.00  0.00    +0.000 C 
ATOM     36  C   UNL     1      -0.993  15.132  20.387  0.00  0.00    +0.000 C 
ATOM     37  O   UNL     1      -0.155  14.177  18.397  0.00  0.00    +0.000 OA
ATOM     38  H   UNL     1      -2.701  13.287  20.110  0.00  0.00    +0.000 HD
ENDBRANCH  33  34
ENDBRANCH  26  28
ENDBRANCH   7  26
TORSDOF 8
ENDMDL
MODEL 3
REMARK VINA RESULT:      -8.9      3.692      6.276
REMARK  Name = 
REMARK  10 active torsions:
REMARK  status: ('A' for Active; 'I' for Inactive)
REMARK    1  A    between atoms: C_1  and  O_2
REMARK    2  A    between atoms: O_2  and  C_3
REMARK    3  A    between atoms: C_5  and  N_6
REMARK    4  A    between atoms: N_6  and  C_7
REMARK    5  A    between atoms: C_7  and  C_8
REMARK    6  A    between atoms: C_15  and  N_16
REMARK    7  A    between atoms: C_22  and  N_23
REMARK    8  A    between atoms: N_23  and  C_24
REMARK    9  A    between atoms: C_29  and  N_30
REMARK   10  A    between atoms: C_31  and  C_32
REMARK                            x       y       z     vdW  Elec       q    Type
REMARK                         _______ _______ _______ _____ _____    ______ ____
ROOT
ATOM      1  N   UNL     1       1.665   7.156  20.919  0.00  0.00    +0.000 N 
ATOM      2  C   UNL     1       1.087   8.397  21.182  0.00  0.00    +0.000 A 
ATOM      3  N   UNL     1       0.926   8.723  22.472  0.00  0.00    +0.000 NA
ATOM      4  C   UNL     1       0.364   9.927  22.725  0.00  0.00    +0.000 A 
ATOM      5  C   UNL     1      -0.062  10.799  21.748  0.00  0.00    +0.000 A 
ATOM      6 CL   UNL     1      -0.814  12.287  22.171  0.00  0.00    +0.000 Cl
ATOM      7  C   UNL     1       0.190  10.418  20.444  0.00  0.00    +0.000 A 
ATOM      8  N   UNL     1       0.746   9.219  20.188  0.00  0.00    +0.000 NA
ATOM      9  H   UNL     1       1.792   6.671  21.785  0.00  0.00    +0.000 HD
ENDROOT
BRANCH   1  15
ATOM     10  C   UNL     1       2.379   5.273  19.474  0.00  0.00    +0.000 A 
ATOM     11  C   UNL     1       3.093   4.841  18.334  0.00  0.00    +0.000 A 
ATOM     12  C   UNL     1       3.785   5.724  17.496  0.00  0.00    +0.000 A 
ATOM     13  C   UNL     1       3.619   7.078  17.740  0.00  0.00    +0.000 A 
ATOM     14  C   UNL     1       2.885   7.520  18.843  0.00  0.00    +0.000 A 
ATOM     15  C   UNL     1       2.287   6.646  19.768  0.00  0.00    +0.000 A 
BRANCH  10  17
ATOM     16  C   UNL     1       2.611   3.319  20.864  0.00  0.00    +0.000 C 
ATOM     17  O   UNL     1       1.795   4.221  20.135  0.00  0.00    +0.000 OA
ENDBRANCH  10  17
BRANCH  12  18
ATOM     18  N   UNL     1       4.476   5.231  16.387  0.00  0.00    +0.000 N 
ATOM     19  H   UNL     1       3.881   4.647  15.805  0.00  0.00    +0.000 HD
BRANCH  18  20
ATOM     20  C   UNL     1       5.769   4.576  16.607  0.00  0.00    +0.000 C 
BRANCH  20  21
ATOM     21  C   UNL     1       6.648   5.377  17.505  0.00  0.00    +0.000 A 
ATOM     22  C   UNL     1       7.296   6.583  17.335  0.00  0.00    +0.000 A 
ATOM     23  C   UNL     1       8.039   6.802  18.517  0.00  0.00    +0.000 A 
ATOM     24  C   UNL     1       7.790   5.725  19.335  0.00  0.00    +0.000 A 
ATOM     25  O   UNL     1       6.942   4.852  18.729  0.00  0.00    +0.000 OA
ENDBRANCH  20  21
ENDBRANCH  18  20
ENDBRANCH  12  18
ENDBRANCH   1  15
BRANCH   7  26
ATOM     26  N   UNL     1      -0.101  11.254  19.327  0.00  0.00    +0.000 N 
ATOM     27  H   UNL     1       0.095  12.218  19.569  0.00  0.00    +0.000 HD
BRANCH  26  28
ATOM     28  C   UNL     1      -1.260  11.069  18.512  0.00  0.00    +0.000 A 
ATOM     29  C   UNL     1      -1.242  10.005  17.576  0.00  0.00    +0.000 A 
ATOM     30  C   UNL     1      -2.365   9.650  16.833  0.00  0.00    +0.000 A 
ATOM     31  C   UNL     1      -3.528  10.382  16.976  0.00  0.00    +0.000 A 
ATOM     32  C   UNL     1      -3.552  11.482  17.833  0.00  0.00    +0.000 A 
ATOM     33  C   UNL     1      -2.433  11.856  18.605  0.00  0.00    +0.000 A 
BRANCH  33  34
ATOM     34  N   UNL     1      -2.481  13.019  19.423  0.00  0.00    +0.000 N 
ATOM     35  C   UNL     1      -3.413  13.268  20.423  0.00  0.00    +0.000 C 
ATOM     36  C   UNL     1      -3.362  14.664  20.990  0.00  0.00    +0.000 C 
ATOM     37  O   UNL     1      -4.227  12.470  20.882  0.00  0.00    +0.000 OA
ATOM     38  H   UNL     1      -1.784  13.726  19.250  0.00  0.00    +0.000 HD
ENDBRANCH  33  34
ENDBRANCH  26  28
ENDBRANCH   7  26
TORSDOF 8
ENDMDL
MODEL 4
REMARK VINA RESULT:      -8.8      3.693      8.308
REMARK  Name = 
REMARK  10 active torsions:
REMARK  status: ('A' for Active; 'I' for Inactive)
REMARK    1  A    between atoms: C_1  and  O_2
REMARK    2  A    between atoms: O_2  and  C_3
REMARK    3  A    between atoms: C_5  and  N_6
REMARK    4  A    between atoms: N_6  and  C_7
REMARK    5  A    between atoms: C_7  and  C_8
REMARK    6  A    between atoms: C_15  and  N_16
REMARK    7  A    between atoms: C_22  and  N_23
REMARK    8  A    between atoms: N_23  and  C_24
REMARK    9  A    between atoms: C_29  and  N_30
REMARK   10  A    between atoms: C_31  and  C_32
REMARK                            x       y       z     vdW  Elec       q    Type
REMARK                         _______ _______ _______ _____ _____    ______ ____
ROOT
ATOM      1  N   UNL     1       1.276   6.528  21.064  0.00  0.00    +0.000 N 
ATOM      2  C   UNL     1       1.855   5.372  20.543  0.00  0.00    +0.000 A 
ATOM      3  N   UNL     1       1.503   4.213  21.116  0.00  0.00    +0.000 NA
ATOM      4  C   UNL     1       2.067   3.093  20.609  0.00  0.00    +0.000 A 
ATOM      5  C   UNL     1       2.979   3.089  19.578  0.00  0.00    +0.000 A 
ATOM      6 CL   UNL     1       3.682   1.614  19.039  0.00  0.00    +0.000 Cl
ATOM      7  C   UNL     1       3.249   4.315  19.002  0.00  0.00    +0.000 A 
ATOM      8  N   UNL     1       2.692   5.432  19.506  0.00  0.00    +0.000 NA
ATOM      9  H   UNL     1       0.731   6.280  21.866  0.00  0.00    +0.000 HD
ENDROOT
BRANCH   1  15
ATOM     10  C   UNL     1       0.387   8.840  21.144  0.00  0.00    +0.000 A 
ATOM     11  C   UNL     1       0.226  10.085  20.496  0.00  0.00    +0.000 A 
ATOM     12  C   UNL     1       0.725  10.340  19.213  0.00  0.00    +0.000 A 
ATOM     13  C   UNL     1       1.529   9.363  18.649  0.00  0.00    +0.000 A 
ATOM     14  C   UNL     1       1.727   8.140  19.296  0.00  0.00    +0.000 A 
ATOM     15  C   UNL     1       1.132   7.818  20.528  0.00  0.00    +0.000 A 
BRANCH  10  17
ATOM     16  C   UNL     1      -0.498  10.068  23.018  0.00  0.00    +0.000 C 
ATOM     17  O   UNL     1      -0.198   8.835  22.386  0.00  0.00    +0.000 OA
ENDBRANCH  10  17
BRANCH  12  18
ATOM     18  N   UNL     1       0.527  11.592  18.627  0.00  0.00    +0.000 N 
ATOM     19  H   UNL     1       1.209  12.271  18.956  0.00  0.00    +0.000 HD
BRANCH  18  20
ATOM     20  C   UNL     1      -0.821  12.171  18.660  0.00  0.00    +0.000 C 
BRANCH  20  21
ATOM     21  C   UNL     1      -1.778  11.385  17.832  0.00  0.00    +0.000 A 
ATOM     22  C   UNL     1      -2.655  10.365  18.143  0.00  0.00    +0.000 A 
ATOM     23  C   UNL     1      -3.249   9.971  16.923  0.00  0.00    +0.000 A 
ATOM     24  C   UNL     1      -2.707  10.778  15.950  0.00  0.00    +0.000 A 
ATOM     25  O   UNL     1      -1.812  11.644  16.494  0.00  0.00    +0.000 OA
ENDBRANCH  20  21
ENDBRANCH  18  20
ENDBRANCH  12  18
ENDBRANCH   1  15
BRANCH   7  26
ATOM     26  N   UNL     1       4.095   4.463  17.864  0.00  0.00    +0.000 N 
ATOM     27  H   UNL     1       3.860   3.757  17.178  0.00  0.00    +0.000 HD
BRANCH  26  28
ATOM     28  C   UNL     1       5.492   4.740  17.979  0.00  0.00    +0.000 A 
ATOM     29  C   UNL     1       5.937   5.396  19.152  0.00  0.00    +0.000 A 
ATOM     30  C   UNL     1       7.288   5.590  19.429  0.00  0.00    +0.000 A 
ATOM     31  C   UNL     1       8.232   5.168  18.512  0.00  0.00    +0.000 A 
ATOM     32  C   UNL     1       7.819   4.588  17.312  0.00  0.00    +0.000 A 
ATOM     33  C   UNL     1       6.459   4.370  17.013  0.00  0.00    +0.000 A 
BRANCH  33  34
ATOM     34  N   UNL     1       6.078   3.828  15.754  0.00  0.00    +0.000 N 
ATOM     35  C   UNL     1       6.405   4.357  14.512  0.00  0.00    +0.000 C 
ATOM     36  C   UNL     1       5.699   3.707  13.350  0.00  0.00    +0.000 C 
ATOM     37  O   UNL     1       7.209   5.260  14.289  0.00  0.00    +0.000 OA
ATOM     38  H   UNL     1       5.510   2.995  15.770  0.00  0.00    +0.000 HD
ENDBRANCH  33  34
ENDBRANCH  26  28
ENDBRANCH   7  26
TORSDOF 8
ENDMDL
MODEL 5
REMARK VINA RESULT:      -8.8      3.550      7.283
REMARK  Name = 
REMARK  10 active torsions:
REMARK  status: ('A' for Active; 'I' for Inactive)
REMARK    1  A    between atoms: C_1  and  O_2
REMARK    2  A    between atoms: O_2  and  C_3
REMARK    3  A    between atoms: C_5  and  N_6
REMARK    4  A    between atoms: N_6  and  C_7
REMARK    5  A    between atoms: C_7  and  C_8
REMARK    6  A    between atoms: C_15  and  N_16
REMARK    7  A    between atoms: C_22  and  N_23
REMARK    8  A    between atoms: N_23  and  C_24
REMARK    9  A    between atoms: C_29  and  N_30
REMARK   10  A    between atoms: C_31  and  C_32
REMARK                            x       y       z     vdW  Elec       q    Type
REMARK                         _______ _______ _______ _____ _____    ______ ____
ROOT
ATOM      1  N   UNL     1       1.318   6.751  20.959  0.00  0.00    +0.000 N 
ATOM      2  C   UNL     1       1.803   5.572  20.395  0.00  0.00    +0.000 A 
ATOM      3  N   UNL     1       1.299   4.426  20.871  0.00  0.00    +0.000 NA
ATOM      4  C   UNL     1       1.772   3.284  20.323  0.00  0.00    +0.000 A 
ATOM      5  C   UNL     1       2.738   3.243  19.343  0.00  0.00    +0.000 A 
ATOM      6 CL   UNL     1       3.314   1.736  18.746  0.00  0.00    +0.000 Cl
ATOM      7  C   UNL     1       3.167   4.465  18.863  0.00  0.00    +0.000 A 
ATOM      8  N   UNL     1       2.701   5.604  19.409  0.00  0.00    +0.000 NA
ATOM      9  H   UNL     1       0.704   6.516  21.714  0.00  0.00    +0.000 HD
ENDROOT
BRANCH   1  15
ATOM     10  C   UNL     1       0.975   9.183  21.293  0.00  0.00    +0.000 A 
ATOM     11  C   UNL     1       0.949  10.478  20.729  0.00  0.00    +0.000 A 
ATOM     12  C   UNL     1       1.210  10.718  19.375  0.00  0.00    +0.000 A 
ATOM     13  C   UNL     1       1.651   9.642  18.622  0.00  0.00    +0.000 A 
ATOM     14  C   UNL     1       1.718   8.362  19.177  0.00  0.00    +0.000 A 
ATOM     15  C   UNL     1       1.340   8.078  20.501  0.00  0.00    +0.000 A 
BRANCH  10  17
ATOM     16  C   UNL     1      -0.481   9.896  23.076  0.00  0.00    +0.000 C 
ATOM     17  O   UNL     1       0.677   9.207  22.633  0.00  0.00    +0.000 OA
ENDBRANCH  10  17
BRANCH  12  18
ATOM     18  N   UNL     1       1.162  12.023  18.879  0.00  0.00    +0.000 N 
ATOM     19  H   UNL     1       0.348  12.170  18.290  0.00  0.00    +0.000 HD
BRANCH  18  20
ATOM     20  C   UNL     1       2.362  12.566  18.231  0.00  0.00    +0.000 C 
BRANCH  20  21
ATOM     21  C   UNL     1       2.371  14.055  18.247  0.00  0.00    +0.000 A 
ATOM     22  C   UNL     1       3.322  14.982  17.874  0.00  0.00    +0.000 A 
ATOM     23  C   UNL     1       2.781  16.250  18.184  0.00  0.00    +0.000 A 
ATOM     24  C   UNL     1       1.534  16.019  18.716  0.00  0.00    +0.000 A 
ATOM     25  O   UNL     1       1.274  14.685  18.757  0.00  0.00    +0.000 OA
ENDBRANCH  20  21
ENDBRANCH  18  20
ENDBRANCH  12  18
ENDBRANCH   1  15
BRANCH   7  26
ATOM     26  N   UNL     1       4.089   4.588  17.783  0.00  0.00    +0.000 N 
ATOM     27  H   UNL     1       3.871   3.898  17.075  0.00  0.00    +0.000 HD
BRANCH  26  28
ATOM     28  C   UNL     1       5.486   4.809  17.989  0.00  0.00    +0.000 A 
ATOM     29  C   UNL     1       5.879   5.458  19.185  0.00  0.00    +0.000 A 
ATOM     30  C   UNL     1       7.216   5.599  19.550  0.00  0.00    +0.000 A 
ATOM     31  C   UNL     1       8.200   5.129  18.702  0.00  0.00    +0.000 A 
ATOM     32  C   UNL     1       7.844   4.554  17.481  0.00  0.00    +0.000 A 
ATOM     33  C   UNL     1       6.499   4.390  17.093  0.00  0.00    +0.000 A 
BRANCH  33  34
ATOM     34  N   UNL     1       6.181   3.852  15.815  0.00  0.00    +0.000 N 
ATOM     35  C   UNL     1       6.593   4.368  14.593  0.00  0.00    +0.000 C 
ATOM     36  C   UNL     1       5.942   3.729  13.393  0.00  0.00    +0.000 C 
ATOM     37  O   UNL     1       7.430   5.251  14.416  0.00  0.00    +0.000 OA
ATOM     38  H   UNL     1       5.594   3.032  15.800  0.00  0.00    +0.000 HD
ENDBRANCH  33  34
ENDBRANCH  26  28
ENDBRANCH   7  26
TORSDOF 8
ENDMDL
MODEL 6
REMARK VINA RESULT:      -8.8      4.608      6.531
REMARK  Name = 
REMARK  10 active torsions:
REMARK  status: ('A' for Active; 'I' for Inactive)
REMARK    1  A    between atoms: C_1  and  O_2
REMARK    2  A    between atoms: O_2  and  C_3
REMARK    3  A    between atoms: C_5  and  N_6
REMARK    4  A    between atoms: N_6  and  C_7
REMARK    5  A    between atoms: C_7  and  C_8
REMARK    6  A    between atoms: C_15  and  N_16
REMARK    7  A    between atoms: C_22  and  N_23
REMARK    8  A    between atoms: N_23  and  C_24
REMARK    9  A    between atoms: C_29  and  N_30
REMARK   10  A    between atoms: C_31  and  C_32
REMARK                            x       y       z     vdW  Elec       q    Type
REMARK                         _______ _______ _______ _____ _____    ______ ____
ROOT
ATOM      1  N   UNL     1       1.933   6.727  20.582  0.00  0.00    +0.000 N 
ATOM      2  C   UNL     1       1.398   7.986  20.849  0.00  0.00    +0.000 A 
ATOM      3  N   UNL     1       1.253   8.316  22.139  0.00  0.00    +0.000 NA
ATOM      4  C   UNL     1       0.733   9.537  22.395  0.00  0.00    +0.000 A 
ATOM      5  C   UNL     1       0.333  10.424  21.421  0.00  0.00    +0.000 A 
ATOM      6 CL   UNL     1      -0.368  11.935  21.849  0.00  0.00    +0.000 Cl
ATOM      7  C   UNL     1       0.566  10.037  20.115  0.00  0.00    +0.000 A 
ATOM      8  N   UNL     1       1.082   8.820  19.857  0.00  0.00    +0.000 NA
ATOM      9  H   UNL     1       2.048   6.237  21.447  0.00  0.00    +0.000 HD
ENDROOT
BRANCH   1  15
ATOM     10  C   UNL     1       2.187   4.954  18.868  0.00  0.00    +0.000 A 
ATOM     11  C   UNL     1       2.898   4.460  17.751  0.00  0.00    +0.000 A 
ATOM     12  C   UNL     1       3.997   5.128  17.198  0.00  0.00    +0.000 A 
ATOM     13  C   UNL     1       4.278   6.389  17.697  0.00  0.00    +0.000 A 
ATOM     14  C   UNL     1       3.560   6.906  18.778  0.00  0.00    +0.000 A 
ATOM     15  C   UNL     1       2.534   6.198  19.427  0.00  0.00    +0.000 A 
BRANCH  10  17
ATOM     16  C   UNL     1       1.251   2.735  18.923  0.00  0.00    +0.000 C 
ATOM     17  O   UNL     1       1.160   4.117  19.227  0.00  0.00    +0.000 OA
ENDBRANCH  10  17
BRANCH  12  18
ATOM     18  N   UNL     1       4.658   4.582  16.096  0.00  0.00    +0.000 N 
ATOM     19  H   UNL     1       4.448   3.593  15.985  0.00  0.00    +0.000 HD
BRANCH  18  20
ATOM     20  C   UNL     1       6.102   4.810  15.967  0.00  0.00    +0.000 C 
BRANCH  20  21
ATOM     21  C   UNL     1       6.557   4.679  14.555  0.00  0.00    +0.000 A 
ATOM     22  C   UNL     1       6.146   3.866  13.518  0.00  0.00    +0.000 A 
ATOM     23  C   UNL     1       7.002   4.149  12.430  0.00  0.00    +0.000 A 
ATOM     24  C   UNL     1       7.872   5.121  12.867  0.00  0.00    +0.000 A 
ATOM     25  O   UNL     1       7.609   5.451  14.159  0.00  0.00    +0.000 OA
ENDBRANCH  20  21
ENDBRANCH  18  20
ENDBRANCH  12  18
ENDBRANCH   1  15
BRANCH   7  26
ATOM     26  N   UNL     1       0.299  10.883  19.001  0.00  0.00    +0.000 N 
ATOM     27  H   UNL     1       0.684  11.803  19.178  0.00  0.00    +0.000 HD
BRANCH  26  28
ATOM     28  C   UNL     1      -0.959  10.885  18.324  0.00  0.00    +0.000 A 
ATOM     29  C   UNL     1      -1.263   9.775  17.498  0.00  0.00    +0.000 A 
ATOM     30  C   UNL     1      -2.512   9.608  16.905  0.00  0.00    +0.000 A 
ATOM     31  C   UNL     1      -3.480  10.576  17.089  0.00  0.00    +0.000 A 
ATOM     32  C   UNL     1      -3.184  11.718  17.834  0.00  0.00    +0.000 A 
ATOM     33  C   UNL     1      -1.932  11.905  18.453  0.00  0.00    +0.000 A 
BRANCH  33  34
ATOM     34  N   UNL     1      -1.651  13.111  19.156  0.00  0.00    +0.000 N 
ATOM     35  C   UNL     1      -0.546  13.928  18.952  0.00  0.00    +0.000 C 
ATOM     36  C   UNL     1      -0.385  15.026  19.973  0.00  0.00    +0.000 C 
ATOM     37  O   UNL     1       0.265  13.848  18.033  0.00  0.00    +0.000 OA
ATOM     38  H   UNL     1      -2.307  13.384  19.871  0.00  0.00    +0.000 HD
ENDBRANCH  33  34
ENDBRANCH  26  28
ENDBRANCH   7  26
TORSDOF 8
ENDMDL
MODEL 7
REMARK VINA RESULT:      -8.8      3.194      7.893
REMARK  Name = 
REMARK  10 active torsions:
REMARK  status: ('A' for Active; 'I' for Inactive)
REMARK    1  A    between atoms: C_1  and  O_2
REMARK    2  A    between atoms: O_2  and  C_3
REMARK    3  A    between atoms: C_5  and  N_6
REMARK    4  A    between atoms: N_6  and  C_7
REMARK    5  A    between atoms: C_7  and  C_8
REMARK    6  A    between atoms: C_15  and  N_16
REMARK    7  A    between atoms: C_22  and  N_23
REMARK    8  A    between atoms: N_23  and  C_24
REMARK    9  A    between atoms: C_29  and  N_30
REMARK   10  A    between atoms: C_31  and  C_32
REMARK                            x       y       z     vdW  Elec       q    Type
REMARK                         _______ _______ _______ _____ _____    ______ ____
ROOT
ATOM      1  N   UNL     1       1.994   5.930  20.978  0.00  0.00    +0.000 N 
ATOM      2  C   UNL     1       2.686   4.762  20.659  0.00  0.00    +0.000 A 
ATOM      3  N   UNL     1       2.337   3.656  21.328  0.00  0.00    +0.000 NA
ATOM      4  C   UNL     1       3.011   2.525  21.017  0.00  0.00    +0.000 A 
ATOM      5  C   UNL     1       4.026   2.464  20.090  0.00  0.00    +0.000 A 
ATOM      6 CL   UNL     1       4.860   0.986  19.802  0.00  0.00    +0.000 Cl
ATOM      7  C   UNL     1       4.290   3.632  19.401  0.00  0.00    +0.000 A 
ATOM      8  N   UNL     1       3.623   4.760  19.710  0.00  0.00    +0.000 NA
ATOM      9  H   UNL     1       1.381   5.739  21.746  0.00  0.00    +0.000 HD
ENDROOT
BRANCH   1  15
ATOM     10  C   UNL     1       1.319   8.312  20.858  0.00  0.00    +0.000 A 
ATOM     11  C   UNL     1       1.121   9.463  20.062  0.00  0.00    +0.000 A 
ATOM     12  C   UNL     1       1.358   9.478  18.682  0.00  0.00    +0.000 A 
ATOM     13  C   UNL     1       1.949   8.350  18.136  0.00  0.00    +0.000 A 
ATOM     14  C   UNL     1       2.185   7.217  18.920  0.00  0.00    +0.000 A 
ATOM     15  C   UNL     1       1.838   7.138  20.280  0.00  0.00    +0.000 A 
BRANCH  10  17
ATOM     16  C   UNL     1      -0.153   9.293  22.493  0.00  0.00    +0.000 C 
ATOM     17  O   UNL     1       1.009   8.546  22.175  0.00  0.00    +0.000 OA
ENDBRANCH  10  17
BRANCH  12  18
ATOM     18  N   UNL     1       1.137  10.648  17.953  0.00  0.00    +0.000 N 
ATOM     19  H   UNL     1       2.004  11.150  17.779  0.00  0.00    +0.000 HD
BRANCH  18  20
ATOM     20  C   UNL     1       0.101  11.575  18.422  0.00  0.00    +0.000 C 
BRANCH  20  21
ATOM     21  C   UNL     1      -1.266  11.095  18.075  0.00  0.00    +0.000 A 
ATOM     22  C   UNL     1      -1.713  10.070  17.266  0.00  0.00    +0.000 A 
ATOM     23  C   UNL     1      -3.125  10.145  17.276  0.00  0.00    +0.000 A 
ATOM     24  C   UNL     1      -3.449  11.202  18.095  0.00  0.00    +0.000 A 
ATOM     25  O   UNL     1      -2.324  11.785  18.588  0.00  0.00    +0.000 OA
ENDBRANCH  20  21
ENDBRANCH  18  20
ENDBRANCH  12  18
ENDBRANCH   1  15
BRANCH   7  26
ATOM     26  N   UNL     1       5.242   3.705  18.343  0.00  0.00    +0.000 N 
ATOM     27  H   UNL     1       5.742   2.827  18.280  0.00  0.00    +0.000 HD
BRANCH  26  28
ATOM     28  C   UNL     1       6.046   4.864  18.115  0.00  0.00    +0.000 A 
ATOM     29  C   UNL     1       6.743   5.410  19.221  0.00  0.00    +0.000 A 
ATOM     30  C   UNL     1       7.658   6.450  19.084  0.00  0.00    +0.000 A 
ATOM     31  C   UNL     1       7.869   7.003  17.835  0.00  0.00    +0.000 A 
ATOM     32  C   UNL     1       7.139   6.538  16.741  0.00  0.00    +0.000 A 
ATOM     33  C   UNL     1       6.215   5.479  16.851  0.00  0.00    +0.000 A 
BRANCH  33  34
ATOM     34  N   UNL     1       5.450   5.073  15.721  0.00  0.00    +0.000 N 
ATOM     35  C   UNL     1       5.941   4.402  14.609  0.00  0.00    +0.000 C 
ATOM     36  C   UNL     1       4.961   4.281  13.470  0.00  0.00    +0.000 C 
ATOM     37  O   UNL     1       7.056   3.898  14.490  0.00  0.00    +0.000 OA
ATOM     38  H   UNL     1       4.469   5.307  15.729  0.00  0.00    +0.000 HD
ENDBRANCH  33  34
ENDBRANCH  26  28
ENDBRANCH   7  26
TORSDOF 8
ENDMDL
MODEL 8
REMARK VINA RESULT:      -8.7      3.079      7.038
REMARK  Name = 
REMARK  10 active torsions:
REMARK  status: ('A' for Active; 'I' for Inactive)
REMARK    1  A    between atoms: C_1  and  O_2
REMARK    2  A    between atoms: O_2  and  C_3
REMARK    3  A    between atoms: C_5  and  N_6
REMARK    4  A    between atoms: N_6  and  C_7
REMARK    5  A    between atoms: C_7  and  C_8
REMARK    6  A    between atoms: C_15  and  N_16
REMARK    7  A    between atoms: C_22  and  N_23
REMARK    8  A    between atoms: N_23  and  C_24
REMARK    9  A    between atoms: C_29  and  N_30
REMARK   10  A    between atoms: C_31  and  C_32
REMARK                            x       y       z     vdW  Elec       q    Type
REMARK                         _______ _______ _______ _____ _____    ______ ____
ROOT
ATOM      1  N   UNL     1       2.053   5.845  20.774  0.00  0.00    +0.000 N 
ATOM      2  C   UNL     1       2.777   4.678  20.539  0.00  0.00    +0.000 A 
ATOM      3  N   UNL     1       2.340   3.567  21.146  0.00  0.00    +0.000 NA
ATOM      4  C   UNL     1       3.045   2.436  20.918  0.00  0.00    +0.000 A 
ATOM      5  C   UNL     1       4.175   2.379  20.134  0.00  0.00    +0.000 A 
ATOM      6 CL   UNL     1       5.035   0.900  19.947  0.00  0.00    +0.000 Cl
ATOM      7  C   UNL     1       4.531   3.551  19.496  0.00  0.00    +0.000 A 
ATOM      8  N   UNL     1       3.833   4.680  19.723  0.00  0.00    +0.000 NA
ATOM      9  H   UNL     1       1.342   5.651  21.452  0.00  0.00    +0.000 HD
ENDROOT
BRANCH   1  15
ATOM     10  C   UNL     1       1.394   8.227  20.580  0.00  0.00    +0.000 A 
ATOM     11  C   UNL     1       1.308   9.385  19.775  0.00  0.00    +0.000 A 
ATOM     12  C   UNL     1       1.741   9.414  18.444  0.00  0.00    +0.000 A 
ATOM     13  C   UNL     1       2.408   8.292  17.978  0.00  0.00    +0.000 A 
ATOM     14  C   UNL     1       2.533   7.153  18.777  0.00  0.00    +0.000 A 
ATOM     15  C   UNL     1       1.995   7.060  20.072  0.00  0.00    +0.000 A 
BRANCH  10  17
ATOM     16  C   UNL     1      -0.475   8.772  22.000  0.00  0.00    +0.000 C 
ATOM     17  O   UNL     1       0.896   8.448  21.840  0.00  0.00    +0.000 OA
ENDBRANCH  10  17
BRANCH  12  18
ATOM     18  N   UNL     1       1.623  10.591  17.701  0.00  0.00    +0.000 N 
ATOM     19  H   UNL     1       1.704  10.413  16.703  0.00  0.00    +0.000 HD
BRANCH  18  20
ATOM     20  C   UNL     1       2.453  11.740  18.080  0.00  0.00    +0.000 C 
BRANCH  20  21
ATOM     21  C   UNL     1       1.625  12.941  18.381  0.00  0.00    +0.000 A 
ATOM     22  C   UNL     1       1.942  14.278  18.512  0.00  0.00    +0.000 A 
ATOM     23  C   UNL     1       0.744  14.935  18.871  0.00  0.00    +0.000 A 
ATOM     24  C   UNL     1      -0.227  13.963  18.928  0.00  0.00    +0.000 A 
ATOM     25  O   UNL     1       0.299  12.746  18.629  0.00  0.00    +0.000 OA
ENDBRANCH  20  21
ENDBRANCH  18  20
ENDBRANCH  12  18
ENDBRANCH   1  15
BRANCH   7  26
ATOM     26  N   UNL     1       5.616   3.629  18.575  0.00  0.00    +0.000 N 
ATOM     27  H   UNL     1       6.209   2.816  18.686  0.00  0.00    +0.000 HD
BRANCH  26  28
ATOM     28  C   UNL     1       6.318   4.847  18.319  0.00  0.00    +0.000 A 
ATOM     29  C   UNL     1       7.013   5.445  19.399  0.00  0.00    +0.000 A 
ATOM     30  C   UNL     1       7.839   6.553  19.230  0.00  0.00    +0.000 A 
ATOM     31  C   UNL     1       7.957   7.121  17.976  0.00  0.00    +0.000 A 
ATOM     32  C   UNL     1       7.224   6.601  16.909  0.00  0.00    +0.000 A 
ATOM     33  C   UNL     1       6.390   5.474  17.051  0.00  0.00    +0.000 A 
BRANCH  33  34
ATOM     34  N   UNL     1       5.614   5.010  15.951  0.00  0.00    +0.000 N 
ATOM     35  C   UNL     1       6.120   4.535  14.748  0.00  0.00    +0.000 C 
ATOM     36  C   UNL     1       5.079   4.307  13.681  0.00  0.00    +0.000 C 
ATOM     37  O   UNL     1       7.294   4.272  14.499  0.00  0.00    +0.000 OA
ATOM     38  H   UNL     1       4.612   5.043  16.055  0.00  0.00    +0.000 HD
ENDBRANCH  33  34
ENDBRANCH  26  28
ENDBRANCH   7  26
TORSDOF 8
ENDMDL
MODEL 9
REMARK VINA RESULT:      -8.7      4.183      6.900
REMARK  Name = 
REMARK  10 active torsions:
REMARK  status: ('A' for Active; 'I' for Inactive)
REMARK    1  A    between atoms: C_1  and  O_2
REMARK    2  A    between atoms: O_2  and  C_3
REMARK    3  A    between atoms: C_5  and  N_6
REMARK    4  A    between atoms: N_6  and  C_7
REMARK    5  A    between atoms: C_7  and  C_8
REMARK    6  A    between atoms: C_15  and  N_16
REMARK    7  A    between atoms: C_22  and  N_23
REMARK    8  A    between atoms: N_23  and  C_24
REMARK    9  A    between atoms: C_29  and  N_30
REMARK   10  A    between atoms: C_31  and  C_32
REMARK                            x       y       z     vdW  Elec       q    Type
REMARK                         _______ _______ _______ _____ _____    ______ ____
ROOT
ATOM      1  N   UNL     1       0.763   8.279  21.339  0.00  0.00    +0.000 N 
ATOM      2  C   UNL     1       0.010   9.420  21.612  0.00  0.00    +0.000 A 
ATOM      3  N   UNL     1      -0.244   9.678  22.901  0.00  0.00    +0.000 NA
ATOM      4  C   UNL     1      -0.976  10.784  23.162  0.00  0.00    +0.000 A 
ATOM      5  C   UNL     1      -1.481  11.621  22.192  0.00  0.00    +0.000 A 
ATOM      6 CL   UNL     1      -2.447  12.978  22.623  0.00  0.00    +0.000 Cl
ATOM      7  C   UNL     1      -1.129  11.321  20.890  0.00  0.00    +0.000 A 
ATOM      8  N   UNL     1      -0.403  10.219  20.626  0.00  0.00    +0.000 NA
ATOM      9  H   UNL     1       0.923   7.788  22.197  0.00  0.00    +0.000 HD
ENDROOT
BRANCH   1  15
ATOM     10  C   UNL     1       2.100   6.636  20.052  0.00  0.00    +0.000 A 
ATOM     11  C   UNL     1       2.885   6.362  18.909  0.00  0.00    +0.000 A 
ATOM     12  C   UNL     1       3.151   7.323  17.927  0.00  0.00    +0.000 A 
ATOM     13  C   UNL     1       2.483   8.532  18.036  0.00  0.00    +0.000 A 
ATOM     14  C   UNL     1       1.674   8.802  19.143  0.00  0.00    +0.000 A 
ATOM     15  C   UNL     1       1.493   7.897  20.202  0.00  0.00    +0.000 A 
BRANCH  10  17
ATOM     16  C   UNL     1       1.448   4.336  20.350  0.00  0.00    +0.000 C 
ATOM     17  O   UNL     1       1.993   5.538  20.869  0.00  0.00    +0.000 OA
ENDBRANCH  10  17
BRANCH  12  18
ATOM     18  N   UNL     1       3.940   6.988  16.824  0.00  0.00    +0.000 N 
ATOM     19  H   UNL     1       3.375   6.844  15.991  0.00  0.00    +0.000 HD
BRANCH  18  20
ATOM     20  C   UNL     1       4.915   5.901  16.970  0.00  0.00    +0.000 C 
BRANCH  20  21
ATOM     21  C   UNL     1       6.213   6.394  17.510  0.00  0.00    +0.000 A 
ATOM     22  C   UNL     1       7.043   5.923  18.507  0.00  0.00    +0.000 A 
ATOM     23  C   UNL     1       8.100   6.855  18.613  0.00  0.00    +0.000 A 
ATOM     24  C   UNL     1       7.855   7.826  17.671  0.00  0.00    +0.000 A 
ATOM     25  O   UNL     1       6.709   7.554  16.992  0.00  0.00    +0.000 OA
ENDBRANCH  20  21
ENDBRANCH  18  20
ENDBRANCH  12  18
ENDBRANCH   1  15
BRANCH   7  26
ATOM     26  N   UNL     1      -1.490  12.146  19.785  0.00  0.00    +0.000 N 
ATOM     27  H   UNL     1      -1.643  13.093  20.109  0.00  0.00    +0.000 HD
BRANCH  26  28
ATOM     28  C   UNL     1      -2.394  11.711  18.768  0.00  0.00    +0.000 A 
ATOM     29  C   UNL     1      -1.885  10.863  17.754  0.00  0.00    +0.000 A 
ATOM     30  C   UNL     1      -2.705  10.271  16.797  0.00  0.00    +0.000 A 
ATOM     31  C   UNL     1      -4.059  10.549  16.804  0.00  0.00    +0.000 A 
ATOM     32  C   UNL     1      -4.576  11.442  17.743  0.00  0.00    +0.000 A 
ATOM     33  C   UNL     1      -3.769  12.045  18.728  0.00  0.00    +0.000 A 
BRANCH  33  34
ATOM     34  N   UNL     1      -4.326  12.994  19.631  0.00  0.00    +0.000 N 
ATOM     35  C   UNL     1      -5.344  12.744  20.543  0.00  0.00    +0.000 C 
ATOM     36  C   UNL     1      -5.886  13.973  21.227  0.00  0.00    +0.000 C 
ATOM     37  O   UNL     1      -5.804  11.645  20.845  0.00  0.00    +0.000 OA
ATOM     38  H   UNL     1      -3.955  13.930  19.593  0.00  0.00    +0.000 HD
ENDBRANCH  33  34
ENDBRANCH  26  28
ENDBRANCH   7  26
TORSDOF 8
ENDMDL
