MODEL 1
REMARK VINA RESULT:      -8.1      0.000      0.000
REMARK  Name = 
REMARK  4 active torsions:
REMARK  status: ('A' for Active; 'I' for Inactive)
REMARK    1  A    between atoms: C_1  and  C_2
REMARK    2  A    between atoms: C_6  and  C_8
REMARK    3  A    between atoms: C_12  and  O_13
REMARK    4  A    between atoms: O_13  and  C_14
REMARK                            x       y       z     vdW  Elec       q    Type
REMARK                         _______ _______ _______ _____ _____    ______ ____
ROOT
ATOM      1  C   UNL     1       2.896   6.041  19.731  0.00  0.00    +0.000 A 
ATOM      2  C   UNL     1       2.227   4.979  20.344  0.00  0.00    +0.000 A 
ATOM      3  N   UNL     1       2.678   3.702  20.378  0.00  0.00    +0.000 NA
ATOM      4  C   UNL     1       3.848   3.469  19.750  0.00  0.00    +0.000 A 
ATOM      5  C   UNL     1       4.576   4.445  19.080  0.00  0.00    +0.000 A 
ATOM      6  C   UNL     1       4.104   5.764  19.090  0.00  0.00    +0.000 A 
ENDROOT
BRANCH   1  12
ATOM      7  C   UNL     1      -1.105  11.156  23.116  0.00  0.00    +0.000 C 
ATOM      8  C   UNL     1      -0.513  10.405  21.982  0.00  0.00    +0.000 A 
ATOM      9  N   UNL     1       0.232   9.241  22.199  0.00  0.00    +0.000 NA
ATOM     10  C   UNL     1       0.714   8.815  21.046  0.00  0.00    +0.000 A 
ATOM     11  N   UNL     1       1.510   7.686  20.933  0.00  0.00    +0.000 N 
ATOM     12  C   UNL     1       2.240   7.370  19.803  0.00  0.00    +0.000 C 
ATOM     13  O   UNL     1       2.414   8.104  18.831  0.00  0.00    +0.000 OA
ATOM     14  S   UNL     1       0.201   9.690  19.661  0.00  0.00    +0.000 S 
ATOM     15  C   UNL     1      -0.622  10.765  20.665  0.00  0.00    +0.000 A 
ATOM     16  F   UNL     1      -1.279  11.812  20.238  0.00  0.00    +0.000 F 
ATOM     17  H   UNL     1       1.569   7.147  21.783  0.00  0.00    +0.000 HD
ENDBRANCH   1  12
BRANCH   5  18
ATOM     18  O   UNL     1       5.762   4.034  18.525  0.00  0.00    +0.000 OA
BRANCH  18  19
ATOM     19  C   UNL     1       6.034   4.307  17.212  0.00  0.00    +0.000 A 
ATOM     20  C   UNL     1       5.318   3.810  16.124  0.00  0.00    +0.000 A 
ATOM     21  C   UNL     1       5.705   4.166  14.835  0.00  0.00    +0.000 A 
ATOM     22  C   UNL     1       6.823   4.970  14.680  0.00  0.00    +0.000 A 
ATOM     23  N   UNL     1       7.565   5.431  15.709  0.00  0.00    +0.000 NA
ATOM     24  C   UNL     1       7.158   5.082  16.951  0.00  0.00    +0.000 A 
ENDBRANCH  18  19
ENDBRANCH   5  18
TORSDOF 3
ENDMDL
MODEL 2
REMARK VINA RESULT:      -7.8      1.465      1.732
REMARK  Name = 
REMARK  4 active torsions:
REMARK  status: ('A' for Active; 'I' for Inactive)
REMARK    1  A    between atoms: C_1  and  C_2
REMARK    2  A    between atoms: C_6  and  C_8
REMARK    3  A    between atoms: C_12  and  O_13
REMARK    4  A    between atoms: O_13  and  C_14
REMARK                            x       y       z     vdW  Elec       q    Type
REMARK                         _______ _______ _______ _____ _____    ______ ____
ROOT
ATOM      1  C   UNL     1       3.013   5.309  19.874  0.00  0.00    +0.000 A 
ATOM      2  C   UNL     1       2.625   4.025  20.263  0.00  0.00    +0.000 A 
ATOM      3  N   UNL     1       3.369   2.907  20.078  0.00  0.00    +0.000 NA
ATOM      4  C   UNL     1       4.551   3.077  19.454  0.00  0.00    +0.000 A 
ATOM      5  C   UNL     1       5.016   4.304  18.994  0.00  0.00    +0.000 A 
ATOM      6  C   UNL     1       4.243   5.449  19.230  0.00  0.00    +0.000 A 
ENDROOT
BRANCH   1  12
ATOM      7  C   UNL     1       0.244  11.997  18.763  0.00  0.00    +0.000 C 
ATOM      8  C   UNL     1       0.583  10.758  19.504  0.00  0.00    +0.000 A 
ATOM      9  N   UNL     1       1.380   9.765  18.925  0.00  0.00    +0.000 NA
ATOM     10  C   UNL     1       1.463   8.739  19.751  0.00  0.00    +0.000 A 
ATOM     11  N   UNL     1       2.173   7.587  19.453  0.00  0.00    +0.000 N 
ATOM     12  C   UNL     1       2.060   6.409  20.166  0.00  0.00    +0.000 C 
ATOM     13  O   UNL     1       1.220   6.170  21.032  0.00  0.00    +0.000 OA
ATOM     14  S   UNL     1       0.718   8.960  21.282  0.00  0.00    +0.000 S 
ATOM     15  C   UNL     1       0.159  10.468  20.774  0.00  0.00    +0.000 A 
ATOM     16  F   UNL     1      -0.587  11.257  21.503  0.00  0.00    +0.000 F 
ATOM     17  H   UNL     1       2.732   7.662  18.618  0.00  0.00    +0.000 HD
ENDBRANCH   1  12
BRANCH   5  18
ATOM     18  O   UNL     1       6.257   4.295  18.410  0.00  0.00    +0.000 OA
BRANCH  18  19
ATOM     19  C   UNL     1       6.378   4.453  17.056  0.00  0.00    +0.000 A 
ATOM     20  C   UNL     1       5.703   3.699  16.098  0.00  0.00    +0.000 A 
ATOM     21  C   UNL     1       5.921   3.961  14.748  0.00  0.00    +0.000 A 
ATOM     22  C   UNL     1       6.840   4.940  14.406  0.00  0.00    +0.000 A 
ATOM     23  N   UNL     1       7.544   5.657  15.308  0.00  0.00    +0.000 NA
ATOM     24  C   UNL     1       7.302   5.390  16.612  0.00  0.00    +0.000 A 
ENDBRANCH  18  19
ENDBRANCH   5  18
TORSDOF 3
ENDMDL
MODEL 3
REMARK VINA RESULT:      -7.6      1.846      4.039
REMARK  Name = 
REMARK  4 active torsions:
REMARK  status: ('A' for Active; 'I' for Inactive)
REMARK    1  A    between atoms: C_1  and  C_2
REMARK    2  A    between atoms: C_6  and  C_8
REMARK    3  A    between atoms: C_12  and  O_13
REMARK    4  A    between atoms: O_13  and  C_14
REMARK                            x       y       z     vdW  Elec       q    Type
REMARK                         _______ _______ _______ _____ _____    ______ ____
ROOT
ATOM      1  C   UNL     1       2.947   7.279  17.933  0.00  0.00    +0.000 A 
ATOM      2  C   UNL     1       4.065   7.477  17.118  0.00  0.00    +0.000 A 
ATOM      3  N   UNL     1       4.887   6.490  16.686  0.00  0.00    +0.000 NA
ATOM      4  C   UNL     1       4.590   5.244  17.105  0.00  0.00    +0.000 A 
ATOM      5  C   UNL     1       3.524   4.942  17.944  0.00  0.00    +0.000 A 
ATOM      6  C   UNL     1       2.669   5.976  18.348  0.00  0.00    +0.000 A 
ENDROOT
BRANCH   1  12
ATOM      7  C   UNL     1      -0.900  11.374  22.630  0.00  0.00    +0.000 C 
ATOM      8  C   UNL     1      -0.451  10.846  21.319  0.00  0.00    +0.000 A 
ATOM      9  N   UNL     1       0.450   9.778  21.241  0.00  0.00    +0.000 NA
ATOM     10  C   UNL     1       0.750   9.557  19.974  0.00  0.00    +0.000 A 
ATOM     11  N   UNL     1       1.635   8.569  19.571  0.00  0.00    +0.000 N 
ATOM     12  C   UNL     1       2.169   8.488  18.299  0.00  0.00    +0.000 C 
ATOM     13  O   UNL     1       2.070   9.345  17.422  0.00  0.00    +0.000 OA
ATOM     14  S   UNL     1      -0.113  10.505  18.833  0.00  0.00    +0.000 S 
ATOM     15  C   UNL     1      -0.849  11.335  20.102  0.00  0.00    +0.000 A 
ATOM     16  F   UNL     1      -1.691  12.323  19.943  0.00  0.00    +0.000 F 
ATOM     17  H   UNL     1       1.915   7.950  20.315  0.00  0.00    +0.000 HD
ENDBRANCH   1  12
BRANCH   5  18
ATOM     18  O   UNL     1       3.353   3.614  18.242  0.00  0.00    +0.000 OA
BRANCH  18  19
ATOM     19  C   UNL     1       2.695   3.247  19.385  0.00  0.00    +0.000 A 
ATOM     20  C   UNL     1       1.312   3.263  19.554  0.00  0.00    +0.000 A 
ATOM     21  C   UNL     1       0.771   2.867  20.774  0.00  0.00    +0.000 A 
ATOM     22  C   UNL     1       1.637   2.512  21.796  0.00  0.00    +0.000 A 
ATOM     23  N   UNL     1       2.982   2.529  21.680  0.00  0.00    +0.000 NA
ATOM     24  C   UNL     1       3.479   2.904  20.479  0.00  0.00    +0.000 A 
ENDBRANCH  18  19
ENDBRANCH   5  18
TORSDOF 3
ENDMDL
MODEL 4
REMARK VINA RESULT:      -7.5      1.377      1.461
REMARK  Name = 
REMARK  4 active torsions:
REMARK  status: ('A' for Active; 'I' for Inactive)
REMARK    1  A    between atoms: C_1  and  C_2
REMARK    2  A    between atoms: C_6  and  C_8
REMARK    3  A    between atoms: C_12  and  O_13
REMARK    4  A    between atoms: O_13  and  C_14
REMARK                            x       y       z     vdW  Elec       q    Type
REMARK                         _______ _______ _______ _____ _____    ______ ____
ROOT
ATOM      1  C   UNL     1       3.041   6.076  18.261  0.00  0.00    +0.000 A 
ATOM      2  C   UNL     1       2.110   5.035  18.197  0.00  0.00    +0.000 A 
ATOM      3  N   UNL     1       2.391   3.777  17.778  0.00  0.00    +0.000 NA
ATOM      4  C   UNL     1       3.660   3.551  17.385  0.00  0.00    +0.000 A 
ATOM      5  C   UNL     1       4.653   4.523  17.376  0.00  0.00    +0.000 A 
ATOM      6  C   UNL     1       4.346   5.807  17.846  0.00  0.00    +0.000 A 
ENDROOT
BRANCH   1  12
ATOM      7  C   UNL     1      -0.482  10.319  23.079  0.00  0.00    +0.000 C 
ATOM      8  C   UNL     1       0.068   9.896  21.768  0.00  0.00    +0.000 A 
ATOM      9  N   UNL     1       0.663   8.640  21.607  0.00  0.00    +0.000 NA
ATOM     10  C   UNL     1       1.140   8.542  20.380  0.00  0.00    +0.000 A 
ATOM     11  N   UNL     1       1.805   7.417  19.918  0.00  0.00    +0.000 N 
ATOM     12  C   UNL     1       2.541   7.385  18.749  0.00  0.00    +0.000 C 
ATOM     13  O   UNL     1       2.840   8.360  18.061  0.00  0.00    +0.000 OA
ATOM     14  S   UNL     1       0.793   9.865  19.342  0.00  0.00    +0.000 S 
ATOM     15  C   UNL     1       0.058  10.663  20.633  0.00  0.00    +0.000 A 
ATOM     16  F   UNL     1      -0.455  11.864  20.558  0.00  0.00    +0.000 F 
ATOM     17  H   UNL     1       1.764   6.635  20.552  0.00  0.00    +0.000 HD
ENDBRANCH   1  12
BRANCH   5  18
ATOM     18  O   UNL     1       5.897   4.106  16.974  0.00  0.00    +0.000 OA
BRANCH  18  19
ATOM     19  C   UNL     1       6.305   4.315  15.684  0.00  0.00    +0.000 A 
ATOM     20  C   UNL     1       5.798   3.656  14.566  0.00  0.00    +0.000 A 
ATOM     21  C   UNL     1       6.307   3.962  13.307  0.00  0.00    +0.000 A 
ATOM     22  C   UNL     1       7.338   4.885  13.218  0.00  0.00    +0.000 A 
ATOM     23  N   UNL     1       7.883   5.506  14.285  0.00  0.00    +0.000 NA
ATOM     24  C   UNL     1       7.359   5.200  15.494  0.00  0.00    +0.000 A 
ENDBRANCH  18  19
ENDBRANCH   5  18
TORSDOF 3
ENDMDL
MODEL 5
REMARK VINA RESULT:      -7.4      4.000      8.652
REMARK  Name = 
REMARK  4 active torsions:
REMARK  status: ('A' for Active; 'I' for Inactive)
REMARK    1  A    between atoms: C_1  and  C_2
REMARK    2  A    between atoms: C_6  and  C_8
REMARK    3  A    between atoms: C_12  and  O_13
REMARK    4  A    between atoms: O_13  and  C_14
REMARK                            x       y       z     vdW  Elec       q    Type
REMARK                         _______ _______ _______ _____ _____    ______ ____
ROOT
ATOM      1  C   UNL     1       2.199   7.746  19.117  0.00  0.00    +0.000 A 
ATOM      2  C   UNL     1       1.848   7.639  20.466  0.00  0.00    +0.000 A 
ATOM      3  N   UNL     1       1.017   8.491  21.114  0.00  0.00    +0.000 NA
ATOM      4  C   UNL     1       0.527   9.514  20.386  0.00  0.00    +0.000 A 
ATOM      5  C   UNL     1       0.840   9.733  19.049  0.00  0.00    +0.000 A 
ATOM      6  C   UNL     1       1.674   8.817  18.393  0.00  0.00    +0.000 A 
ENDROOT
BRANCH   1  12
ATOM      7  C   UNL     1       7.146   5.280  14.314  0.00  0.00    +0.000 C 
ATOM      8  C   UNL     1       6.060   5.213  15.323  0.00  0.00    +0.000 A 
ATOM      9  N   UNL     1       5.452   6.376  15.807  0.00  0.00    +0.000 NA
ATOM     10  C   UNL     1       4.583   6.051  16.746  0.00  0.00    +0.000 A 
ATOM     11  N   UNL     1       3.830   6.990  17.432  0.00  0.00    +0.000 N 
ATOM     12  C   UNL     1       3.122   6.713  18.587  0.00  0.00    +0.000 C 
ATOM     13  O   UNL     1       3.192   5.674  19.241  0.00  0.00    +0.000 OA
ATOM     14  S   UNL     1       4.361   4.367  16.998  0.00  0.00    +0.000 S 
ATOM     15  C   UNL     1       5.571   4.055  15.867  0.00  0.00    +0.000 A 
ATOM     16  F   UNL     1       5.989   2.856  15.552  0.00  0.00    +0.000 F 
ATOM     17  H   UNL     1       3.901   7.920  17.052  0.00  0.00    +0.000 HD
ENDBRANCH   1  12
BRANCH   5  18
ATOM     18  O   UNL     1       0.224  10.806  18.457  0.00  0.00    +0.000 OA
BRANCH  18  19
ATOM     19  C   UNL     1      -1.112  10.752  18.163  0.00  0.00    +0.000 A 
ATOM     20  C   UNL     1      -1.697   9.879  17.248  0.00  0.00    +0.000 A 
ATOM     21  C   UNL     1      -3.072   9.932  17.041  0.00  0.00    +0.000 A 
ATOM     22  C   UNL     1      -3.807  10.888  17.725  0.00  0.00    +0.000 A 
ATOM     23  N   UNL     1      -3.265  11.778  18.584  0.00  0.00    +0.000 NA
ATOM     24  C   UNL     1      -1.929  11.694  18.776  0.00  0.00    +0.000 A 
ENDBRANCH  18  19
ENDBRANCH   5  18
TORSDOF 3
ENDMDL
MODEL 6
REMARK VINA RESULT:      -7.4      0.702      1.067
REMARK  Name = 
REMARK  4 active torsions:
REMARK  status: ('A' for Active; 'I' for Inactive)
REMARK    1  A    between atoms: C_1  and  C_2
REMARK    2  A    between atoms: C_6  and  C_8
REMARK    3  A    between atoms: C_12  and  O_13
REMARK    4  A    between atoms: O_13  and  C_14
REMARK                            x       y       z     vdW  Elec       q    Type
REMARK                         _______ _______ _______ _____ _____    ______ ____
ROOT
ATOM      1  C   UNL     1       2.645   6.039  19.907  0.00  0.00    +0.000 A 
ATOM      2  C   UNL     1       1.862   5.017  20.451  0.00  0.00    +0.000 A 
ATOM      3  N   UNL     1       2.231   3.715  20.511  0.00  0.00    +0.000 NA
ATOM      4  C   UNL     1       3.433   3.412  19.982  0.00  0.00    +0.000 A 
ATOM      5  C   UNL     1       4.274   4.344  19.385  0.00  0.00    +0.000 A 
ATOM      6  C   UNL     1       3.884   5.690  19.367  0.00  0.00    +0.000 A 
ENDROOT
BRANCH   1  12
ATOM      7  C   UNL     1      -1.152  11.442  23.071  0.00  0.00    +0.000 C 
ATOM      8  C   UNL     1      -0.568  10.637  21.970  0.00  0.00    +0.000 A 
ATOM      9  N   UNL     1       0.098   9.435  22.231  0.00  0.00    +0.000 NA
ATOM     10  C   UNL     1       0.591   8.960  21.102  0.00  0.00    +0.000 A 
ATOM     11  N   UNL     1       1.322   7.784  21.034  0.00  0.00    +0.000 N 
ATOM     12  C   UNL     1       2.068   7.405  19.935  0.00  0.00    +0.000 C 
ATOM     13  O   UNL     1       2.318   8.110  18.958  0.00  0.00    +0.000 OA
ATOM     14  S   UNL     1       0.177   9.839  19.686  0.00  0.00    +0.000 S 
ATOM     15  C   UNL     1      -0.612  10.979  20.644  0.00  0.00    +0.000 A 
ATOM     16  F   UNL     1      -1.191  12.056  20.178  0.00  0.00    +0.000 F 
ATOM     17  H   UNL     1       1.320   7.258  21.893  0.00  0.00    +0.000 HD
ENDBRANCH   1  12
BRANCH   5  18
ATOM     18  O   UNL     1       5.475   3.863  18.929  0.00  0.00    +0.000 OA
BRANCH  18  19
ATOM     19  C   UNL     1       5.887   4.147  17.655  0.00  0.00    +0.000 A 
ATOM     20  C   UNL     1       7.108   4.727  17.317  0.00  0.00    +0.000 A 
ATOM     21  C   UNL     1       7.401   4.966  15.978  0.00  0.00    +0.000 A 
ATOM     22  C   UNL     1       6.442   4.656  15.027  0.00  0.00    +0.000 A 
ATOM     23  N   UNL     1       5.232   4.136  15.323  0.00  0.00    +0.000 NA
ATOM     24  C   UNL     1       4.980   3.901  16.631  0.00  0.00    +0.000 A 
ENDBRANCH  18  19
ENDBRANCH   5  18
TORSDOF 3
ENDMDL
MODEL 7
REMARK VINA RESULT:      -7.4      2.336      3.047
REMARK  Name = 
REMARK  4 active torsions:
REMARK  status: ('A' for Active; 'I' for Inactive)
REMARK    1  A    between atoms: C_1  and  C_2
REMARK    2  A    between atoms: C_6  and  C_8
REMARK    3  A    between atoms: C_12  and  O_13
REMARK    4  A    between atoms: O_13  and  C_14
REMARK                            x       y       z     vdW  Elec       q    Type
REMARK                         _______ _______ _______ _____ _____    ______ ____
ROOT
ATOM      1  C   UNL     1       4.570   6.000  18.281  0.00  0.00    +0.000 A 
ATOM      2  C   UNL     1       5.186   5.020  19.064  0.00  0.00    +0.000 A 
ATOM      3  N   UNL     1       6.310   4.350  18.713  0.00  0.00    +0.000 NA
ATOM      4  C   UNL     1       6.836   4.660  17.511  0.00  0.00    +0.000 A 
ATOM      5  C   UNL     1       6.284   5.592  16.640  0.00  0.00    +0.000 A 
ATOM      6  C   UNL     1       5.140   6.296  17.043  0.00  0.00    +0.000 A 
ENDROOT
BRANCH   1  12
ATOM      7  C   UNL     1      -0.677  11.108  18.378  0.00  0.00    +0.000 C 
ATOM      8  C   UNL     1       0.236  10.069  18.912  0.00  0.00    +0.000 A 
ATOM      9  N   UNL     1       1.227   9.496  18.108  0.00  0.00    +0.000 NA
ATOM     10  C   UNL     1       1.844   8.548  18.790  0.00  0.00    +0.000 A 
ATOM     11  N   UNL     1       2.868   7.782  18.257  0.00  0.00    +0.000 N 
ATOM     12  C   UNL     1       3.344   6.623  18.839  0.00  0.00    +0.000 C 
ATOM     13  O   UNL     1       2.833   6.035  19.792  0.00  0.00    +0.000 OA
ATOM     14  S   UNL     1       1.369   8.390  20.432  0.00  0.00    +0.000 S 
ATOM     15  C   UNL     1       0.198   9.578  20.191  0.00  0.00    +0.000 A 
ATOM     16  F   UNL     1      -0.642   9.978  21.110  0.00  0.00    +0.000 F 
ATOM     17  H   UNL     1       3.192   8.108  17.360  0.00  0.00    +0.000 HD
ENDBRANCH   1  12
BRANCH   5  18
ATOM     18  O   UNL     1       6.971   5.804  15.473  0.00  0.00    +0.000 OA
BRANCH  18  19
ATOM     19  C   UNL     1       6.703   5.036  14.372  0.00  0.00    +0.000 A 
ATOM     20  C   UNL     1       5.629   4.156  14.250  0.00  0.00    +0.000 A 
ATOM     21  C   UNL     1       5.474   3.431  13.072  0.00  0.00    +0.000 A 
ATOM     22  C   UNL     1       6.425   3.579  12.075  0.00  0.00    +0.000 A 
ATOM     23  N   UNL     1       7.501   4.388  12.179  0.00  0.00    +0.000 NA
ATOM     24  C   UNL     1       7.619   5.091  13.328  0.00  0.00    +0.000 A 
ENDBRANCH  18  19
ENDBRANCH   5  18
TORSDOF 3
ENDMDL
MODEL 8
REMARK VINA RESULT:      -7.3      2.507      3.447
REMARK  Name = 
REMARK  4 active torsions:
REMARK  status: ('A' for Active; 'I' for Inactive)
REMARK    1  A    between atoms: C_1  and  C_2
REMARK    2  A    between atoms: C_6  and  C_8
REMARK    3  A    between atoms: C_12  and  O_13
REMARK    4  A    between atoms: O_13  and  C_14
REMARK                            x       y       z     vdW  Elec       q    Type
REMARK                         _______ _______ _______ _____ _____    ______ ____
ROOT
ATOM      1  C   UNL     1       5.035   5.889  18.099  0.00  0.00    +0.000 A 
ATOM      2  C   UNL     1       5.747   5.010  18.920  0.00  0.00    +0.000 A 
ATOM      3  N   UNL     1       6.921   4.423  18.583  0.00  0.00    +0.000 NA
ATOM      4  C   UNL     1       7.400   4.712  17.357  0.00  0.00    +0.000 A 
ATOM      5  C   UNL     1       6.755   5.545  16.450  0.00  0.00    +0.000 A 
ATOM      6  C   UNL     1       5.560   6.166  16.836  0.00  0.00    +0.000 A 
ENDROOT
BRANCH   1  12
ATOM      7  C   UNL     1      -0.384  10.809  18.330  0.00  0.00    +0.000 C 
ATOM      8  C   UNL     1       0.542   9.763  18.828  0.00  0.00    +0.000 A 
ATOM      9  N   UNL     1       1.584   9.281  18.029  0.00  0.00    +0.000 NA
ATOM     10  C   UNL     1       2.205   8.307  18.668  0.00  0.00    +0.000 A 
ATOM     11  N   UNL     1       3.276   7.614  18.127  0.00  0.00    +0.000 N 
ATOM     12  C   UNL     1       3.768   6.431  18.647  0.00  0.00    +0.000 C 
ATOM     13  O   UNL     1       3.239   5.761  19.533  0.00  0.00    +0.000 OA
ATOM     14  S   UNL     1       1.670   8.017  20.274  0.00  0.00    +0.000 S 
ATOM     15  C   UNL     1       0.470   9.182  20.067  0.00  0.00    +0.000 A 
ATOM     16  F   UNL     1      -0.420   9.488  20.975  0.00  0.00    +0.000 F 
ATOM     17  H   UNL     1       3.623   8.013  17.270  0.00  0.00    +0.000 HD
ENDBRANCH   1  12
BRANCH   5  18
ATOM     18  O   UNL     1       7.405   5.752  15.259  0.00  0.00    +0.000 OA
BRANCH  18  19
ATOM     19  C   UNL     1       7.084   4.997  14.164  0.00  0.00    +0.000 A 
ATOM     20  C   UNL     1       7.733   5.056  12.931  0.00  0.00    +0.000 A 
ATOM     21  C   UNL     1       7.302   4.232  11.896  0.00  0.00    +0.000 A 
ATOM     22  C   UNL     1       6.208   3.411  12.117  0.00  0.00    +0.000 A 
ATOM     23  N   UNL     1       5.529   3.362  13.283  0.00  0.00    +0.000 NA
ATOM     24  C   UNL     1       5.979   4.163  14.276  0.00  0.00    +0.000 A 
ENDBRANCH  18  19
ENDBRANCH   5  18
TORSDOF 3
ENDMDL
MODEL 9
REMARK VINA RESULT:      -7.3      1.864      2.495
REMARK  Name = 
REMARK  4 active torsions:
REMARK  status: ('A' for Active; 'I' for Inactive)
REMARK    1  A    between atoms: C_1  and  C_2
REMARK    2  A    between atoms: C_6  and  C_8
REMARK    3  A    between atoms: C_12  and  O_13
REMARK    4  A    between atoms: O_13  and  C_14
REMARK                            x       y       z     vdW  Elec       q    Type
REMARK                         _______ _______ _______ _____ _____    ______ ____
ROOT
ATOM      1  C   UNL     1       2.939   5.143  19.923  0.00  0.00    +0.000 A 
ATOM      2  C   UNL     1       2.492   3.835  20.132  0.00  0.00    +0.000 A 
ATOM      3  N   UNL     1       3.230   2.723  19.901  0.00  0.00    +0.000 NA
ATOM      4  C   UNL     1       4.472   2.925  19.417  0.00  0.00    +0.000 A 
ATOM      5  C   UNL     1       5.002   4.180  19.141  0.00  0.00    +0.000 A 
ATOM      6  C   UNL     1       4.230   5.315  19.422  0.00  0.00    +0.000 A 
ENDROOT
BRANCH   1  12
ATOM      7  C   UNL     1       0.195  11.871  19.010  0.00  0.00    +0.000 C 
ATOM      8  C   UNL     1       0.519  10.604  19.711  0.00  0.00    +0.000 A 
ATOM      9  N   UNL     1       1.327   9.633  19.110  0.00  0.00    +0.000 NA
ATOM     10  C   UNL     1       1.393   8.577  19.899  0.00  0.00    +0.000 A 
ATOM     11  N   UNL     1       2.108   7.436  19.572  0.00  0.00    +0.000 N 
ATOM     12  C   UNL     1       1.981   6.231  20.238  0.00  0.00    +0.000 C 
ATOM     13  O   UNL     1       1.124   5.961  21.078  0.00  0.00    +0.000 OA
ATOM     14  S   UNL     1       0.619   8.741  21.423  0.00  0.00    +0.000 S 
ATOM     15  C   UNL     1       0.071  10.267  20.961  0.00  0.00    +0.000 A 
ATOM     16  F   UNL     1      -0.689  11.030  21.704  0.00  0.00    +0.000 F 
ATOM     17  H   UNL     1       2.683   7.541  18.752  0.00  0.00    +0.000 HD
ENDBRANCH   1  12
BRANCH   5  18
ATOM     18  O   UNL     1       6.295   4.197  18.683  0.00  0.00    +0.000 OA
BRANCH  18  19
ATOM     19  C   UNL     1       6.883   5.384  18.338  0.00  0.00    +0.000 A 
ATOM     20  C   UNL     1       7.761   6.108  19.143  0.00  0.00    +0.000 A 
ATOM     21  C   UNL     1       8.287   7.307  18.670  0.00  0.00    +0.000 A 
ATOM     22  C   UNL     1       7.881   7.760  17.425  0.00  0.00    +0.000 A 
ATOM     23  N   UNL     1       6.998   7.107  16.640  0.00  0.00    +0.000 NA
ATOM     24  C   UNL     1       6.514   5.938  17.118  0.00  0.00    +0.000 A 
ENDBRANCH  18  19
ENDBRANCH   5  18
TORSDOF 3
ENDMDL
