MODEL 1
REMARK VINA RESULT:      -7.7      0.000      0.000
REMARK  Name = 
REMARK  12 active torsions:
REMARK  status: ('A' for Active; 'I' for Inactive)
REMARK    1  A    between atoms: C_1  and  C_2
REMARK    2  A    between atoms: C_2  and  C_3
REMARK    3  A    between atoms: C_3  and  O_4
REMARK    4  A    between atoms: O_4  and  C_5
REMARK    5  A    between atoms: C_8  and  C_9
REMARK    6  A    between atoms: N_19  and  C_20
REMARK    7  A    between atoms: C_20  and  C_21
REMARK    8  A    between atoms: C_21  and  N_22
REMARK    9  A    between atoms: N_22  and  C_23
REMARK   10  A    between atoms: N_22  and  C_25
REMARK   11  A    between atoms: C_23  and  C_24
REMARK   12  A    between atoms: C_25  and  C_26
REMARK                            x       y       z     vdW  Elec       q    Type
REMARK                         _______ _______ _______ _____ _____    ______ ____
ROOT
ATOM      1  C   UNL     1       3.272   7.055  18.007  0.00  0.00    +0.000 A 
ATOM      2  C   UNL     1       4.026   7.547  16.999  0.00  0.00    +0.000 A 
ATOM      3  C   UNL     1       4.912   6.604  16.281  0.00  0.00    +0.000 A 
ATOM      4  O   UNL     1       5.198   6.794  15.119  0.00  0.00    +0.000 OA
ATOM      5  C   UNL     1       5.546   5.610  17.135  0.00  0.00    +0.000 A 
ATOM      6  C   UNL     1       6.941   5.512  16.990  0.00  0.00    +0.000 A 
ATOM      7  C   UNL     1       7.711   5.407  18.139  0.00  0.00    +0.000 A 
ATOM      8  C   UNL     1       7.069   5.345  19.381  0.00  0.00    +0.000 A 
ATOM      9  C   UNL     1       5.656   5.282  19.483  0.00  0.00    +0.000 A 
ATOM     10  C   UNL     1       4.849   5.354  18.332  0.00  0.00    +0.000 A 
ATOM     11  N   UNL     1       3.423   5.710  18.402  0.00  0.00    +0.000 N 
ENDROOT
BRANCH   1  15
ATOM     12  C   UNL     1       0.362   9.635  19.896  0.00  0.00    +0.000 A 
ATOM     13  C   UNL     1       0.749   9.795  18.569  0.00  0.00    +0.000 A 
ATOM     14  C   UNL     1       1.690   8.959  17.998  0.00  0.00    +0.000 A 
ATOM     15  C   UNL     1       2.310   7.931  18.717  0.00  0.00    +0.000 A 
ATOM     16  C   UNL     1       1.926   7.768  20.059  0.00  0.00    +0.000 A 
ATOM     17  C   UNL     1       0.950   8.610  20.640  0.00  0.00    +0.000 A 
BRANCH  12  18
ATOM     18  O   UNL     1      -0.576  10.431  20.511  0.00  0.00    +0.000 OA
BRANCH  18  19
ATOM     19  C   UNL     1      -0.028  11.648  21.032  0.00  0.00    +0.000 C 
BRANCH  19  21
ATOM     20  C   UNL     1      -1.145  10.827  23.088  0.00  0.00    +0.000 C 
ATOM     21  C   UNL     1      -0.683  12.069  22.336  0.00  0.00    +0.000 C 
ENDBRANCH  19  21
ENDBRANCH  18  19
ENDBRANCH  12  18
ENDBRANCH   1  15
BRANCH  11  22
ATOM     22  C   UNL     1       2.591   4.677  17.610  0.00  0.00    +0.000 C 
BRANCH  22  23
ATOM     23  C   UNL     1       1.534   3.813  18.442  0.00  0.00    +0.000 C 
BRANCH  23  24
ATOM     24  N   UNL     1       2.073   2.721  19.322  0.00  0.00    +0.000 NA
BRANCH  24  25
ATOM     25  C   UNL     1       3.264   2.040  18.773  0.00  0.00    +0.000 C 
ATOM     26  C   UNL     1       4.468   1.909  19.706  0.00  0.00    +0.000 C 
ENDBRANCH  24  25
BRANCH  24  27
ATOM     27  C   UNL     1       2.359   3.127  20.722  0.00  0.00    +0.000 C 
ATOM     28  C   UNL     1       1.408   2.643  21.811  0.00  0.00    +0.000 C 
ENDBRANCH  24  27
ENDBRANCH  23  24
ENDBRANCH  22  23
ENDBRANCH  11  22
TORSDOF 9
ENDMDL
MODEL 2
REMARK VINA RESULT:      -7.6      0.990      1.542
REMARK  Name = 
REMARK  12 active torsions:
REMARK  status: ('A' for Active; 'I' for Inactive)
REMARK    1  A    between atoms: C_1  and  C_2
REMARK    2  A    between atoms: C_2  and  C_3
REMARK    3  A    between atoms: C_3  and  O_4
REMARK    4  A    between atoms: O_4  and  C_5
REMARK    5  A    between atoms: C_8  and  C_9
REMARK    6  A    between atoms: N_19  and  C_20
REMARK    7  A    between atoms: C_20  and  C_21
REMARK    8  A    between atoms: C_21  and  N_22
REMARK    9  A    between atoms: N_22  and  C_23
REMARK   10  A    between atoms: N_22  and  C_25
REMARK   11  A    between atoms: C_23  and  C_24
REMARK   12  A    between atoms: C_25  and  C_26
REMARK                            x       y       z     vdW  Elec       q    Type
REMARK                         _______ _______ _______ _____ _____    ______ ____
ROOT
ATOM      1  C   UNL     1       3.399   6.878  17.840  0.00  0.00    +0.000 A 
ATOM      2  C   UNL     1       4.172   7.281  16.808  0.00  0.00    +0.000 A 
ATOM      3  C   UNL     1       5.066   6.278  16.188  0.00  0.00    +0.000 A 
ATOM      4  O   UNL     1       5.373   6.368  15.019  0.00  0.00    +0.000 OA
ATOM      5  C   UNL     1       5.682   5.358  17.134  0.00  0.00    +0.000 A 
ATOM      6  C   UNL     1       7.078   5.244  17.022  0.00  0.00    +0.000 A 
ATOM      7  C   UNL     1       7.828   5.234  18.190  0.00  0.00    +0.000 A 
ATOM      8  C   UNL     1       7.164   5.280  19.421  0.00  0.00    +0.000 A 
ATOM      9  C   UNL     1       5.749   5.229  19.503  0.00  0.00    +0.000 A 
ATOM     10  C   UNL     1       4.963   5.206  18.336  0.00  0.00    +0.000 A 
ATOM     11  N   UNL     1       3.537   5.570  18.351  0.00  0.00    +0.000 N 
ENDROOT
BRANCH   1  15
ATOM     12  C   UNL     1       0.668   9.579  19.826  0.00  0.00    +0.000 A 
ATOM     13  C   UNL     1       1.235   8.485  20.472  0.00  0.00    +0.000 A 
ATOM     14  C   UNL     1       2.097   7.634  19.805  0.00  0.00    +0.000 A 
ATOM     15  C   UNL     1       2.429   7.814  18.457  0.00  0.00    +0.000 A 
ATOM     16  C   UNL     1       1.855   8.915  17.799  0.00  0.00    +0.000 A 
ATOM     17  C   UNL     1       0.988   9.796  18.484  0.00  0.00    +0.000 A 
BRANCH  12  18
ATOM     18  O   UNL     1      -0.187  10.462  20.443  0.00  0.00    +0.000 OA
BRANCH  18  19
ATOM     19  C   UNL     1      -1.060  11.135  19.527  0.00  0.00    +0.000 C 
BRANCH  19  21
ATOM     20  C   UNL     1      -0.442  13.288  18.464  0.00  0.00    +0.000 C 
ATOM     21  C   UNL     1      -1.040  12.643  19.708  0.00  0.00    +0.000 C 
ENDBRANCH  19  21
ENDBRANCH  18  19
ENDBRANCH  12  18
ENDBRANCH   1  15
BRANCH  11  22
ATOM     22  C   UNL     1       2.714   4.476  17.634  0.00  0.00    +0.000 C 
BRANCH  22  23
ATOM     23  C   UNL     1       1.556   3.774  18.483  0.00  0.00    +0.000 C 
BRANCH  23  24
ATOM     24  N   UNL     1       1.910   2.520  19.232  0.00  0.00    +0.000 NA
BRANCH  24  25
ATOM     25  C   UNL     1       3.140   1.859  18.748  0.00  0.00    +0.000 C 
ATOM     26  C   UNL     1       4.338   1.864  19.697  0.00  0.00    +0.000 C 
ENDBRANCH  24  25
BRANCH  24  27
ATOM     27  C   UNL     1       2.001   2.674  20.706  0.00  0.00    +0.000 C 
ATOM     28  C   UNL     1       1.965   4.087  21.277  0.00  0.00    +0.000 C 
ENDBRANCH  24  27
ENDBRANCH  23  24
ENDBRANCH  22  23
ENDBRANCH  11  22
TORSDOF 9
ENDMDL
MODEL 3
REMARK VINA RESULT:      -7.5      1.139      1.530
REMARK  Name = 
REMARK  12 active torsions:
REMARK  status: ('A' for Active; 'I' for Inactive)
REMARK    1  A    between atoms: C_1  and  C_2
REMARK    2  A    between atoms: C_2  and  C_3
REMARK    3  A    between atoms: C_3  and  O_4
REMARK    4  A    between atoms: O_4  and  C_5
REMARK    5  A    between atoms: C_8  and  C_9
REMARK    6  A    between atoms: N_19  and  C_20
REMARK    7  A    between atoms: C_20  and  C_21
REMARK    8  A    between atoms: C_21  and  N_22
REMARK    9  A    between atoms: N_22  and  C_23
REMARK   10  A    between atoms: N_22  and  C_25
REMARK   11  A    between atoms: C_23  and  C_24
REMARK   12  A    between atoms: C_25  and  C_26
REMARK                            x       y       z     vdW  Elec       q    Type
REMARK                         _______ _______ _______ _____ _____    ______ ____
ROOT
ATOM      1  C   UNL     1       3.452   6.911  17.834  0.00  0.00    +0.000 A 
ATOM      2  C   UNL     1       4.227   7.266  16.786  0.00  0.00    +0.000 A 
ATOM      3  C   UNL     1       5.060   6.215  16.161  0.00  0.00    +0.000 A 
ATOM      4  O   UNL     1       5.352   6.280  14.987  0.00  0.00    +0.000 OA
ATOM      5  C   UNL     1       5.646   5.274  17.105  0.00  0.00    +0.000 A 
ATOM      6  C   UNL     1       7.033   5.091  16.972  0.00  0.00    +0.000 A 
ATOM      7  C   UNL     1       7.801   5.054  18.128  0.00  0.00    +0.000 A 
ATOM      8  C   UNL     1       7.161   5.143  19.368  0.00  0.00    +0.000 A 
ATOM      9  C   UNL     1       5.746   5.162  19.474  0.00  0.00    +0.000 A 
ATOM     10  C   UNL     1       4.941   5.168  18.320  0.00  0.00    +0.000 A 
ATOM     11  N   UNL     1       3.535   5.602  18.355  0.00  0.00    +0.000 N 
ENDROOT
BRANCH   1  15
ATOM     12  C   UNL     1       0.706   9.827  19.462  0.00  0.00    +0.000 A 
ATOM     13  C   UNL     1       1.231   9.934  18.178  0.00  0.00    +0.000 A 
ATOM     14  C   UNL     1       2.115   8.989  17.691  0.00  0.00    +0.000 A 
ATOM     15  C   UNL     1       2.539   7.898  18.458  0.00  0.00    +0.000 A 
ATOM     16  C   UNL     1       2.015   7.787  19.757  0.00  0.00    +0.000 A 
ATOM     17  C   UNL     1       1.097   8.742  20.250  0.00  0.00    +0.000 A 
BRANCH  12  18
ATOM     18  O   UNL     1      -0.184  10.731  19.992  0.00  0.00    +0.000 OA
BRANCH  18  19
ATOM     19  C   UNL     1      -1.483  10.664  19.390  0.00  0.00    +0.000 C 
BRANCH  19  21
ATOM     20  C   UNL     1      -2.285  11.313  17.135  0.00  0.00    +0.000 C 
ATOM     21  C   UNL     1      -1.755  11.837  18.464  0.00  0.00    +0.000 C 
ENDBRANCH  19  21
ENDBRANCH  18  19
ENDBRANCH  12  18
ENDBRANCH   1  15
BRANCH  11  22
ATOM     22  C   UNL     1       2.648   4.544  17.662  0.00  0.00    +0.000 C 
BRANCH  22  23
ATOM     23  C   UNL     1       1.509   3.863  18.553  0.00  0.00    +0.000 C 
BRANCH  23  24
ATOM     24  N   UNL     1       1.853   2.575  19.248  0.00  0.00    +0.000 NA
BRANCH  24  25
ATOM     25  C   UNL     1       3.023   1.878  18.677  0.00  0.00    +0.000 C 
ATOM     26  C   UNL     1       4.272   1.805  19.556  0.00  0.00    +0.000 C 
ENDBRANCH  24  25
BRANCH  24  27
ATOM     27  C   UNL     1       2.034   2.685  20.719  0.00  0.00    +0.000 C 
ATOM     28  C   UNL     1       2.061   4.082  21.329  0.00  0.00    +0.000 C 
ENDBRANCH  24  27
ENDBRANCH  23  24
ENDBRANCH  22  23
ENDBRANCH  11  22
TORSDOF 9
ENDMDL
MODEL 4
REMARK VINA RESULT:      -7.4      2.263      4.727
REMARK  Name = 
REMARK  12 active torsions:
REMARK  status: ('A' for Active; 'I' for Inactive)
REMARK    1  A    between atoms: C_1  and  C_2
REMARK    2  A    between atoms: C_2  and  C_3
REMARK    3  A    between atoms: C_3  and  O_4
REMARK    4  A    between atoms: O_4  and  C_5
REMARK    5  A    between atoms: C_8  and  C_9
REMARK    6  A    between atoms: N_19  and  C_20
REMARK    7  A    between atoms: C_20  and  C_21
REMARK    8  A    between atoms: C_21  and  N_22
REMARK    9  A    between atoms: N_22  and  C_23
REMARK   10  A    between atoms: N_22  and  C_25
REMARK   11  A    between atoms: C_23  and  C_24
REMARK   12  A    between atoms: C_25  and  C_26
REMARK                            x       y       z     vdW  Elec       q    Type
REMARK                         _______ _______ _______ _____ _____    ______ ____
ROOT
ATOM      1  C   UNL     1       2.444   6.209  19.669  0.00  0.00    +0.000 A 
ATOM      2  C   UNL     1       1.858   5.504  20.660  0.00  0.00    +0.000 A 
ATOM      3  C   UNL     1       2.419   4.173  20.981  0.00  0.00    +0.000 A 
ATOM      4  O   UNL     1       2.333   3.723  22.103  0.00  0.00    +0.000 OA
ATOM      5  C   UNL     1       2.856   3.411  19.819  0.00  0.00    +0.000 A 
ATOM      6  C   UNL     1       2.346   2.103  19.746  0.00  0.00    +0.000 A 
ATOM      7  C   UNL     1       1.890   1.648  18.517  0.00  0.00    +0.000 A 
ATOM      8  C   UNL     1       2.008   2.482  17.400  0.00  0.00    +0.000 A 
ATOM      9  C   UNL     1       2.675   3.732  17.474  0.00  0.00    +0.000 A 
ATOM     10  C   UNL     1       3.176   4.206  18.701  0.00  0.00    +0.000 A 
ATOM     11  N   UNL     1       3.487   5.627  18.917  0.00  0.00    +0.000 N 
ENDROOT
BRANCH   1  15
ATOM     12  C   UNL     1       1.118  10.259  18.936  0.00  0.00    +0.000 A 
ATOM     13  C   UNL     1       0.932   9.624  20.160  0.00  0.00    +0.000 A 
ATOM     14  C   UNL     1       1.360   8.324  20.359  0.00  0.00    +0.000 A 
ATOM     15  C   UNL     1       1.977   7.579  19.348  0.00  0.00    +0.000 A 
ATOM     16  C   UNL     1       2.164   8.213  18.108  0.00  0.00    +0.000 A 
ATOM     17  C   UNL     1       1.744   9.549  17.909  0.00  0.00    +0.000 A 
BRANCH  12  18
ATOM     18  O   UNL     1       0.723  11.553  18.687  0.00  0.00    +0.000 OA
BRANCH  18  19
ATOM     19  C   UNL     1      -0.649  11.796  19.021  0.00  0.00    +0.000 C 
BRANCH  19  21
ATOM     20  C   UNL     1      -2.319  10.284  17.984  0.00  0.00    +0.000 C 
ATOM     21  C   UNL     1      -1.579  11.608  17.834  0.00  0.00    +0.000 C 
ENDBRANCH  19  21
ENDBRANCH  18  19
ENDBRANCH  12  18
ENDBRANCH   1  15
BRANCH  11  22
ATOM     22  C   UNL     1       4.906   5.764  19.514  0.00  0.00    +0.000 C 
BRANCH  22  23
ATOM     23  C   UNL     1       6.096   5.066  18.708  0.00  0.00    +0.000 C 
BRANCH  23  24
ATOM     24  N   UNL     1       6.262   5.435  17.261  0.00  0.00    +0.000 NA
BRANCH  24  25
ATOM     25  C   UNL     1       7.472   6.234  16.979  0.00  0.00    +0.000 C 
ATOM     26  C   UNL     1       7.515   7.643  17.570  0.00  0.00    +0.000 C 
ENDBRANCH  24  25
BRANCH  24  27
ATOM     27  C   UNL     1       6.213   4.293  16.312  0.00  0.00    +0.000 C 
ATOM     28  C   UNL     1       5.477   4.495  14.992  0.00  0.00    +0.000 C 
ENDBRANCH  24  27
ENDBRANCH  23  24
ENDBRANCH  22  23
ENDBRANCH  11  22
TORSDOF 9
ENDMDL
MODEL 5
REMARK VINA RESULT:      -7.4      2.260      4.629
REMARK  Name = 
REMARK  12 active torsions:
REMARK  status: ('A' for Active; 'I' for Inactive)
REMARK    1  A    between atoms: C_1  and  C_2
REMARK    2  A    between atoms: C_2  and  C_3
REMARK    3  A    between atoms: C_3  and  O_4
REMARK    4  A    between atoms: O_4  and  C_5
REMARK    5  A    between atoms: C_8  and  C_9
REMARK    6  A    between atoms: N_19  and  C_20
REMARK    7  A    between atoms: C_20  and  C_21
REMARK    8  A    between atoms: C_21  and  N_22
REMARK    9  A    between atoms: N_22  and  C_23
REMARK   10  A    between atoms: N_22  and  C_25
REMARK   11  A    between atoms: C_23  and  C_24
REMARK   12  A    between atoms: C_25  and  C_26
REMARK                            x       y       z     vdW  Elec       q    Type
REMARK                         _______ _______ _______ _____ _____    ______ ____
ROOT
ATOM      1  C   UNL     1       2.525   6.210  19.718  0.00  0.00    +0.000 A 
ATOM      2  C   UNL     1       1.953   5.447  20.674  0.00  0.00    +0.000 A 
ATOM      3  C   UNL     1       2.526   4.105  20.916  0.00  0.00    +0.000 A 
ATOM      4  O   UNL     1       2.454   3.594  22.012  0.00  0.00    +0.000 OA
ATOM      5  C   UNL     1       2.956   3.411  19.709  0.00  0.00    +0.000 A 
ATOM      6  C   UNL     1       2.455   2.105  19.569  0.00  0.00    +0.000 A 
ATOM      7  C   UNL     1       1.989   1.716  18.321  0.00  0.00    +0.000 A 
ATOM      8  C   UNL     1       2.090   2.611  17.251  0.00  0.00    +0.000 A 
ATOM      9  C   UNL     1       2.750   3.859  17.387  0.00  0.00    +0.000 A 
ATOM     10  C   UNL     1       3.260   4.269  18.633  0.00  0.00    +0.000 A 
ATOM     11  N   UNL     1       3.564   5.678  18.925  0.00  0.00    +0.000 N 
ENDROOT
BRANCH   1  15
ATOM     12  C   UNL     1       1.087  10.187  18.815  0.00  0.00    +0.000 A 
ATOM     13  C   UNL     1       1.738   9.399  17.872  0.00  0.00    +0.000 A 
ATOM     14  C   UNL     1       2.194   8.134  18.195  0.00  0.00    +0.000 A 
ATOM     15  C   UNL     1       2.046   7.592  19.477  0.00  0.00    +0.000 A 
ATOM     16  C   UNL     1       1.393   8.386  20.436  0.00  0.00    +0.000 A 
ATOM     17  C   UNL     1       0.909   9.672  20.102  0.00  0.00    +0.000 A 
BRANCH  12  18
ATOM     18  O   UNL     1       0.603  11.446  18.545  0.00  0.00    +0.000 OA
BRANCH  18  19
ATOM     19  C   UNL     1      -0.761  11.624  18.946  0.00  0.00    +0.000 C 
BRANCH  19  21
ATOM     20  C   UNL     1      -3.162  11.492  18.341  0.00  0.00    +0.000 C 
ATOM     21  C   UNL     1      -1.739  11.348  17.817  0.00  0.00    +0.000 C 
ENDBRANCH  19  21
ENDBRANCH  18  19
ENDBRANCH  12  18
ENDBRANCH   1  15
BRANCH  11  22
ATOM     22  C   UNL     1       4.988   5.792  19.515  0.00  0.00    +0.000 C 
BRANCH  22  23
ATOM     23  C   UNL     1       6.126   4.909  18.823  0.00  0.00    +0.000 C 
BRANCH  23  24
ATOM     24  N   UNL     1       6.747   5.443  17.563  0.00  0.00    +0.000 NA
BRANCH  24  25
ATOM     25  C   UNL     1       6.340   4.721  16.340  0.00  0.00    +0.000 C 
ATOM     26  C   UNL     1       5.461   5.489  15.353  0.00  0.00    +0.000 C 
ENDBRANCH  24  25
BRANCH  24  27
ATOM     27  C   UNL     1       6.560   6.900  17.341  0.00  0.00    +0.000 C 
ATOM     28  C   UNL     1       7.735   7.822  17.648  0.00  0.00    +0.000 C 
ENDBRANCH  24  27
ENDBRANCH  23  24
ENDBRANCH  22  23
ENDBRANCH  11  22
TORSDOF 9
ENDMDL
MODEL 6
REMARK VINA RESULT:      -7.4      0.731      1.262
REMARK  Name = 
REMARK  12 active torsions:
REMARK  status: ('A' for Active; 'I' for Inactive)
REMARK    1  A    between atoms: C_1  and  C_2
REMARK    2  A    between atoms: C_2  and  C_3
REMARK    3  A    between atoms: C_3  and  O_4
REMARK    4  A    between atoms: O_4  and  C_5
REMARK    5  A    between atoms: C_8  and  C_9
REMARK    6  A    between atoms: N_19  and  C_20
REMARK    7  A    between atoms: C_20  and  C_21
REMARK    8  A    between atoms: C_21  and  N_22
REMARK    9  A    between atoms: N_22  and  C_23
REMARK   10  A    between atoms: N_22  and  C_25
REMARK   11  A    between atoms: C_23  and  C_24
REMARK   12  A    between atoms: C_25  and  C_26
REMARK                            x       y       z     vdW  Elec       q    Type
REMARK                         _______ _______ _______ _____ _____    ______ ____
ROOT
ATOM      1  C   UNL     1       3.360   6.883  17.965  0.00  0.00    +0.000 A 
ATOM      2  C   UNL     1       4.097   7.379  16.948  0.00  0.00    +0.000 A 
ATOM      3  C   UNL     1       5.008   6.449  16.244  0.00  0.00    +0.000 A 
ATOM      4  O   UNL     1       5.287   6.627  15.078  0.00  0.00    +0.000 OA
ATOM      5  C   UNL     1       5.672   5.489  17.113  0.00  0.00    +0.000 A 
ATOM      6  C   UNL     1       7.069   5.428  16.967  0.00  0.00    +0.000 A 
ATOM      7  C   UNL     1       7.844   5.364  18.116  0.00  0.00    +0.000 A 
ATOM      8  C   UNL     1       7.206   5.306  19.360  0.00  0.00    +0.000 A 
ATOM      9  C   UNL     1       5.796   5.204  19.467  0.00  0.00    +0.000 A 
ATOM     10  C   UNL     1       4.985   5.234  18.317  0.00  0.00    +0.000 A 
ATOM     11  N   UNL     1       3.550   5.550  18.384  0.00  0.00    +0.000 N 
ENDROOT
BRANCH   1  15
ATOM     12  C   UNL     1       0.587   9.352  20.183  0.00  0.00    +0.000 A 
ATOM     13  C   UNL     1       1.180   8.220  20.732  0.00  0.00    +0.000 A 
ATOM     14  C   UNL     1       2.055   7.446  19.993  0.00  0.00    +0.000 A 
ATOM     15  C   UNL     1       2.374   7.744  18.663  0.00  0.00    +0.000 A 
ATOM     16  C   UNL     1       1.774   8.883  18.101  0.00  0.00    +0.000 A 
ATOM     17  C   UNL     1       0.893   9.686  18.862  0.00  0.00    +0.000 A 
BRANCH  12  18
ATOM     18  O   UNL     1      -0.282  10.162  20.875  0.00  0.00    +0.000 OA
BRANCH  18  19
ATOM     19  C   UNL     1      -0.714   9.593  22.118  0.00  0.00    +0.000 C 
BRANCH  19  21
ATOM     20  C   UNL     1      -1.408  11.889  22.748  0.00  0.00    +0.000 C 
ATOM     21  C   UNL     1      -0.742  10.611  23.244  0.00  0.00    +0.000 C 
ENDBRANCH  19  21
ENDBRANCH  18  19
ENDBRANCH  12  18
ENDBRANCH   1  15
BRANCH  11  22
ATOM     22  C   UNL     1       2.746   4.480  17.612  0.00  0.00    +0.000 C 
BRANCH  22  23
ATOM     23  C   UNL     1       3.111   2.952  17.907  0.00  0.00    +0.000 C 
BRANCH  23  24
ATOM     24  N   UNL     1       2.619   2.360  19.198  0.00  0.00    +0.000 NA
BRANCH  24  25
ATOM     25  C   UNL     1       3.563   2.506  20.325  0.00  0.00    +0.000 C 
ATOM     26  C   UNL     1       4.844   1.675  20.256  0.00  0.00    +0.000 C 
ENDBRANCH  24  25
BRANCH  24  27
ATOM     27  C   UNL     1       1.280   2.832  19.634  0.00  0.00    +0.000 C 
ATOM     28  C   UNL     1       1.041   3.012  21.129  0.00  0.00    +0.000 C 
ENDBRANCH  24  27
ENDBRANCH  23  24
ENDBRANCH  22  23
ENDBRANCH  11  22
TORSDOF 9
ENDMDL
MODEL 7
REMARK VINA RESULT:      -7.4      1.184      1.832
REMARK  Name = 
REMARK  12 active torsions:
REMARK  status: ('A' for Active; 'I' for Inactive)
REMARK    1  A    between atoms: C_1  and  C_2
REMARK    2  A    between atoms: C_2  and  C_3
REMARK    3  A    between atoms: C_3  and  O_4
REMARK    4  A    between atoms: O_4  and  C_5
REMARK    5  A    between atoms: C_8  and  C_9
REMARK    6  A    between atoms: N_19  and  C_20
REMARK    7  A    between atoms: C_20  and  C_21
REMARK    8  A    between atoms: C_21  and  N_22
REMARK    9  A    between atoms: N_22  and  C_23
REMARK   10  A    between atoms: N_22  and  C_25
REMARK   11  A    between atoms: C_23  and  C_24
REMARK   12  A    between atoms: C_25  and  C_26
REMARK                            x       y       z     vdW  Elec       q    Type
REMARK                         _______ _______ _______ _____ _____    ______ ____
ROOT
ATOM      1  C   UNL     1       3.536   6.863  17.693  0.00  0.00    +0.000 A 
ATOM      2  C   UNL     1       4.336   7.175  16.650  0.00  0.00    +0.000 A 
ATOM      3  C   UNL     1       5.179   6.097  16.086  0.00  0.00    +0.000 A 
ATOM      4  O   UNL     1       5.498   6.115  14.917  0.00  0.00    +0.000 OA
ATOM      5  C   UNL     1       5.739   5.192  17.080  0.00  0.00    +0.000 A 
ATOM      6  C   UNL     1       7.128   4.999  16.986  0.00  0.00    +0.000 A 
ATOM      7  C   UNL     1       7.869   5.006  18.160  0.00  0.00    +0.000 A 
ATOM      8  C   UNL     1       7.201   5.145  19.381  0.00  0.00    +0.000 A 
ATOM      9  C   UNL     1       5.785   5.174  19.453  0.00  0.00    +0.000 A 
ATOM     10  C   UNL     1       5.006   5.137  18.282  0.00  0.00    +0.000 A 
ATOM     11  N   UNL     1       3.601   5.576  18.267  0.00  0.00    +0.000 N 
ENDROOT
BRANCH   1  15
ATOM     12  C   UNL     1       0.920   9.775  19.530  0.00  0.00    +0.000 A 
ATOM     13  C   UNL     1       1.295   8.601  20.173  0.00  0.00    +0.000 A 
ATOM     14  C   UNL     1       2.126   7.685  19.555  0.00  0.00    +0.000 A 
ATOM     15  C   UNL     1       2.613   7.877  18.257  0.00  0.00    +0.000 A 
ATOM     16  C   UNL     1       2.234   9.060  17.600  0.00  0.00    +0.000 A 
ATOM     17  C   UNL     1       1.400  10.007  18.238  0.00  0.00    +0.000 A 
BRANCH  12  18
ATOM     18  O   UNL     1       0.105  10.725  20.102  0.00  0.00    +0.000 OA
BRANCH  18  19
ATOM     19  C   UNL     1      -1.286  10.504  19.842  0.00  0.00    +0.000 C 
BRANCH  19  21
ATOM     20  C   UNL     1      -2.157  10.330  17.526  0.00  0.00    +0.000 C 
ATOM     21  C   UNL     1      -1.787  11.295  18.646  0.00  0.00    +0.000 C 
ENDBRANCH  19  21
ENDBRANCH  18  19
ENDBRANCH  12  18
ENDBRANCH   1  15
BRANCH  11  22
ATOM     22  C   UNL     1       2.726   4.494  17.596  0.00  0.00    +0.000 C 
BRANCH  22  23
ATOM     23  C   UNL     1       3.051   2.973  17.965  0.00  0.00    +0.000 C 
BRANCH  23  24
ATOM     24  N   UNL     1       2.445   2.423  19.225  0.00  0.00    +0.000 NA
BRANCH  24  25
ATOM     25  C   UNL     1       3.307   2.563  20.417  0.00  0.00    +0.000 C 
ATOM     26  C   UNL     1       4.667   1.868  20.363  0.00  0.00    +0.000 C 
ENDBRANCH  24  25
BRANCH  24  27
ATOM     27  C   UNL     1       1.093   2.945  19.551  0.00  0.00    +0.000 C 
ATOM     28  C   UNL     1       0.995   4.088  20.556  0.00  0.00    +0.000 C 
ENDBRANCH  24  27
ENDBRANCH  23  24
ENDBRANCH  22  23
ENDBRANCH  11  22
TORSDOF 9
ENDMDL
MODEL 8
REMARK VINA RESULT:      -7.4      0.562      1.305
REMARK  Name = 
REMARK  12 active torsions:
REMARK  status: ('A' for Active; 'I' for Inactive)
REMARK    1  A    between atoms: C_1  and  C_2
REMARK    2  A    between atoms: C_2  and  C_3
REMARK    3  A    between atoms: C_3  and  O_4
REMARK    4  A    between atoms: O_4  and  C_5
REMARK    5  A    between atoms: C_8  and  C_9
REMARK    6  A    between atoms: N_19  and  C_20
REMARK    7  A    between atoms: C_20  and  C_21
REMARK    8  A    between atoms: C_21  and  N_22
REMARK    9  A    between atoms: N_22  and  C_23
REMARK   10  A    between atoms: N_22  and  C_25
REMARK   11  A    between atoms: C_23  and  C_24
REMARK   12  A    between atoms: C_25  and  C_26
REMARK                            x       y       z     vdW  Elec       q    Type
REMARK                         _______ _______ _______ _____ _____    ______ ____
ROOT
ATOM      1  C   UNL     1       3.332   7.085  17.890  0.00  0.00    +0.000 A 
ATOM      2  C   UNL     1       4.131   7.534  16.898  0.00  0.00    +0.000 A 
ATOM      3  C   UNL     1       4.993   6.546  16.211  0.00  0.00    +0.000 A 
ATOM      4  O   UNL     1       5.317   6.712  15.055  0.00  0.00    +0.000 OA
ATOM      5  C   UNL     1       5.562   5.535  17.090  0.00  0.00    +0.000 A 
ATOM      6  C   UNL     1       6.955   5.375  16.982  0.00  0.00    +0.000 A 
ATOM      7  C   UNL     1       7.690   5.249  18.152  0.00  0.00    +0.000 A 
ATOM      8  C   UNL     1       7.015   5.227  19.377  0.00  0.00    +0.000 A 
ATOM      9  C   UNL     1       5.598   5.226  19.443  0.00  0.00    +0.000 A 
ATOM     10  C   UNL     1       4.825   5.321  18.271  0.00  0.00    +0.000 A 
ATOM     11  N   UNL     1       3.414   5.738  18.302  0.00  0.00    +0.000 N 
ENDROOT
BRANCH   1  15
ATOM     12  C   UNL     1       0.484   9.801  19.682  0.00  0.00    +0.000 A 
ATOM     13  C   UNL     1       0.880   9.908  18.353  0.00  0.00    +0.000 A 
ATOM     14  C   UNL     1       1.801   9.029  17.813  0.00  0.00    +0.000 A 
ATOM     15  C   UNL     1       2.391   8.009  18.568  0.00  0.00    +0.000 A 
ATOM     16  C   UNL     1       1.998   7.899  19.912  0.00  0.00    +0.000 A 
ATOM     17  C   UNL     1       1.043   8.785  20.462  0.00  0.00    +0.000 A 
BRANCH  12  18
ATOM     18  O   UNL     1      -0.435  10.641  20.268  0.00  0.00    +0.000 OA
BRANCH  18  19
ATOM     19  C   UNL     1      -0.561  10.441  21.681  0.00  0.00    +0.000 C 
BRANCH  19  21
ATOM     20  C   UNL     1      -2.001  11.661  23.288  0.00  0.00    +0.000 C 
ATOM     21  C   UNL     1      -0.739  11.745  22.439  0.00  0.00    +0.000 C 
ENDBRANCH  19  21
ENDBRANCH  18  19
ENDBRANCH  12  18
ENDBRANCH   1  15
BRANCH  11  22
ATOM     22  C   UNL     1       2.558   4.734  17.498  0.00  0.00    +0.000 C 
BRANCH  22  23
ATOM     23  C   UNL     1       1.697   3.685  18.341  0.00  0.00    +0.000 C 
BRANCH  23  24
ATOM     24  N   UNL     1       2.173   3.354  19.728  0.00  0.00    +0.000 NA
BRANCH  24  25
ATOM     25  C   UNL     1       1.090   3.002  20.667  0.00  0.00    +0.000 C 
ATOM     26  C   UNL     1       1.516   2.457  22.031  0.00  0.00    +0.000 C 
ENDBRANCH  24  25
BRANCH  24  27
ATOM     27  C   UNL     1       3.223   2.305  19.796  0.00  0.00    +0.000 C 
ATOM     28  C   UNL     1       3.567   1.558  18.512  0.00  0.00    +0.000 C 
ENDBRANCH  24  27
ENDBRANCH  23  24
ENDBRANCH  22  23
ENDBRANCH  11  22
TORSDOF 9
ENDMDL
MODEL 9
REMARK VINA RESULT:      -7.3      2.272      4.703
REMARK  Name = 
REMARK  12 active torsions:
REMARK  status: ('A' for Active; 'I' for Inactive)
REMARK    1  A    between atoms: C_1  and  C_2
REMARK    2  A    between atoms: C_2  and  C_3
REMARK    3  A    between atoms: C_3  and  O_4
REMARK    4  A    between atoms: O_4  and  C_5
REMARK    5  A    between atoms: C_8  and  C_9
REMARK    6  A    between atoms: N_19  and  C_20
REMARK    7  A    between atoms: C_20  and  C_21
REMARK    8  A    between atoms: C_21  and  N_22
REMARK    9  A    between atoms: N_22  and  C_23
REMARK   10  A    between atoms: N_22  and  C_25
REMARK   11  A    between atoms: C_23  and  C_24
REMARK   12  A    between atoms: C_25  and  C_26
REMARK                            x       y       z     vdW  Elec       q    Type
REMARK                         _______ _______ _______ _____ _____    ______ ____
ROOT
ATOM      1  C   UNL     1       2.475   6.211  19.756  0.00  0.00    +0.000 A 
ATOM      2  C   UNL     1       1.888   5.460  20.713  0.00  0.00    +0.000 A 
ATOM      3  C   UNL     1       2.447   4.114  20.969  0.00  0.00    +0.000 A 
ATOM      4  O   UNL     1       2.361   3.611  22.068  0.00  0.00    +0.000 OA
ATOM      5  C   UNL     1       2.881   3.408  19.771  0.00  0.00    +0.000 A 
ATOM      6  C   UNL     1       2.369   2.106  19.636  0.00  0.00    +0.000 A 
ATOM      7  C   UNL     1       1.911   1.711  18.386  0.00  0.00    +0.000 A 
ATOM      8  C   UNL     1       2.029   2.598  17.311  0.00  0.00    +0.000 A 
ATOM      9  C   UNL     1       2.699   3.841  17.444  0.00  0.00    +0.000 A 
ATOM     10  C   UNL     1       3.202   4.255  18.692  0.00  0.00    +0.000 A 
ATOM     11  N   UNL     1       3.516   5.664  18.976  0.00  0.00    +0.000 N 
ENDROOT
BRANCH   1  15
ATOM     12  C   UNL     1       1.084  10.195  18.813  0.00  0.00    +0.000 A 
ATOM     13  C   UNL     1       1.747   9.398  17.886  0.00  0.00    +0.000 A 
ATOM     14  C   UNL     1       2.189   8.132  18.222  0.00  0.00    +0.000 A 
ATOM     15  C   UNL     1       2.011   7.595  19.502  0.00  0.00    +0.000 A 
ATOM     16  C   UNL     1       1.345   8.397  20.445  0.00  0.00    +0.000 A 
ATOM     17  C   UNL     1       0.877   9.685  20.097  0.00  0.00    +0.000 A 
BRANCH  12  18
ATOM     18  O   UNL     1       0.615  11.456  18.530  0.00  0.00    +0.000 OA
BRANCH  18  19
ATOM     19  C   UNL     1      -0.772  11.627  18.848  0.00  0.00    +0.000 C 
BRANCH  19  21
ATOM     20  C   UNL     1      -3.122  11.403  18.089  0.00  0.00    +0.000 C 
ATOM     21  C   UNL     1      -1.687  10.959  17.835  0.00  0.00    +0.000 C 
ENDBRANCH  19  21
ENDBRANCH  18  19
ENDBRANCH  12  18
ENDBRANCH   1  15
BRANCH  11  22
ATOM     22  C   UNL     1       4.936   5.769  19.577  0.00  0.00    +0.000 C 
BRANCH  22  23
ATOM     23  C   UNL     1       6.116   5.063  18.764  0.00  0.00    +0.000 C 
BRANCH  23  24
ATOM     24  N   UNL     1       6.349   5.516  17.350  0.00  0.00    +0.000 NA
BRANCH  24  25
ATOM     25  C   UNL     1       7.084   6.793  17.242  0.00  0.00    +0.000 C 
ATOM     26  C   UNL     1       8.045   7.128  18.383  0.00  0.00    +0.000 C 
ENDBRANCH  24  25
BRANCH  24  27
ATOM     27  C   UNL     1       7.004   4.514  16.470  0.00  0.00    +0.000 C 
ATOM     28  C   UNL     1       6.355   4.218  15.123  0.00  0.00    +0.000 C 
ENDBRANCH  24  27
ENDBRANCH  23  24
ENDBRANCH  22  23
ENDBRANCH  11  22
TORSDOF 9
ENDMDL
