MODEL 1
REMARK VINA RESULT:      -7.9      0.000      0.000
REMARK  Name = 
REMARK  4 active torsions:
REMARK  status: ('A' for Active; 'I' for Inactive)
REMARK    1  A    between atoms: C_1  and  O_2
REMARK    2  A    between atoms: O_2  and  C_3
REMARK    3  A    between atoms: C_6  and  C_7
REMARK    4  A    between atoms: C_17  and  C_18
REMARK                            x       y       z     vdW  Elec       q    Type
REMARK                         _______ _______ _______ _____ _____    ______ ____
ROOT
ATOM      1  C   UNL     1       7.639   8.103  17.154  0.00  0.00    +0.000 C 
ATOM      2  C   UNL     1       7.470   6.833  17.560  0.00  0.00    +0.000 C 
ATOM      3  C   UNL     1       7.872   6.109  18.809  0.00  0.00    +0.000 C 
ATOM      4  C   UNL     1       6.625   5.678  19.590  0.00  0.00    +0.000 C 
ATOM      5  C   UNL     1       5.633   4.912  18.728  0.00  0.00    +0.000 C 
ATOM      6  C   UNL     1       5.074   3.775  19.184  0.00  0.00    +0.000 C 
ATOM      7  C   UNL     1       4.027   3.057  18.413  0.00  0.00    +0.000 C 
ATOM      8  O   UNL     1       3.535   2.035  18.888  0.00  0.00    +0.000 OA
ATOM      9  C   UNL     1       3.538   3.664  17.121  0.00  0.00    +0.000 C 
ATOM     10  C   UNL     1       4.647   4.448  16.438  0.00  0.00    +0.000 C 
ATOM     11  C   UNL     1       5.292   5.508  17.358  0.00  0.00    +0.000 C 
ATOM     12  C   UNL     1       4.355   6.718  17.533  0.00  0.00    +0.000 C 
ATOM     13  C   UNL     1       6.590   6.007  16.685  0.00  0.00    +0.000 C 
ATOM     14  O   UNL     1       6.879   5.818  15.507  0.00  0.00    +0.000 OA
ENDROOT
BRANCH   1  18
ATOM     15  C   UNL     1       9.405  11.362  19.298  0.00  0.00    +0.000 A 
ATOM     16  C   UNL     1       8.723  11.576  18.099  0.00  0.00    +0.000 A 
ATOM     17  C   UNL     1       8.145  10.507  17.406  0.00  0.00    +0.000 A 
ATOM     18  C   UNL     1       8.261   9.203  17.897  0.00  0.00    +0.000 A 
ATOM     19  C   UNL     1       8.881   9.008  19.135  0.00  0.00    +0.000 A 
ATOM     20  C   UNL     1       9.471  10.072  19.819  0.00  0.00    +0.000 A 
BRANCH  15  22
ATOM     21  C   UNL     1      11.362  12.396  20.144  0.00  0.00    +0.000 C 
ATOM     22  O   UNL     1       9.971  12.475  19.852  0.00  0.00    +0.000 OA
ENDBRANCH  15  22
ENDBRANCH   1  18
TORSDOF 2
ENDMDL
MODEL 2
REMARK VINA RESULT:      -7.7      0.110      1.030
REMARK  Name = 
REMARK  4 active torsions:
REMARK  status: ('A' for Active; 'I' for Inactive)
REMARK    1  A    between atoms: C_1  and  O_2
REMARK    2  A    between atoms: O_2  and  C_3
REMARK    3  A    between atoms: C_6  and  C_7
REMARK    4  A    between atoms: C_17  and  C_18
REMARK                            x       y       z     vdW  Elec       q    Type
REMARK                         _______ _______ _______ _____ _____    ______ ____
ROOT
ATOM      1  C   UNL     1       7.613   8.097  17.141  0.00  0.00    +0.000 C 
ATOM      2  C   UNL     1       7.442   6.832  17.563  0.00  0.00    +0.000 C 
ATOM      3  C   UNL     1       7.802   6.136  18.840  0.00  0.00    +0.000 C 
ATOM      4  C   UNL     1       6.530   5.705  19.579  0.00  0.00    +0.000 C 
ATOM      5  C   UNL     1       5.580   4.913  18.694  0.00  0.00    +0.000 C 
ATOM      6  C   UNL     1       5.016   3.778  19.149  0.00  0.00    +0.000 C 
ATOM      7  C   UNL     1       4.008   3.035  18.351  0.00  0.00    +0.000 C 
ATOM      8  O   UNL     1       3.508   2.015  18.826  0.00  0.00    +0.000 OA
ATOM      9  C   UNL     1       3.564   3.612  17.031  0.00  0.00    +0.000 C 
ATOM     10  C   UNL     1       4.690   4.396  16.377  0.00  0.00    +0.000 C 
ATOM     11  C   UNL     1       5.287   5.479  17.301  0.00  0.00    +0.000 C 
ATOM     12  C   UNL     1       4.332   6.682  17.416  0.00  0.00    +0.000 C 
ATOM     13  C   UNL     1       6.605   5.981  16.670  0.00  0.00    +0.000 C 
ATOM     14  O   UNL     1       6.942   5.773  15.508  0.00  0.00    +0.000 OA
ENDROOT
BRANCH   1  18
ATOM     15  C   UNL     1       9.364  11.325  19.342  0.00  0.00    +0.000 A 
ATOM     16  C   UNL     1       9.482  10.006  19.784  0.00  0.00    +0.000 A 
ATOM     17  C   UNL     1       8.911   8.956  19.058  0.00  0.00    +0.000 A 
ATOM     18  C   UNL     1       8.194   9.216  17.886  0.00  0.00    +0.000 A 
ATOM     19  C   UNL     1       8.145  10.531  17.412  0.00  0.00    +0.000 A 
ATOM     20  C   UNL     1       8.702  11.581  18.144  0.00  0.00    +0.000 A 
BRANCH  15  22
ATOM     21  C   UNL     1      11.339  12.309  20.207  0.00  0.00    +0.000 C 
ATOM     22  O   UNL     1       9.917  12.266  20.163  0.00  0.00    +0.000 OA
ENDBRANCH  15  22
ENDBRANCH   1  18
TORSDOF 2
ENDMDL
MODEL 3
REMARK VINA RESULT:      -7.5      5.214      7.343
REMARK  Name = 
REMARK  4 active torsions:
REMARK  status: ('A' for Active; 'I' for Inactive)
REMARK    1  A    between atoms: C_1  and  O_2
REMARK    2  A    between atoms: O_2  and  C_3
REMARK    3  A    between atoms: C_6  and  C_7
REMARK    4  A    between atoms: C_17  and  C_18
REMARK                            x       y       z     vdW  Elec       q    Type
REMARK                         _______ _______ _______ _____ _____    ______ ____
ROOT
ATOM      1  C   UNL     1       1.511   8.746  17.907  0.00  0.00    +0.000 C 
ATOM      2  C   UNL     1       2.170   7.962  18.777  0.00  0.00    +0.000 C 
ATOM      3  C   UNL     1       2.045   7.766  20.257  0.00  0.00    +0.000 C 
ATOM      4  C   UNL     1       1.577   6.339  20.560  0.00  0.00    +0.000 C 
ATOM      5  C   UNL     1       2.431   5.286  19.871  0.00  0.00    +0.000 C 
ATOM      6  C   UNL     1       2.863   4.209  20.555  0.00  0.00    +0.000 C 
ATOM      7  C   UNL     1       3.612   3.112  19.890  0.00  0.00    +0.000 C 
ATOM      8  O   UNL     1       3.963   2.141  20.559  0.00  0.00    +0.000 OA
ATOM      9  C   UNL     1       3.829   3.187  18.399  0.00  0.00    +0.000 C 
ATOM     10  C   UNL     1       3.939   4.632  17.940  0.00  0.00    +0.000 C 
ATOM     11  C   UNL     1       2.742   5.500  18.387  0.00  0.00    +0.000 C 
ATOM     12  C   UNL     1       1.494   5.181  17.541  0.00  0.00    +0.000 C 
ATOM     13  C   UNL     1       3.106   6.982  18.153  0.00  0.00    +0.000 C 
ATOM     14  O   UNL     1       4.043   7.367  17.460  0.00  0.00    +0.000 OA
ENDROOT
BRANCH   1  18
ATOM     15  C   UNL     1      -1.819  11.316  18.710  0.00  0.00    +0.000 A 
ATOM     16  C   UNL     1      -1.906  10.303  17.753  0.00  0.00    +0.000 A 
ATOM     17  C   UNL     1      -0.816   9.465  17.498  0.00  0.00    +0.000 A 
ATOM     18  C   UNL     1       0.387   9.644  18.188  0.00  0.00    +0.000 A 
ATOM     19  C   UNL     1       0.441  10.611  19.196  0.00  0.00    +0.000 A 
ATOM     20  C   UNL     1      -0.641  11.458  19.440  0.00  0.00    +0.000 A 
BRANCH  15  22
ATOM     21  C   UNL     1      -4.135  11.578  18.285  0.00  0.00    +0.000 C 
ATOM     22  O   UNL     1      -2.929  12.102  18.830  0.00  0.00    +0.000 OA
ENDBRANCH  15  22
ENDBRANCH   1  18
TORSDOF 2
ENDMDL
MODEL 4
REMARK VINA RESULT:      -7.5      5.230      7.336
REMARK  Name = 
REMARK  4 active torsions:
REMARK  status: ('A' for Active; 'I' for Inactive)
REMARK    1  A    between atoms: C_1  and  O_2
REMARK    2  A    between atoms: O_2  and  C_3
REMARK    3  A    between atoms: C_6  and  C_7
REMARK    4  A    between atoms: C_17  and  C_18
REMARK                            x       y       z     vdW  Elec       q    Type
REMARK                         _______ _______ _______ _____ _____    ______ ____
ROOT
ATOM      1  C   UNL     1       1.483   8.708  17.896  0.00  0.00    +0.000 C 
ATOM      2  C   UNL     1       2.149   7.935  18.771  0.00  0.00    +0.000 C 
ATOM      3  C   UNL     1       2.027   7.750  20.253  0.00  0.00    +0.000 C 
ATOM      4  C   UNL     1       1.569   6.322  20.567  0.00  0.00    +0.000 C 
ATOM      5  C   UNL     1       2.429   5.269  19.886  0.00  0.00    +0.000 C 
ATOM      6  C   UNL     1       2.869   4.201  20.577  0.00  0.00    +0.000 C 
ATOM      7  C   UNL     1       3.624   3.104  19.919  0.00  0.00    +0.000 C 
ATOM      8  O   UNL     1       3.982   2.140  20.595  0.00  0.00    +0.000 OA
ATOM      9  C   UNL     1       3.838   3.168  18.427  0.00  0.00    +0.000 C 
ATOM     10  C   UNL     1       3.938   4.611  17.957  0.00  0.00    +0.000 C 
ATOM     11  C   UNL     1       2.736   5.474  18.399  0.00  0.00    +0.000 C 
ATOM     12  C   UNL     1       1.490   5.141  17.557  0.00  0.00    +0.000 C 
ATOM     13  C   UNL     1       3.091   6.957  18.153  0.00  0.00    +0.000 C 
ATOM     14  O   UNL     1       4.024   7.343  17.456  0.00  0.00    +0.000 OA
ENDROOT
BRANCH   1  18
ATOM     15  C   UNL     1      -1.768  11.370  18.718  0.00  0.00    +0.000 A 
ATOM     16  C   UNL     1      -0.552  11.491  19.393  0.00  0.00    +0.000 A 
ATOM     17  C   UNL     1       0.506  10.621  19.117  0.00  0.00    +0.000 A 
ATOM     18  C   UNL     1       0.354   9.601  18.171  0.00  0.00    +0.000 A 
ATOM     19  C   UNL     1      -0.841   9.535  17.448  0.00  0.00    +0.000 A 
ATOM     20  C   UNL     1      -1.904  10.394  17.734  0.00  0.00    +0.000 A 
BRANCH  15  22
ATOM     21  C   UNL     1      -4.083  11.863  18.824  0.00  0.00    +0.000 C 
ATOM     22  O   UNL     1      -2.743  12.242  19.112  0.00  0.00    +0.000 OA
ENDBRANCH  15  22
ENDBRANCH   1  18
TORSDOF 2
ENDMDL
MODEL 5
REMARK VINA RESULT:      -7.4      4.647      6.963
REMARK  Name = 
REMARK  4 active torsions:
REMARK  status: ('A' for Active; 'I' for Inactive)
REMARK    1  A    between atoms: C_1  and  O_2
REMARK    2  A    between atoms: O_2  and  C_3
REMARK    3  A    between atoms: C_6  and  C_7
REMARK    4  A    between atoms: C_17  and  C_18
REMARK                            x       y       z     vdW  Elec       q    Type
REMARK                         _______ _______ _______ _____ _____    ______ ____
ROOT
ATOM      1  C   UNL     1       1.508   6.467  20.126  0.00  0.00    +0.000 C 
ATOM      2  C   UNL     1       1.960   6.549  18.862  0.00  0.00    +0.000 C 
ATOM      3  C   UNL     1       2.156   7.707  17.931  0.00  0.00    +0.000 C 
ATOM      4  C   UNL     1       3.647   7.889  17.627  0.00  0.00    +0.000 C 
ATOM      5  C   UNL     1       4.307   6.603  17.155  0.00  0.00    +0.000 C 
ATOM      6  C   UNL     1       5.121   6.613  16.082  0.00  0.00    +0.000 C 
ATOM      7  C   UNL     1       5.862   5.398  15.655  0.00  0.00    +0.000 C 
ATOM      8  O   UNL     1       6.610   5.470  14.680  0.00  0.00    +0.000 OA
ATOM      9  C   UNL     1       5.744   4.149  16.492  0.00  0.00    +0.000 C 
ATOM     10  C   UNL     1       4.377   4.068  17.153  0.00  0.00    +0.000 C 
ATOM     11  C   UNL     1       4.024   5.334  17.965  0.00  0.00    +0.000 C 
ATOM     12  C   UNL     1       4.815   5.370  19.286  0.00  0.00    +0.000 C 
ATOM     13  C   UNL     1       2.520   5.280  18.314  0.00  0.00    +0.000 C 
ATOM     14  O   UNL     1       1.822   4.275  18.226  0.00  0.00    +0.000 OA
ENDROOT
BRANCH   1  18
ATOM     15  C   UNL     1       0.264   9.650  22.705  0.00  0.00    +0.000 A 
ATOM     16  C   UNL     1      -0.672   8.837  22.064  0.00  0.00    +0.000 A 
ATOM     17  C   UNL     1      -0.259   7.797  21.226  0.00  0.00    +0.000 A 
ATOM     18  C   UNL     1       1.103   7.569  21.002  0.00  0.00    +0.000 A 
ATOM     19  C   UNL     1       2.033   8.340  21.707  0.00  0.00    +0.000 A 
ATOM     20  C   UNL     1       1.620   9.389  22.532  0.00  0.00    +0.000 A 
BRANCH  15  22
ATOM     21  C   UNL     1      -1.447  11.272  22.951  0.00  0.00    +0.000 C 
ATOM     22  O   UNL     1      -0.262  10.664  23.454  0.00  0.00    +0.000 OA
ENDBRANCH  15  22
ENDBRANCH   1  18
TORSDOF 2
ENDMDL
MODEL 6
REMARK VINA RESULT:      -7.4      4.561      6.949
REMARK  Name = 
REMARK  4 active torsions:
REMARK  status: ('A' for Active; 'I' for Inactive)
REMARK    1  A    between atoms: C_1  and  O_2
REMARK    2  A    between atoms: O_2  and  C_3
REMARK    3  A    between atoms: C_6  and  C_7
REMARK    4  A    between atoms: C_17  and  C_18
REMARK                            x       y       z     vdW  Elec       q    Type
REMARK                         _______ _______ _______ _____ _____    ______ ____
ROOT
ATOM      1  C   UNL     1       1.629   6.271  20.163  0.00  0.00    +0.000 C 
ATOM      2  C   UNL     1       2.060   6.332  18.891  0.00  0.00    +0.000 C 
ATOM      3  C   UNL     1       2.128   7.453  17.899  0.00  0.00    +0.000 C 
ATOM      4  C   UNL     1       3.589   7.769  17.565  0.00  0.00    +0.000 C 
ATOM      5  C   UNL     1       4.374   6.534  17.150  0.00  0.00    +0.000 C 
ATOM      6  C   UNL     1       5.173   6.570  16.067  0.00  0.00    +0.000 C 
ATOM      7  C   UNL     1       6.030   5.417  15.692  0.00  0.00    +0.000 C 
ATOM      8  O   UNL     1       6.758   5.512  14.705  0.00  0.00    +0.000 OA
ATOM      9  C   UNL     1       6.048   4.207  16.594  0.00  0.00    +0.000 C 
ATOM     10  C   UNL     1       4.703   4.023  17.278  0.00  0.00    +0.000 C 
ATOM     11  C   UNL     1       4.229   5.288  18.028  0.00  0.00    +0.000 C 
ATOM     12  C   UNL     1       5.024   5.473  19.335  0.00  0.00    +0.000 C 
ATOM     13  C   UNL     1       2.742   5.099  18.401  0.00  0.00    +0.000 C 
ATOM     14  O   UNL     1       2.149   4.025  18.374  0.00  0.00    +0.000 OA
ENDROOT
BRANCH   1  18
ATOM     15  C   UNL     1       0.204   9.524  22.555  0.00  0.00    +0.000 A 
ATOM     16  C   UNL     1       1.572   9.305  22.380  0.00  0.00    +0.000 A 
ATOM     17  C   UNL     1       2.030   8.244  21.595  0.00  0.00    +0.000 A 
ATOM     18  C   UNL     1       1.121   7.371  20.988  0.00  0.00    +0.000 A 
ATOM     19  C   UNL     1      -0.246   7.642  21.107  0.00  0.00    +0.000 A 
ATOM     20  C   UNL     1      -0.704   8.693  21.903  0.00  0.00    +0.000 A 
BRANCH  15  22
ATOM     21  C   UNL     1      -1.203  11.384  22.974  0.00  0.00    +0.000 C 
ATOM     22  O   UNL     1      -0.119  10.559  23.386  0.00  0.00    +0.000 OA
ENDBRANCH  15  22
ENDBRANCH   1  18
TORSDOF 2
ENDMDL
MODEL 7
REMARK VINA RESULT:      -7.1      4.417      6.476
REMARK  Name = 
REMARK  4 active torsions:
REMARK  status: ('A' for Active; 'I' for Inactive)
REMARK    1  A    between atoms: C_1  and  O_2
REMARK    2  A    between atoms: O_2  and  C_3
REMARK    3  A    between atoms: C_6  and  C_7
REMARK    4  A    between atoms: C_17  and  C_18
REMARK                            x       y       z     vdW  Elec       q    Type
REMARK                         _______ _______ _______ _____ _____    ______ ____
ROOT
ATOM      1  C   UNL     1       5.518   4.016  16.670  0.00  0.00    +0.000 C 
ATOM      2  C   UNL     1       5.192   4.990  17.537  0.00  0.00    +0.000 C 
ATOM      3  C   UNL     1       5.227   6.485  17.438  0.00  0.00    +0.000 C 
ATOM      4  C   UNL     1       3.804   7.049  17.507  0.00  0.00    +0.000 C 
ATOM      5  C   UNL     1       3.028   6.531  18.708  0.00  0.00    +0.000 C 
ATOM      6  C   UNL     1       2.318   7.380  19.475  0.00  0.00    +0.000 C 
ATOM      7  C   UNL     1       1.469   6.896  20.593  0.00  0.00    +0.000 C 
ATOM      8  O   UNL     1       0.824   7.715  21.247  0.00  0.00    +0.000 OA
ATOM      9  C   UNL     1       1.354   5.410  20.822  0.00  0.00    +0.000 C 
ATOM     10  C   UNL     1       2.637   4.700  20.419  0.00  0.00    +0.000 C 
ATOM     11  C   UNL     1       3.076   5.023  18.973  0.00  0.00    +0.000 C 
ATOM     12  C   UNL     1       2.185   4.285  17.957  0.00  0.00    +0.000 C 
ATOM     13  C   UNL     1       4.525   4.520  18.785  0.00  0.00    +0.000 C 
ATOM     14  O   UNL     1       5.095   3.742  19.544  0.00  0.00    +0.000 OA
ENDROOT
BRANCH   1  18
ATOM     15  C   UNL     1       6.944   4.470  12.658  0.00  0.00    +0.000 A 
ATOM     16  C   UNL     1       7.581   5.108  13.724  0.00  0.00    +0.000 A 
ATOM     17  C   UNL     1       7.112   4.952  15.032  0.00  0.00    +0.000 A 
ATOM     18  C   UNL     1       5.983   4.168  15.289  0.00  0.00    +0.000 A 
ATOM     19  C   UNL     1       5.397   3.474  14.225  0.00  0.00    +0.000 A 
ATOM     20  C   UNL     1       5.856   3.641  12.917  0.00  0.00    +0.000 A 
BRANCH  15  22
ATOM     21  C   UNL     1       7.833   6.093  11.179  0.00  0.00    +0.000 C 
ATOM     22  O   UNL     1       7.462   4.741  11.423  0.00  0.00    +0.000 OA
ENDBRANCH  15  22
ENDBRANCH   1  18
TORSDOF 2
ENDMDL
MODEL 8
REMARK VINA RESULT:      -7.0      4.389      6.540
REMARK  Name = 
REMARK  4 active torsions:
REMARK  status: ('A' for Active; 'I' for Inactive)
REMARK    1  A    between atoms: C_1  and  O_2
REMARK    2  A    between atoms: O_2  and  C_3
REMARK    3  A    between atoms: C_6  and  C_7
REMARK    4  A    between atoms: C_17  and  C_18
REMARK                            x       y       z     vdW  Elec       q    Type
REMARK                         _______ _______ _______ _____ _____    ______ ____
ROOT
ATOM      1  C   UNL     1       1.798   6.940  19.603  0.00  0.00    +0.000 C 
ATOM      2  C   UNL     1       2.389   6.873  18.397  0.00  0.00    +0.000 C 
ATOM      3  C   UNL     1       2.758   7.922  17.393  0.00  0.00    +0.000 C 
ATOM      4  C   UNL     1       4.282   7.992  17.245  0.00  0.00    +0.000 C 
ATOM      5  C   UNL     1       4.905   6.632  16.969  0.00  0.00    +0.000 C 
ATOM      6  C   UNL     1       5.828   6.493  15.999  0.00  0.00    +0.000 C 
ATOM      7  C   UNL     1       6.530   5.204  15.771  0.00  0.00    +0.000 C 
ATOM      8  O   UNL     1       7.382   5.139  14.886  0.00  0.00    +0.000 OA
ATOM      9  C   UNL     1       6.241   4.050  16.699  0.00  0.00    +0.000 C 
ATOM     10  C   UNL     1       4.809   4.109  17.206  0.00  0.00    +0.000 C 
ATOM     11  C   UNL     1       4.454   5.466  17.854  0.00  0.00    +0.000 C 
ATOM     12  C   UNL     1       5.098   5.587  19.248  0.00  0.00    +0.000 C 
ATOM     13  C   UNL     1       2.921   5.528  18.034  0.00  0.00    +0.000 C 
ATOM     14  O   UNL     1       2.172   4.559  17.958  0.00  0.00    +0.000 OA
ENDROOT
BRANCH   1  18
ATOM     15  C   UNL     1       0.516  10.473  21.654  0.00  0.00    +0.000 A 
ATOM     16  C   UNL     1       0.607  10.443  20.261  0.00  0.00    +0.000 A 
ATOM     17  C   UNL     1       1.023   9.285  19.598  0.00  0.00    +0.000 A 
ATOM     18  C   UNL     1       1.374   8.143  20.325  0.00  0.00    +0.000 A 
ATOM     19  C   UNL     1       1.207   8.158  21.713  0.00  0.00    +0.000 A 
ATOM     20  C   UNL     1       0.807   9.319  22.377  0.00  0.00    +0.000 A 
BRANCH  15  22
ATOM     21  C   UNL     1      -1.101  11.712  22.865  0.00  0.00    +0.000 C 
ATOM     22  O   UNL     1       0.150  11.676  22.188  0.00  0.00    +0.000 OA
ENDBRANCH  15  22
ENDBRANCH   1  18
TORSDOF 2
ENDMDL
MODEL 9
REMARK VINA RESULT:      -7.0      4.377      6.643
REMARK  Name = 
REMARK  4 active torsions:
REMARK  status: ('A' for Active; 'I' for Inactive)
REMARK    1  A    between atoms: C_1  and  O_2
REMARK    2  A    between atoms: O_2  and  C_3
REMARK    3  A    between atoms: C_6  and  C_7
REMARK    4  A    between atoms: C_17  and  C_18
REMARK                            x       y       z     vdW  Elec       q    Type
REMARK                         _______ _______ _______ _____ _____    ______ ____
ROOT
ATOM      1  C   UNL     1       1.870   6.825  19.663  0.00  0.00    +0.000 C 
ATOM      2  C   UNL     1       2.422   6.742  18.440  0.00  0.00    +0.000 C 
ATOM      3  C   UNL     1       2.696   7.767  17.382  0.00  0.00    +0.000 C 
ATOM      4  C   UNL     1       4.207   7.919  17.176  0.00  0.00    +0.000 C 
ATOM      5  C   UNL     1       4.899   6.587  16.933  0.00  0.00    +0.000 C 
ATOM      6  C   UNL     1       5.796   6.460  15.937  0.00  0.00    +0.000 C 
ATOM      7  C   UNL     1       6.565   5.205  15.736  0.00  0.00    +0.000 C 
ATOM      8  O   UNL     1       7.389   5.153  14.823  0.00  0.00    +0.000 OA
ATOM      9  C   UNL     1       6.376   4.077  16.719  0.00  0.00    +0.000 C 
ATOM     10  C   UNL     1       4.960   4.075  17.273  0.00  0.00    +0.000 C 
ATOM     11  C   UNL     1       4.548   5.434  17.879  0.00  0.00    +0.000 C 
ATOM     12  C   UNL     1       5.230   5.651  19.243  0.00  0.00    +0.000 C 
ATOM     13  C   UNL     1       3.021   5.415  18.112  0.00  0.00    +0.000 C 
ATOM     14  O   UNL     1       2.328   4.403  18.102  0.00  0.00    +0.000 OA
ENDROOT
BRANCH   1  18
ATOM     15  C   UNL     1       0.533  10.327  21.731  0.00  0.00    +0.000 A 
ATOM     16  C   UNL     1       0.830   9.152  22.424  0.00  0.00    +0.000 A 
ATOM     17  C   UNL     1       1.269   8.014  21.743  0.00  0.00    +0.000 A 
ATOM     18  C   UNL     1       1.399   8.030  20.350  0.00  0.00    +0.000 A 
ATOM     19  C   UNL     1       1.172   9.233  19.673  0.00  0.00    +0.000 A 
ATOM     20  C   UNL     1       0.718  10.366  20.351  0.00  0.00    +0.000 A 
BRANCH  15  22
ATOM     21  C   UNL     1      -1.244  11.190  23.039  0.00  0.00    +0.000 C 
ATOM     22  O   UNL     1       0.062  11.354  22.499  0.00  0.00    +0.000 OA
ENDBRANCH  15  22
ENDBRANCH   1  18
TORSDOF 2
ENDMDL
