MODEL 1
REMARK VINA RESULT:      -8.0      0.000      0.000
REMARK  Name = 
REMARK  11 active torsions:
REMARK  status: ('A' for Active; 'I' for Inactive)
REMARK    1  A    between atoms: C_1  and  O_2
REMARK    2  A    between atoms: O_2  and  C_3
REMARK    3  A    between atoms: C_5  and  N_6
REMARK    4  A    between atoms: C_7  and  C_9
REMARK    5  A    between atoms: C_12  and  C_13
REMARK    6  A    between atoms: C_13  and  N_14
REMARK    7  A    between atoms: N_14  and  C_15
REMARK    8  A    between atoms: C_16  and  N_17
REMARK    9  A    between atoms: C_20  and  C_21
REMARK   10  A    between atoms: C_31  and  O_32
REMARK   11  A    between atoms: O_32  and  C_33
REMARK                            x       y       z     vdW  Elec       q    Type
REMARK                         _______ _______ _______ _____ _____    ______ ____
ROOT
ATOM      1  C   UNL     1       1.447   9.757  19.461  0.00  0.00    +0.000 C 
ATOM      2  C   UNL     1       1.819   8.709  20.526  0.00  0.00    +0.000 C 
ATOM      3  C   UNL     1       1.597   7.260  20.080  0.00  0.00    +0.000 C 
ATOM      4  C   UNL     1       2.252   6.946  18.729  0.00  0.00    +0.000 C 
ATOM      5  C   UNL     1       1.805   7.974  17.676  0.00  0.00    +0.000 C 
ATOM      6  C   UNL     1       2.068   9.422  18.100  0.00  0.00    +0.000 C 
ENDROOT
BRANCH   1   8
ATOM      7  N   UNL     1      -0.485  10.422  18.108  0.00  0.00    +0.000 N 
ATOM      8  C   UNL     1      -0.072   9.916  19.332  0.00  0.00    +0.000 C 
ATOM      9  O   UNL     1      -0.820   9.560  20.237  0.00  0.00    +0.000 OA
ATOM     10  H   UNL     1       0.221  10.580  17.399  0.00  0.00    +0.000 HD
BRANCH   7  13
ATOM     11  C   UNL     1      -3.698  10.788  16.209  0.00  0.00    +0.000 A 
ATOM     12  C   UNL     1      -2.358  10.513  16.490  0.00  0.00    +0.000 A 
ATOM     13  C   UNL     1      -1.818  10.759  17.756  0.00  0.00    +0.000 A 
ATOM     14  C   UNL     1      -2.644  11.319  18.737  0.00  0.00    +0.000 A 
ATOM     15  C   UNL     1      -3.992  11.598  18.467  0.00  0.00    +0.000 A 
ATOM     16  C   UNL     1      -4.513  11.324  17.202  0.00  0.00    +0.000 A 
BRANCH  11  18
ATOM     17  C   UNL     1      -3.093  10.015  14.046  0.00  0.00    +0.000 C 
ATOM     18  O   UNL     1      -4.101  10.469  14.940  0.00  0.00    +0.000 OA
ENDBRANCH  11  18
BRANCH  15  19
ATOM     19  O   UNL     1      -4.708  12.122  19.512  0.00  0.00    +0.000 OA
ATOM     20  C   UNL     1      -4.190  13.309  20.109  0.00  0.00    +0.000 C 
ENDBRANCH  15  19
ENDBRANCH   7  13
ENDBRANCH   1   8
BRANCH   4  21
ATOM     21  C   UNL     1       3.785   6.885  18.808  0.00  0.00    +0.000 C 
BRANCH  21  22
ATOM     22  N   UNL     1       4.378   6.813  17.479  0.00  0.00    +0.000 N 
ATOM     23  H   UNL     1       4.592   7.707  17.045  0.00  0.00    +0.000 HD
BRANCH  22  24
ATOM     24  C   UNL     1       4.770   5.681  16.935  0.00  0.00    +0.000 C 
ATOM     25  C   UNL     1       4.516   4.340  17.078  0.00  0.00    +0.000 C 
ATOM     26  C   UNL     1       5.436   4.001  15.958  0.00  0.00    +0.000 C 
ATOM     27  O   UNL     1       5.849   3.035  15.350  0.00  0.00    +0.000 OA
ATOM     28  C   UNL     1       5.721   5.447  15.822  0.00  0.00    +0.000 C 
ATOM     29  O   UNL     1       6.394   6.086  15.053  0.00  0.00    +0.000 OA
BRANCH  25  30
ATOM     30  N   UNL     1       3.768   3.540  17.839  0.00  0.00    +0.000 N 
ATOM     31  C   UNL     1       2.417   3.111  17.462  0.00  0.00    +0.000 C 
ATOM     32  C   UNL     1       1.464   3.302  18.643  0.00  0.00    +0.000 C 
ATOM     33  C   UNL     1       1.985   2.623  19.919  0.00  0.00    +0.000 C 
ATOM     34  C   UNL     1       1.084   2.935  21.111  0.00  0.00    +0.000 C 
ATOM     35  C   UNL     1       3.428   3.061  20.209  0.00  0.00    +0.000 C 
ATOM     36  C   UNL     1       4.322   2.827  18.997  0.00  0.00    +0.000 C 
ENDBRANCH  25  30
ENDBRANCH  22  24
ENDBRANCH  21  22
ENDBRANCH   4  21
TORSDOF 8
ENDMDL
MODEL 2
REMARK VINA RESULT:      -7.9      3.863      5.600
REMARK  Name = 
REMARK  11 active torsions:
REMARK  status: ('A' for Active; 'I' for Inactive)
REMARK    1  A    between atoms: C_1  and  O_2
REMARK    2  A    between atoms: O_2  and  C_3
REMARK    3  A    between atoms: C_5  and  N_6
REMARK    4  A    between atoms: C_7  and  C_9
REMARK    5  A    between atoms: C_12  and  C_13
REMARK    6  A    between atoms: C_13  and  N_14
REMARK    7  A    between atoms: N_14  and  C_15
REMARK    8  A    between atoms: C_16  and  N_17
REMARK    9  A    between atoms: C_20  and  C_21
REMARK   10  A    between atoms: C_31  and  O_32
REMARK   11  A    between atoms: O_32  and  C_33
REMARK                            x       y       z     vdW  Elec       q    Type
REMARK                         _______ _______ _______ _____ _____    ______ ____
ROOT
ATOM      1  C   UNL     1       0.235   9.880  19.249  0.00  0.00    +0.000 C 
ATOM      2  C   UNL     1       0.932   9.185  18.064  0.00  0.00    +0.000 C 
ATOM      3  C   UNL     1       2.288   8.567  18.413  0.00  0.00    +0.000 C 
ATOM      4  C   UNL     1       2.227   7.653  19.644  0.00  0.00    +0.000 C 
ATOM      5  C   UNL     1       1.587   8.402  20.824  0.00  0.00    +0.000 C 
ATOM      6  C   UNL     1       0.209   8.983  20.491  0.00  0.00    +0.000 C 
ENDROOT
BRANCH   1   8
ATOM      7  N   UNL     1       1.109  12.032  18.466  0.00  0.00    +0.000 N 
ATOM      8  C   UNL     1       0.887  11.229  19.576  0.00  0.00    +0.000 C 
ATOM      9  O   UNL     1       1.121  11.548  20.737  0.00  0.00    +0.000 OA
ATOM     10  H   UNL     1       0.776  11.702  17.569  0.00  0.00    +0.000 HD
BRANCH   7  13
ATOM     11  C   UNL     1       3.746  14.674  18.105  0.00  0.00    +0.000 A 
ATOM     12  C   UNL     1       3.140  13.417  18.168  0.00  0.00    +0.000 A 
ATOM     13  C   UNL     1       1.782  13.281  18.468  0.00  0.00    +0.000 A 
ATOM     14  C   UNL     1       1.039  14.437  18.735  0.00  0.00    +0.000 A 
ATOM     15  C   UNL     1       1.635  15.704  18.672  0.00  0.00    +0.000 A 
ATOM     16  C   UNL     1       2.987  15.815  18.351  0.00  0.00    +0.000 A 
BRANCH  11  18
ATOM     17  C   UNL     1       5.951  15.389  18.620  0.00  0.00    +0.000 C 
ATOM     18  O   UNL     1       5.073  14.662  17.770  0.00  0.00    +0.000 OA
ENDBRANCH  11  18
BRANCH  15  19
ATOM     19  O   UNL     1       0.802  16.763  18.929  0.00  0.00    +0.000 OA
ATOM     20  C   UNL     1      -0.530  16.444  19.328  0.00  0.00    +0.000 C 
ENDBRANCH  15  19
ENDBRANCH   7  13
ENDBRANCH   1   8
BRANCH   4  21
ATOM     21  C   UNL     1       1.485   6.336  19.372  0.00  0.00    +0.000 C 
BRANCH  21  22
ATOM     22  N   UNL     1       2.221   5.501  18.431  0.00  0.00    +0.000 N 
ATOM     23  H   UNL     1       2.086   5.724  17.448  0.00  0.00    +0.000 HD
BRANCH  22  24
ATOM     24  C   UNL     1       3.130   4.629  18.813  0.00  0.00    +0.000 C 
ATOM     25  C   UNL     1       4.486   4.457  18.701  0.00  0.00    +0.000 C 
ATOM     26  C   UNL     1       4.440   3.214  19.519  0.00  0.00    +0.000 C 
ATOM     27  O   UNL     1       5.181   2.360  19.962  0.00  0.00    +0.000 OA
ATOM     28  C   UNL     1       2.974   3.395  19.619  0.00  0.00    +0.000 C 
ATOM     29  O   UNL     1       2.107   2.791  20.198  0.00  0.00    +0.000 OA
BRANCH  25  30
ATOM     30  N   UNL     1       5.530   5.073  18.145  0.00  0.00    +0.000 N 
ATOM     31  C   UNL     1       6.917   4.820  18.553  0.00  0.00    +0.000 C 
ATOM     32  C   UNL     1       7.644   6.149  18.767  0.00  0.00    +0.000 C 
ATOM     33  C   UNL     1       7.526   7.074  17.546  0.00  0.00    +0.000 C 
ATOM     34  C   UNL     1       8.148   8.438  17.832  0.00  0.00    +0.000 C 
ATOM     35  C   UNL     1       6.056   7.231  17.132  0.00  0.00    +0.000 C 
ATOM     36  C   UNL     1       5.401   5.871  16.920  0.00  0.00    +0.000 C 
ENDBRANCH  25  30
ENDBRANCH  22  24
ENDBRANCH  21  22
ENDBRANCH   4  21
TORSDOF 8
ENDMDL
MODEL 3
REMARK VINA RESULT:      -7.7      3.705      5.477
REMARK  Name = 
REMARK  11 active torsions:
REMARK  status: ('A' for Active; 'I' for Inactive)
REMARK    1  A    between atoms: C_1  and  O_2
REMARK    2  A    between atoms: O_2  and  C_3
REMARK    3  A    between atoms: C_5  and  N_6
REMARK    4  A    between atoms: C_7  and  C_9
REMARK    5  A    between atoms: C_12  and  C_13
REMARK    6  A    between atoms: C_13  and  N_14
REMARK    7  A    between atoms: N_14  and  C_15
REMARK    8  A    between atoms: C_16  and  N_17
REMARK    9  A    between atoms: C_20  and  C_21
REMARK   10  A    between atoms: C_31  and  O_32
REMARK   11  A    between atoms: O_32  and  C_33
REMARK                            x       y       z     vdW  Elec       q    Type
REMARK                         _______ _______ _______ _____ _____    ______ ____
ROOT
ATOM      1  C   UNL     1      -0.503  10.319  20.926  0.00  0.00    +0.000 C 
ATOM      2  C   UNL     1      -0.126   9.594  19.620  0.00  0.00    +0.000 C 
ATOM      3  C   UNL     1       1.333   9.136  19.559  0.00  0.00    +0.000 C 
ATOM      4  C   UNL     1       1.756   8.328  20.792  0.00  0.00    +0.000 C 
ATOM      5  C   UNL     1       1.426   9.112  22.073  0.00  0.00    +0.000 C 
ATOM      6  C   UNL     1      -0.044   9.532  22.158  0.00  0.00    +0.000 C 
ENDROOT
BRANCH   1   8
ATOM      7  N   UNL     1       0.335  12.275  19.709  0.00  0.00    +0.000 N 
ATOM      8  C   UNL     1       0.059  11.745  20.962  0.00  0.00    +0.000 C 
ATOM      9  O   UNL     1       0.183  12.345  22.025  0.00  0.00    +0.000 OA
ATOM     10  H   UNL     1       0.091  11.722  18.898  0.00  0.00    +0.000 HD
BRANCH   7  13
ATOM     11  C   UNL     1       2.899  14.956  19.162  0.00  0.00    +0.000 A 
ATOM     12  C   UNL     1       2.332  13.724  19.494  0.00  0.00    +0.000 A 
ATOM     13  C   UNL     1       0.948  13.529  19.456  0.00  0.00    +0.000 A 
ATOM     14  C   UNL     1       0.132  14.610  19.104  0.00  0.00    +0.000 A 
ATOM     15  C   UNL     1       0.690  15.851  18.766  0.00  0.00    +0.000 A 
ATOM     16  C   UNL     1       2.075  16.015  18.792  0.00  0.00    +0.000 A 
BRANCH  11  18
ATOM     17  C   UNL     1       4.957  14.779  17.988  0.00  0.00    +0.000 C 
ATOM     18  O   UNL     1       4.267  14.997  19.213  0.00  0.00    +0.000 OA
ENDBRANCH  11  18
BRANCH  15  19
ATOM     19  O   UNL     1      -0.207  16.827  18.414  0.00  0.00    +0.000 OA
ATOM     20  C   UNL     1      -1.304  17.035  19.301  0.00  0.00    +0.000 C 
ENDBRANCH  15  19
ENDBRANCH   7  13
ENDBRANCH   1   8
BRANCH   4  21
ATOM     21  C   UNL     1       1.123   6.929  20.835  0.00  0.00    +0.000 C 
BRANCH  21  22
ATOM     22  N   UNL     1       2.112   5.914  21.172  0.00  0.00    +0.000 N 
ATOM     23  H   UNL     1       2.681   6.110  21.992  0.00  0.00    +0.000 HD
BRANCH  22  24
ATOM     24  C   UNL     1       2.166   4.745  20.571  0.00  0.00    +0.000 C 
ATOM     25  C   UNL     1       2.592   4.236  19.370  0.00  0.00    +0.000 C 
ATOM     26  C   UNL     1       2.232   2.850  19.779  0.00  0.00    +0.000 C 
ATOM     27  O   UNL     1       2.259   1.715  19.352  0.00  0.00    +0.000 OA
ATOM     28  C   UNL     1       1.755   3.409  21.065  0.00  0.00    +0.000 C 
ATOM     29  O   UNL     1       1.309   2.908  22.066  0.00  0.00    +0.000 OA
BRANCH  25  30
ATOM     30  N   UNL     1       3.138   4.674  18.235  0.00  0.00    +0.000 N 
ATOM     31  C   UNL     1       3.341   3.817  17.063  0.00  0.00    +0.000 C 
ATOM     32  C   UNL     1       4.765   3.994  16.531  0.00  0.00    +0.000 C 
ATOM     33  C   UNL     1       5.104   5.470  16.273  0.00  0.00    +0.000 C 
ATOM     34  C   UNL     1       6.566   5.631  15.867  0.00  0.00    +0.000 C 
ATOM     35  C   UNL     1       4.796   6.316  17.517  0.00  0.00    +0.000 C 
ATOM     36  C   UNL     1       3.360   6.102  17.979  0.00  0.00    +0.000 C 
ENDBRANCH  25  30
ENDBRANCH  22  24
ENDBRANCH  21  22
ENDBRANCH   4  21
TORSDOF 8
ENDMDL
MODEL 4
REMARK VINA RESULT:      -7.7      3.700      5.592
REMARK  Name = 
REMARK  11 active torsions:
REMARK  status: ('A' for Active; 'I' for Inactive)
REMARK    1  A    between atoms: C_1  and  O_2
REMARK    2  A    between atoms: O_2  and  C_3
REMARK    3  A    between atoms: C_5  and  N_6
REMARK    4  A    between atoms: C_7  and  C_9
REMARK    5  A    between atoms: C_12  and  C_13
REMARK    6  A    between atoms: C_13  and  N_14
REMARK    7  A    between atoms: N_14  and  C_15
REMARK    8  A    between atoms: C_16  and  N_17
REMARK    9  A    between atoms: C_20  and  C_21
REMARK   10  A    between atoms: C_31  and  O_32
REMARK   11  A    between atoms: O_32  and  C_33
REMARK                            x       y       z     vdW  Elec       q    Type
REMARK                         _______ _______ _______ _____ _____    ______ ____
ROOT
ATOM      1  C   UNL     1      -0.064   9.874  19.436  0.00  0.00    +0.000 C 
ATOM      2  C   UNL     1       0.735   9.188  18.312  0.00  0.00    +0.000 C 
ATOM      3  C   UNL     1       2.151   8.770  18.719  0.00  0.00    +0.000 C 
ATOM      4  C   UNL     1       2.180   7.946  20.012  0.00  0.00    +0.000 C 
ATOM      5  C   UNL     1       1.430   8.692  21.129  0.00  0.00    +0.000 C 
ATOM      6  C   UNL     1      -0.002   9.071  20.740  0.00  0.00    +0.000 C 
ENDROOT
BRANCH   1   8
ATOM      7  N   UNL     1       0.816  11.968  18.516  0.00  0.00    +0.000 N 
ATOM      8  C   UNL     1       0.410  11.313  19.670  0.00  0.00    +0.000 C 
ATOM      9  O   UNL     1       0.364  11.816  20.788  0.00  0.00    +0.000 OA
ATOM     10  H   UNL     1       0.708  11.483  17.634  0.00  0.00    +0.000 HD
BRANCH   7  13
ATOM     11  C   UNL     1       1.276  15.685  18.699  0.00  0.00    +0.000 A 
ATOM     12  C   UNL     1       0.657  14.433  18.692  0.00  0.00    +0.000 A 
ATOM     13  C   UNL     1       1.388  13.265  18.455  0.00  0.00    +0.000 A 
ATOM     14  C   UNL     1       2.758  13.376  18.193  0.00  0.00    +0.000 A 
ATOM     15  C   UNL     1       3.391  14.628  18.200  0.00  0.00    +0.000 A 
ATOM     16  C   UNL     1       2.644  15.777  18.459  0.00  0.00    +0.000 A 
BRANCH  11  18
ATOM     17  C   UNL     1      -0.716  16.453  19.741  0.00  0.00    +0.000 C 
ATOM     18  O   UNL     1       0.447  16.740  18.975  0.00  0.00    +0.000 OA
ENDBRANCH  11  18
BRANCH  15  19
ATOM     19  O   UNL     1       4.740  14.609  17.955  0.00  0.00    +0.000 OA
ATOM     20  C   UNL     1       5.508  15.661  18.536  0.00  0.00    +0.000 C 
ENDBRANCH  15  19
ENDBRANCH   7  13
ENDBRANCH   1   8
BRANCH   4  21
ATOM     21  C   UNL     1       1.611   6.530  19.831  0.00  0.00    +0.000 C 
BRANCH  21  22
ATOM     22  N   UNL     1       2.524   5.525  20.359  0.00  0.00    +0.000 N 
ATOM     23  H   UNL     1       2.756   5.618  21.345  0.00  0.00    +0.000 HD
BRANCH  22  24
ATOM     24  C   UNL     1       2.897   4.469  19.669  0.00  0.00    +0.000 C 
ATOM     25  C   UNL     1       3.846   4.149  18.731  0.00  0.00    +0.000 C 
ATOM     26  C   UNL     1       3.401   2.729  18.701  0.00  0.00    +0.000 C 
ATOM     27  O   UNL     1       3.670   1.678  18.156  0.00  0.00    +0.000 OA
ATOM     28  C   UNL     1       2.366   3.086  19.698  0.00  0.00    +0.000 C 
ATOM     29  O   UNL     1       1.536   2.443  20.290  0.00  0.00    +0.000 OA
BRANCH  25  30
ATOM     30  N   UNL     1       4.830   4.748  18.059  0.00  0.00    +0.000 N 
ATOM     31  C   UNL     1       6.240   4.372  18.203  0.00  0.00    +0.000 C 
ATOM     32  C   UNL     1       7.094   5.627  18.399  0.00  0.00    +0.000 C 
ATOM     33  C   UNL     1       6.849   6.668  17.296  0.00  0.00    +0.000 C 
ATOM     34  C   UNL     1       7.613   7.958  17.584  0.00  0.00    +0.000 C 
ATOM     35  C   UNL     1       5.348   6.955  17.153  0.00  0.00    +0.000 C 
ATOM     36  C   UNL     1       4.564   5.665  16.943  0.00  0.00    +0.000 C 
ENDBRANCH  25  30
ENDBRANCH  22  24
ENDBRANCH  21  22
ENDBRANCH   4  21
TORSDOF 8
ENDMDL
MODEL 5
REMARK VINA RESULT:      -7.6      3.814      5.592
REMARK  Name = 
REMARK  11 active torsions:
REMARK  status: ('A' for Active; 'I' for Inactive)
REMARK    1  A    between atoms: C_1  and  O_2
REMARK    2  A    between atoms: O_2  and  C_3
REMARK    3  A    between atoms: C_5  and  N_6
REMARK    4  A    between atoms: C_7  and  C_9
REMARK    5  A    between atoms: C_12  and  C_13
REMARK    6  A    between atoms: C_13  and  N_14
REMARK    7  A    between atoms: N_14  and  C_15
REMARK    8  A    between atoms: C_16  and  N_17
REMARK    9  A    between atoms: C_20  and  C_21
REMARK   10  A    between atoms: C_31  and  O_32
REMARK   11  A    between atoms: O_32  and  C_33
REMARK                            x       y       z     vdW  Elec       q    Type
REMARK                         _______ _______ _______ _____ _____    ______ ____
ROOT
ATOM      1  C   UNL     1      -0.406  10.159  19.515  0.00  0.00    +0.000 C 
ATOM      2  C   UNL     1       0.386   9.462  18.393  0.00  0.00    +0.000 C 
ATOM      3  C   UNL     1       1.818   9.084  18.783  0.00  0.00    +0.000 C 
ATOM      4  C   UNL     1       1.889   8.294  20.096  0.00  0.00    +0.000 C 
ATOM      5  C   UNL     1       1.145   9.053  21.207  0.00  0.00    +0.000 C 
ATOM      6  C   UNL     1      -0.302   9.392  20.838  0.00  0.00    +0.000 C 
ENDROOT
BRANCH   1   8
ATOM      7  N   UNL     1       0.591  12.187  18.564  0.00  0.00    +0.000 N 
ATOM      8  C   UNL     1       0.042  11.614  19.703  0.00  0.00    +0.000 C 
ATOM      9  O   UNL     1      -0.141  12.195  20.768  0.00  0.00    +0.000 OA
ATOM     10  H   UNL     1       0.592  11.639  17.713  0.00  0.00    +0.000 HD
BRANCH   7  13
ATOM     11  C   UNL     1       1.098  15.897  18.752  0.00  0.00    +0.000 A 
ATOM     12  C   UNL     1       0.467  14.651  18.768  0.00  0.00    +0.000 A 
ATOM     13  C   UNL     1       1.172  13.479  18.483  0.00  0.00    +0.000 A 
ATOM     14  C   UNL     1       2.527  13.579  18.149  0.00  0.00    +0.000 A 
ATOM     15  C   UNL     1       3.172  14.824  18.131  0.00  0.00    +0.000 A 
ATOM     16  C   UNL     1       2.452  15.978  18.439  0.00  0.00    +0.000 A 
BRANCH  11  18
ATOM     17  C   UNL     1      -0.828  17.191  18.241  0.00  0.00    +0.000 C 
ATOM     18  O   UNL     1       0.296  16.957  19.080  0.00  0.00    +0.000 OA
ENDBRANCH  11  18
BRANCH  15  19
ATOM     19  O   UNL     1       4.506  14.794  17.814  0.00  0.00    +0.000 OA
ATOM     20  C   UNL     1       5.353  15.688  18.533  0.00  0.00    +0.000 C 
ENDBRANCH  15  19
ENDBRANCH   7  13
ENDBRANCH   1   8
BRANCH   4  21
ATOM     21  C   UNL     1       1.347   6.863  19.961  0.00  0.00    +0.000 C 
BRANCH  21  22
ATOM     22  N   UNL     1       2.028   5.955  20.875  0.00  0.00    +0.000 N 
ATOM     23  H   UNL     1       1.900   6.150  21.865  0.00  0.00    +0.000 HD
BRANCH  22  24
ATOM     24  C   UNL     1       2.629   4.856  20.470  0.00  0.00    +0.000 C 
ATOM     25  C   UNL     1       3.650   4.508  19.622  0.00  0.00    +0.000 C 
ATOM     26  C   UNL     1       3.506   3.067  19.971  0.00  0.00    +0.000 C 
ATOM     27  O   UNL     1       4.001   1.990  19.709  0.00  0.00    +0.000 OA
ATOM     28  C   UNL     1       2.393   3.449  20.869  0.00  0.00    +0.000 C 
ATOM     29  O   UNL     1       1.696   2.824  21.629  0.00  0.00    +0.000 OA
BRANCH  25  30
ATOM     30  N   UNL     1       4.507   5.102  18.792  0.00  0.00    +0.000 N 
ATOM     31  C   UNL     1       4.080   5.952  17.675  0.00  0.00    +0.000 C 
ATOM     32  C   UNL     1       4.827   5.550  16.402  0.00  0.00    +0.000 C 
ATOM     33  C   UNL     1       6.349   5.534  16.608  0.00  0.00    +0.000 C 
ATOM     34  C   UNL     1       7.062   5.008  15.365  0.00  0.00    +0.000 C 
ATOM     35  C   UNL     1       6.715   4.687  17.835  0.00  0.00    +0.000 C 
ATOM     36  C   UNL     1       5.948   5.153  19.067  0.00  0.00    +0.000 C 
ENDBRANCH  25  30
ENDBRANCH  22  24
ENDBRANCH  21  22
ENDBRANCH   4  21
TORSDOF 8
ENDMDL
MODEL 6
REMARK VINA RESULT:      -7.6      3.784      5.396
REMARK  Name = 
REMARK  11 active torsions:
REMARK  status: ('A' for Active; 'I' for Inactive)
REMARK    1  A    between atoms: C_1  and  O_2
REMARK    2  A    between atoms: O_2  and  C_3
REMARK    3  A    between atoms: C_5  and  N_6
REMARK    4  A    between atoms: C_7  and  C_9
REMARK    5  A    between atoms: C_12  and  C_13
REMARK    6  A    between atoms: C_13  and  N_14
REMARK    7  A    between atoms: N_14  and  C_15
REMARK    8  A    between atoms: C_16  and  N_17
REMARK    9  A    between atoms: C_20  and  C_21
REMARK   10  A    between atoms: C_31  and  O_32
REMARK   11  A    between atoms: O_32  and  C_33
REMARK                            x       y       z     vdW  Elec       q    Type
REMARK                         _______ _______ _______ _____ _____    ______ ____
ROOT
ATOM      1  C   UNL     1      -0.245   9.999  19.425  0.00  0.00    +0.000 C 
ATOM      2  C   UNL     1       0.452   9.520  18.138  0.00  0.00    +0.000 C 
ATOM      3  C   UNL     1       1.949   9.244  18.304  0.00  0.00    +0.000 C 
ATOM      4  C   UNL     1       2.257   8.318  19.488  0.00  0.00    +0.000 C 
ATOM      5  C   UNL     1       1.601   8.865  20.767  0.00  0.00    +0.000 C 
ATOM      6  C   UNL     1       0.094   9.098  20.617  0.00  0.00    +0.000 C 
ENDROOT
BRANCH   1   8
ATOM      7  N   UNL     1       0.334  12.240  18.620  0.00  0.00    +0.000 N 
ATOM      8  C   UNL     1       0.098  11.459  19.743  0.00  0.00    +0.000 C 
ATOM      9  O   UNL     1       0.097  11.867  20.899  0.00  0.00    +0.000 OA
ATOM     10  H   UNL     1       0.201  11.815  17.712  0.00  0.00    +0.000 HD
BRANCH   7  13
ATOM     11  C   UNL     1       2.474  15.314  18.428  0.00  0.00    +0.000 A 
ATOM     12  C   UNL     1       2.102  13.969  18.494  0.00  0.00    +0.000 A 
ATOM     13  C   UNL     1       0.763  13.593  18.626  0.00  0.00    +0.000 A 
ATOM     14  C   UNL     1      -0.207  14.598  18.721  0.00  0.00    +0.000 A 
ATOM     15  C   UNL     1       0.154  15.952  18.652  0.00  0.00    +0.000 A 
ATOM     16  C   UNL     1       1.495  16.302  18.500  0.00  0.00    +0.000 A 
BRANCH  11  18
ATOM     17  C   UNL     1       4.577  15.723  19.454  0.00  0.00    +0.000 C 
ATOM     18  O   UNL     1       3.815  15.538  18.267  0.00  0.00    +0.000 OA
ENDBRANCH  11  18
BRANCH  15  19
ATOM     19  O   UNL     1      -0.885  16.844  18.731  0.00  0.00    +0.000 OA
ATOM     20  C   UNL     1      -0.848  17.946  17.826  0.00  0.00    +0.000 C 
ENDBRANCH  15  19
ENDBRANCH   7  13
ENDBRANCH   1   8
BRANCH   4  21
ATOM     21  C   UNL     1       1.826   6.866  19.237  0.00  0.00    +0.000 C 
BRANCH  21  22
ATOM     22  N   UNL     1       2.367   5.974  20.254  0.00  0.00    +0.000 N 
ATOM     23  H   UNL     1       2.153   6.225  21.216  0.00  0.00    +0.000 HD
BRANCH  22  24
ATOM     24  C   UNL     1       2.947   4.830  19.962  0.00  0.00    +0.000 C 
ATOM     25  C   UNL     1       4.031   4.392  19.243  0.00  0.00    +0.000 C 
ATOM     26  C   UNL     1       3.774   2.978  19.633  0.00  0.00    +0.000 C 
ATOM     27  O   UNL     1       4.235   1.867  19.470  0.00  0.00    +0.000 OA
ATOM     28  C   UNL     1       2.595   3.455  20.390  0.00  0.00    +0.000 C 
ATOM     29  O   UNL     1       1.789   2.901  21.095  0.00  0.00    +0.000 OA
BRANCH  25  30
ATOM     30  N   UNL     1       5.002   4.904  18.486  0.00  0.00    +0.000 N 
ATOM     31  C   UNL     1       6.420   4.578  18.677  0.00  0.00    +0.000 C 
ATOM     32  C   UNL     1       7.251   5.862  18.686  0.00  0.00    +0.000 C 
ATOM     33  C   UNL     1       6.985   6.729  17.444  0.00  0.00    +0.000 C 
ATOM     34  C   UNL     1       7.727   8.059  17.539  0.00  0.00    +0.000 C 
ATOM     35  C   UNL     1       5.479   6.965  17.268  0.00  0.00    +0.000 C 
ATOM     36  C   UNL     1       4.718   5.645  17.251  0.00  0.00    +0.000 C 
ENDBRANCH  25  30
ENDBRANCH  22  24
ENDBRANCH  21  22
ENDBRANCH   4  21
TORSDOF 8
ENDMDL
MODEL 7
REMARK VINA RESULT:      -7.6      3.900      5.527
REMARK  Name = 
REMARK  11 active torsions:
REMARK  status: ('A' for Active; 'I' for Inactive)
REMARK    1  A    between atoms: C_1  and  O_2
REMARK    2  A    between atoms: O_2  and  C_3
REMARK    3  A    between atoms: C_5  and  N_6
REMARK    4  A    between atoms: C_7  and  C_9
REMARK    5  A    between atoms: C_12  and  C_13
REMARK    6  A    between atoms: C_13  and  N_14
REMARK    7  A    between atoms: N_14  and  C_15
REMARK    8  A    between atoms: C_16  and  N_17
REMARK    9  A    between atoms: C_20  and  C_21
REMARK   10  A    between atoms: C_31  and  O_32
REMARK   11  A    between atoms: O_32  and  C_33
REMARK                            x       y       z     vdW  Elec       q    Type
REMARK                         _______ _______ _______ _____ _____    ______ ____
ROOT
ATOM      1  C   UNL     1      -0.173  10.071  19.604  0.00  0.00    +0.000 C 
ATOM      2  C   UNL     1       0.655   9.328  18.539  0.00  0.00    +0.000 C 
ATOM      3  C   UNL     1       2.041   8.888  19.020  0.00  0.00    +0.000 C 
ATOM      4  C   UNL     1       1.993   8.108  20.340  0.00  0.00    +0.000 C 
ATOM      5  C   UNL     1       1.216   8.910  21.398  0.00  0.00    +0.000 C 
ATOM      6  C   UNL     1      -0.188   9.312  20.935  0.00  0.00    +0.000 C 
ENDROOT
BRANCH   1   8
ATOM      7  N   UNL     1       0.849  12.091  18.665  0.00  0.00    +0.000 N 
ATOM      8  C   UNL     1       0.330  11.505  19.811  0.00  0.00    +0.000 C 
ATOM      9  O   UNL     1       0.210  12.062  20.897  0.00  0.00    +0.000 OA
ATOM     10  H   UNL     1       0.797  11.568  17.801  0.00  0.00    +0.000 HD
BRANCH   7  13
ATOM     11  C   UNL     1       3.364  14.821  18.128  0.00  0.00    +0.000 A 
ATOM     12  C   UNL     1       2.814  13.544  18.263  0.00  0.00    +0.000 A 
ATOM     13  C   UNL     1       1.468  13.367  18.594  0.00  0.00    +0.000 A 
ATOM     14  C   UNL     1       0.680  14.502  18.818  0.00  0.00    +0.000 A 
ATOM     15  C   UNL     1       1.221  15.789  18.683  0.00  0.00    +0.000 A 
ATOM     16  C   UNL     1       2.562  15.940  18.332  0.00  0.00    +0.000 A 
BRANCH  11  18
ATOM     17  C   UNL     1       5.538  15.685  18.542  0.00  0.00    +0.000 C 
ATOM     18  O   UNL     1       4.686  14.848  17.771  0.00  0.00    +0.000 OA
ENDBRANCH  11  18
BRANCH  15  19
ATOM     19  O   UNL     1       0.347  16.823  18.903  0.00  0.00    +0.000 OA
ATOM     20  C   UNL     1       0.262  17.814  17.881  0.00  0.00    +0.000 C 
ENDBRANCH  15  19
ENDBRANCH   7  13
ENDBRANCH   1   8
BRANCH   4  21
ATOM     21  C   UNL     1       1.395   6.702  20.181  0.00  0.00    +0.000 C 
BRANCH  21  22
ATOM     22  N   UNL     1       2.050   5.748  21.066  0.00  0.00    +0.000 N 
ATOM     23  H   UNL     1       1.876   5.880  22.059  0.00  0.00    +0.000 HD
BRANCH  22  24
ATOM     24  C   UNL     1       2.687   4.686  20.622  0.00  0.00    +0.000 C 
ATOM     25  C   UNL     1       3.677   4.397  19.717  0.00  0.00    +0.000 C 
ATOM     26  C   UNL     1       3.631   2.949  20.063  0.00  0.00    +0.000 C 
ATOM     27  O   UNL     1       4.169   1.902  19.766  0.00  0.00    +0.000 OA
ATOM     28  C   UNL     1       2.550   3.266  21.023  0.00  0.00    +0.000 C 
ATOM     29  O   UNL     1       1.930   2.601  21.814  0.00  0.00    +0.000 OA
BRANCH  25  30
ATOM     30  N   UNL     1       4.455   5.040  18.846  0.00  0.00    +0.000 N 
ATOM     31  C   UNL     1       3.929   5.732  17.664  0.00  0.00    +0.000 C 
ATOM     32  C   UNL     1       4.745   5.342  16.430  0.00  0.00    +0.000 C 
ATOM     33  C   UNL     1       6.252   5.558  16.643  0.00  0.00    +0.000 C 
ATOM     34  C   UNL     1       7.051   5.043  15.449  0.00  0.00    +0.000 C 
ATOM     35  C   UNL     1       6.714   4.870  17.935  0.00  0.00    +0.000 C 
ATOM     36  C   UNL     1       5.870   5.317  19.123  0.00  0.00    +0.000 C 
ENDBRANCH  25  30
ENDBRANCH  22  24
ENDBRANCH  21  22
ENDBRANCH   4  21
TORSDOF 8
ENDMDL
MODEL 8
REMARK VINA RESULT:      -7.5      2.313     10.050
REMARK  Name = 
REMARK  11 active torsions:
REMARK  status: ('A' for Active; 'I' for Inactive)
REMARK    1  A    between atoms: C_1  and  O_2
REMARK    2  A    between atoms: O_2  and  C_3
REMARK    3  A    between atoms: C_5  and  N_6
REMARK    4  A    between atoms: C_7  and  C_9
REMARK    5  A    between atoms: C_12  and  C_13
REMARK    6  A    between atoms: C_13  and  N_14
REMARK    7  A    between atoms: N_14  and  C_15
REMARK    8  A    between atoms: C_16  and  N_17
REMARK    9  A    between atoms: C_20  and  C_21
REMARK   10  A    between atoms: C_31  and  O_32
REMARK   11  A    between atoms: O_32  and  C_33
REMARK                            x       y       z     vdW  Elec       q    Type
REMARK                         _______ _______ _______ _____ _____    ______ ____
ROOT
ATOM      1  C   UNL     1       1.802   9.566  19.822  0.00  0.00    +0.000 C 
ATOM      2  C   UNL     1       1.393  10.208  18.483  0.00  0.00    +0.000 C 
ATOM      3  C   UNL     1      -0.043   9.897  18.053  0.00  0.00    +0.000 C 
ATOM      4  C   UNL     1      -1.071  10.189  19.154  0.00  0.00    +0.000 C 
ATOM      5  C   UNL     1      -0.666   9.477  20.455  0.00  0.00    +0.000 C 
ATOM      6  C   UNL     1       0.755   9.823  20.912  0.00  0.00    +0.000 C 
ENDROOT
BRANCH   1   8
ATOM      7  N   UNL     1       2.680   7.712  18.481  0.00  0.00    +0.000 N 
ATOM      8  C   UNL     1       2.058   8.062  19.671  0.00  0.00    +0.000 C 
ATOM      9  O   UNL     1       1.774   7.283  20.575  0.00  0.00    +0.000 OA
ATOM     10  H   UNL     1       2.963   8.458  17.858  0.00  0.00    +0.000 HD
BRANCH   7  13
ATOM     11  C   UNL     1       4.456   4.618  17.323  0.00  0.00    +0.000 A 
ATOM     12  C   UNL     1       4.222   5.950  17.676  0.00  0.00    +0.000 A 
ATOM     13  C   UNL     1       2.947   6.389  18.042  0.00  0.00    +0.000 A 
ATOM     14  C   UNL     1       1.892   5.470  18.021  0.00  0.00    +0.000 A 
ATOM     15  C   UNL     1       2.114   4.130  17.671  0.00  0.00    +0.000 A 
ATOM     16  C   UNL     1       3.400   3.710  17.329  0.00  0.00    +0.000 A 
BRANCH  11  18
ATOM     17  C   UNL     1       6.054   4.103  15.644  0.00  0.00    +0.000 C 
ATOM     18  O   UNL     1       5.756   4.319  17.017  0.00  0.00    +0.000 OA
ENDBRANCH  11  18
BRANCH  15  19
ATOM     19  O   UNL     1       1.010   3.318  17.711  0.00  0.00    +0.000 OA
ATOM     20  C   UNL     1       0.995   2.310  18.720  0.00  0.00    +0.000 C 
ENDBRANCH  15  19
ENDBRANCH   7  13
ENDBRANCH   1   8
BRANCH   4  21
ATOM     21  C   UNL     1      -1.271  11.692  19.399  0.00  0.00    +0.000 C 
BRANCH  21  22
ATOM     22  N   UNL     1      -2.257  12.248  18.482  0.00  0.00    +0.000 N 
ATOM     23  H   UNL     1      -1.889  12.872  17.767  0.00  0.00    +0.000 HD
BRANCH  22  24
ATOM     24  C   UNL     1      -3.511  11.852  18.459  0.00  0.00    +0.000 C 
ATOM     25  C   UNL     1      -4.662  12.072  19.173  0.00  0.00    +0.000 C 
ATOM     26  C   UNL     1      -5.445  11.186  18.268  0.00  0.00    +0.000 C 
ATOM     27  O   UNL     1      -6.577  10.775  18.115  0.00  0.00    +0.000 OA
ATOM     28  C   UNL     1      -4.195  10.937  17.514  0.00  0.00    +0.000 C 
ATOM     29  O   UNL     1      -3.946  10.307  16.518  0.00  0.00    +0.000 OA
BRANCH  25  30
ATOM     30  N   UNL     1      -5.062  12.773  20.234  0.00  0.00    +0.000 N 
ATOM     31  C   UNL     1      -4.178  13.091  21.361  0.00  0.00    +0.000 C 
ATOM     32  C   UNL     1      -4.885  12.772  22.680  0.00  0.00    +0.000 C 
ATOM     33  C   UNL     1      -6.261  13.449  22.774  0.00  0.00    +0.000 C 
ATOM     34  C   UNL     1      -6.997  13.014  24.038  0.00  0.00    +0.000 C 
ATOM     35  C   UNL     1      -7.101  13.133  21.529  0.00  0.00    +0.000 C 
ATOM     36  C   UNL     1      -6.343  13.490  20.255  0.00  0.00    +0.000 C 
ENDBRANCH  25  30
ENDBRANCH  22  24
ENDBRANCH  21  22
ENDBRANCH   4  21
TORSDOF 8
ENDMDL
MODEL 9
REMARK VINA RESULT:      -7.4      3.853      5.565
REMARK  Name = 
REMARK  11 active torsions:
REMARK  status: ('A' for Active; 'I' for Inactive)
REMARK    1  A    between atoms: C_1  and  O_2
REMARK    2  A    between atoms: O_2  and  C_3
REMARK    3  A    between atoms: C_5  and  N_6
REMARK    4  A    between atoms: C_7  and  C_9
REMARK    5  A    between atoms: C_12  and  C_13
REMARK    6  A    between atoms: C_13  and  N_14
REMARK    7  A    between atoms: N_14  and  C_15
REMARK    8  A    between atoms: C_16  and  N_17
REMARK    9  A    between atoms: C_20  and  C_21
REMARK   10  A    between atoms: C_31  and  O_32
REMARK   11  A    between atoms: O_32  and  C_33
REMARK                            x       y       z     vdW  Elec       q    Type
REMARK                         _______ _______ _______ _____ _____    ______ ____
ROOT
ATOM      1  C   UNL     1       0.482   9.848  18.865  0.00  0.00    +0.000 C 
ATOM      2  C   UNL     1       1.173   8.849  17.918  0.00  0.00    +0.000 C 
ATOM      3  C   UNL     1       2.444   8.219  18.495  0.00  0.00    +0.000 C 
ATOM      4  C   UNL     1       2.231   7.616  19.889  0.00  0.00    +0.000 C 
ATOM      5  C   UNL     1       1.602   8.662  20.824  0.00  0.00    +0.000 C 
ATOM      6  C   UNL     1       0.305   9.261  20.270  0.00  0.00    +0.000 C 
ENDROOT
BRANCH   1   8
ATOM      7  N   UNL     1       0.799  12.029  19.937  0.00  0.00    +0.000 N 
ATOM      8  C   UNL     1       1.240  11.178  18.933  0.00  0.00    +0.000 C 
ATOM      9  O   UNL     1       2.184  11.402  18.182  0.00  0.00    +0.000 OA
ATOM     10  H   UNL     1       0.080  11.689  20.563  0.00  0.00    +0.000 HD
BRANCH   7  13
ATOM     11  C   UNL     1       1.328  15.729  19.631  0.00  0.00    +0.000 A 
ATOM     12  C   UNL     1       0.922  14.427  19.331  0.00  0.00    +0.000 A 
ATOM     13  C   UNL     1       1.255  13.354  20.162  0.00  0.00    +0.000 A 
ATOM     14  C   UNL     1       2.036  13.605  21.296  0.00  0.00    +0.000 A 
ATOM     15  C   UNL     1       2.447  14.909  21.610  0.00  0.00    +0.000 A 
ATOM     16  C   UNL     1       2.085  15.966  20.776  0.00  0.00    +0.000 A 
BRANCH  11  18
ATOM     17  C   UNL     1      -0.459  16.630  18.351  0.00  0.00    +0.000 C 
ATOM     18  O   UNL     1       0.905  16.686  18.749  0.00  0.00    +0.000 OA
ENDBRANCH  11  18
BRANCH  15  19
ATOM     19  O   UNL     1       3.186  15.035  22.758  0.00  0.00    +0.000 OA
ATOM     20  C   UNL     1       4.497  15.576  22.617  0.00  0.00    +0.000 C 
ENDBRANCH  15  19
ENDBRANCH   7  13
ENDBRANCH   1   8
BRANCH   4  21
ATOM     21  C   UNL     1       1.383   6.335  19.862  0.00  0.00    +0.000 C 
BRANCH  21  22
ATOM     22  N   UNL     1       1.851   5.373  20.851  0.00  0.00    +0.000 N 
ATOM     23  H   UNL     1       1.433   5.455  21.775  0.00  0.00    +0.000 HD
BRANCH  22  24
ATOM     24  C   UNL     1       2.632   4.360  20.545  0.00  0.00    +0.000 C 
ATOM     25  C   UNL     1       3.661   4.093  19.678  0.00  0.00    +0.000 C 
ATOM     26  C   UNL     1       3.811   2.711  20.211  0.00  0.00    +0.000 C 
ATOM     27  O   UNL     1       4.489   1.717  20.051  0.00  0.00    +0.000 OA
ATOM     28  C   UNL     1       2.687   2.999  21.131  0.00  0.00    +0.000 C 
ATOM     29  O   UNL     1       2.157   2.366  22.008  0.00  0.00    +0.000 OA
BRANCH  25  30
ATOM     30  N   UNL     1       4.351   4.717  18.723  0.00  0.00    +0.000 N 
ATOM     31  C   UNL     1       3.786   5.036  17.407  0.00  0.00    +0.000 C 
ATOM     32  C   UNL     1       4.762   4.612  16.307  0.00  0.00    +0.000 C 
ATOM     33  C   UNL     1       6.166   5.195  16.526  0.00  0.00    +0.000 C 
ATOM     34  C   UNL     1       7.148   4.655  15.490  0.00  0.00    +0.000 C 
ATOM     35  C   UNL     1       6.660   4.886  17.946  0.00  0.00    +0.000 C 
ATOM     36  C   UNL     1       5.649   5.350  18.988  0.00  0.00    +0.000 C 
ENDBRANCH  25  30
ENDBRANCH  22  24
ENDBRANCH  21  22
ENDBRANCH   4  21
TORSDOF 8
ENDMDL
