MODEL 1
REMARK VINA RESULT:      -8.1      0.000      0.000
REMARK  Name = 
REMARK  10 active torsions:
REMARK  status: ('A' for Active; 'I' for Inactive)
REMARK    1  A    between atoms: C_1  and  C_2
REMARK    2  A    between atoms: C_4  and  N_5
REMARK    3  A    between atoms: C_7  and  C_8
REMARK    4  A    between atoms: C_8  and  C_9
REMARK    5  A    between atoms: C_9  and  C_10
REMARK    6  A    between atoms: C_12  and  C_13
REMARK    7  A    between atoms: C_16  and  N_17
REMARK    8  A    between atoms: N_17  and  C_18
REMARK    9  A    between atoms: C_18  and  C_19
REMARK   10  A    between atoms: C_19  and  C_20
REMARK                            x       y       z     vdW  Elec       q    Type
REMARK                         _______ _______ _______ _____ _____    ______ ____
ROOT
ATOM      1  C   UNL     1       2.325   8.468  18.272  0.00  0.00    +0.000 A 
ATOM      2  C   UNL     1       3.290   8.103  17.329  0.00  0.00    +0.000 A 
ATOM      3  C   UNL     1       3.985   6.902  17.473  0.00  0.00    +0.000 A 
ATOM      4  C   UNL     1       3.728   6.061  18.560  0.00  0.00    +0.000 A 
ATOM      5  C   UNL     1       2.776   6.397  19.519  0.00  0.00    +0.000 A 
ATOM      6  C   UNL     1       2.069   7.596  19.344  0.00  0.00    +0.000 A 
ENDROOT
BRANCH   3   7
ATOM      7  C   UNL     1       4.977   6.531  16.505  0.00  0.00    +0.000 C 
ATOM      8  N   UNL     1       5.771   6.229  15.729  0.00  0.00    +0.000 NA
ENDBRANCH   3   7
BRANCH   5   9
ATOM      9  N   UNL     1       2.607   5.576  20.632  0.00  0.00    +0.000 N 
ATOM     10  H   UNL     1       3.418   5.044  20.938  0.00  0.00    +0.000 HD
BRANCH   9  11
ATOM     11  C   UNL     1       1.284   5.044  20.949  0.00  0.00    +0.000 C 
BRANCH  11  12
ATOM     12  C   UNL     1       1.248   3.515  20.962  0.00  0.00    +0.000 C 
BRANCH  12  13
ATOM     13  C   UNL     1       2.103   2.908  19.871  0.00  0.00    +0.000 A 
ATOM     14  C   UNL     1       1.624   2.702  18.575  0.00  0.00    +0.000 A 
ATOM     15  C   UNL     1       2.456   2.121  17.620  0.00  0.00    +0.000 A 
ATOM     16  C   UNL     1       3.748   1.763  17.974  0.00  0.00    +0.000 A 
ATOM     17  C   UNL     1       4.152   2.005  19.274  0.00  0.00    +0.000 A 
ATOM     18  N   UNL     1       3.366   2.567  20.223  0.00  0.00    +0.000 NA
ENDBRANCH  12  13
ENDBRANCH  11  12
ENDBRANCH   9  11
ENDBRANCH   5   9
BRANCH   1  19
ATOM     19  C   UNL     1       1.550   9.764  18.167  0.00  0.00    +0.000 C 
BRANCH  19  20
ATOM     20  C   UNL     1       0.365   9.881  19.142  0.00  0.00    +0.000 C 
BRANCH  20  26
ATOM     21  C   UNL     1      -3.029   9.840  15.460  0.00  0.00    +0.000 C 
ATOM     22  C   UNL     1      -2.557  10.385  16.772  0.00  0.00    +0.000 A 
ATOM     23  C   UNL     1      -3.287  11.306  17.521  0.00  0.00    +0.000 A 
ATOM     24  C   UNL     1      -2.766  11.757  18.727  0.00  0.00    +0.000 A 
ATOM     25  N   UNL     1      -1.591  11.327  19.220  0.00  0.00    +0.000 NA
ATOM     26  C   UNL     1      -0.900  10.401  18.510  0.00  0.00    +0.000 A 
ATOM     27  C   UNL     1      -1.347   9.925  17.284  0.00  0.00    +0.000 A 
BRANCH  24  28
ATOM     28  N   UNL     1      -3.506  12.598  19.551  0.00  0.00    +0.000 N 
ATOM     29  H   UNL     1      -3.264  13.574  19.454  0.00  0.00    +0.000 HD
ATOM     30  H   UNL     1      -3.415  12.253  20.504  0.00  0.00    +0.000 HD
ENDBRANCH  24  28
ENDBRANCH  20  26
ENDBRANCH  19  20
ENDBRANCH   1  19
TORSDOF 9
ENDMDL
MODEL 2
REMARK VINA RESULT:      -7.9      2.372      5.130
REMARK  Name = 
REMARK  10 active torsions:
REMARK  status: ('A' for Active; 'I' for Inactive)
REMARK    1  A    between atoms: C_1  and  C_2
REMARK    2  A    between atoms: C_4  and  N_5
REMARK    3  A    between atoms: C_7  and  C_8
REMARK    4  A    between atoms: C_8  and  C_9
REMARK    5  A    between atoms: C_9  and  C_10
REMARK    6  A    between atoms: C_12  and  C_13
REMARK    7  A    between atoms: C_16  and  N_17
REMARK    8  A    between atoms: N_17  and  C_18
REMARK    9  A    between atoms: C_18  and  C_19
REMARK   10  A    between atoms: C_19  and  C_20
REMARK                            x       y       z     vdW  Elec       q    Type
REMARK                         _______ _______ _______ _____ _____    ______ ____
ROOT
ATOM      1  C   UNL     1       2.237   6.297  19.591  0.00  0.00    +0.000 A 
ATOM      2  C   UNL     1       1.907   5.381  20.593  0.00  0.00    +0.000 A 
ATOM      3  C   UNL     1       2.108   4.016  20.384  0.00  0.00    +0.000 A 
ATOM      4  C   UNL     1       2.632   3.555  19.173  0.00  0.00    +0.000 A 
ATOM      5  C   UNL     1       2.968   4.441  18.151  0.00  0.00    +0.000 A 
ATOM      6  C   UNL     1       2.783   5.812  18.389  0.00  0.00    +0.000 A 
ENDROOT
BRANCH   3   7
ATOM      7  C   UNL     1       1.765   3.078  21.414  0.00  0.00    +0.000 C 
ATOM      8  N   UNL     1       1.487   2.323  22.237  0.00  0.00    +0.000 NA
ENDBRANCH   3   7
BRANCH   5   9
ATOM      9  N   UNL     1       3.407   3.940  16.928  0.00  0.00    +0.000 N 
ATOM     10  H   UNL     1       2.746   3.379  16.397  0.00  0.00    +0.000 HD
BRANCH   9  11
ATOM     11  C   UNL     1       4.831   3.702  16.709  0.00  0.00    +0.000 C 
BRANCH  11  12
ATOM     12  C   UNL     1       5.528   4.872  16.013  0.00  0.00    +0.000 C 
BRANCH  12  13
ATOM     13  C   UNL     1       6.452   5.630  16.942  0.00  0.00    +0.000 A 
ATOM     14  C   UNL     1       6.997   5.048  18.090  0.00  0.00    +0.000 A 
ATOM     15  C   UNL     1       7.826   5.805  18.914  0.00  0.00    +0.000 A 
ATOM     16  C   UNL     1       8.100   7.122  18.576  0.00  0.00    +0.000 A 
ATOM     17  C   UNL     1       7.529   7.625  17.421  0.00  0.00    +0.000 A 
ATOM     18  N   UNL     1       6.720   6.913  16.602  0.00  0.00    +0.000 NA
ENDBRANCH  12  13
ENDBRANCH  11  12
ENDBRANCH   9  11
ENDBRANCH   5   9
BRANCH   1  19
ATOM     19  C   UNL     1       2.031   7.786  19.764  0.00  0.00    +0.000 C 
BRANCH  19  20
ATOM     20  C   UNL     1       1.283   8.183  21.049  0.00  0.00    +0.000 C 
BRANCH  20  26
ATOM     21  C   UNL     1      -1.513  11.834  23.031  0.00  0.00    +0.000 C 
ATOM     22  C   UNL     1      -0.903  11.187  21.827  0.00  0.00    +0.000 A 
ATOM     23  C   UNL     1      -1.004  11.720  20.543  0.00  0.00    +0.000 A 
ATOM     24  C   UNL     1      -0.406  11.046  19.485  0.00  0.00    +0.000 A 
ATOM     25  N   UNL     1       0.290   9.907  19.647  0.00  0.00    +0.000 NA
ATOM     26  C   UNL     1       0.421   9.410  20.902  0.00  0.00    +0.000 A 
ATOM     27  C   UNL     1      -0.172  10.016  22.003  0.00  0.00    +0.000 A 
BRANCH  24  28
ATOM     28  N   UNL     1      -0.398  11.593  18.207  0.00  0.00    +0.000 N 
ATOM     29  H   UNL     1      -0.243  12.592  18.195  0.00  0.00    +0.000 HD
ATOM     30  H   UNL     1      -1.262  11.314  17.748  0.00  0.00    +0.000 HD
ENDBRANCH  24  28
ENDBRANCH  20  26
ENDBRANCH  19  20
ENDBRANCH   1  19
TORSDOF 9
ENDMDL
MODEL 3
REMARK VINA RESULT:      -7.8      2.218      4.678
REMARK  Name = 
REMARK  10 active torsions:
REMARK  status: ('A' for Active; 'I' for Inactive)
REMARK    1  A    between atoms: C_1  and  C_2
REMARK    2  A    between atoms: C_4  and  N_5
REMARK    3  A    between atoms: C_7  and  C_8
REMARK    4  A    between atoms: C_8  and  C_9
REMARK    5  A    between atoms: C_9  and  C_10
REMARK    6  A    between atoms: C_12  and  C_13
REMARK    7  A    between atoms: C_16  and  N_17
REMARK    8  A    between atoms: N_17  and  C_18
REMARK    9  A    between atoms: C_18  and  C_19
REMARK   10  A    between atoms: C_19  and  C_20
REMARK                            x       y       z     vdW  Elec       q    Type
REMARK                         _______ _______ _______ _____ _____    ______ ____
ROOT
ATOM      1  C   UNL     1       1.991   6.814  20.112  0.00  0.00    +0.000 A 
ATOM      2  C   UNL     1       1.726   5.718  20.938  0.00  0.00    +0.000 A 
ATOM      3  C   UNL     1       2.138   4.442  20.554  0.00  0.00    +0.000 A 
ATOM      4  C   UNL     1       2.809   4.248  19.344  0.00  0.00    +0.000 A 
ATOM      5  C   UNL     1       3.085   5.318  18.495  0.00  0.00    +0.000 A 
ATOM      6  C   UNL     1       2.686   6.598  18.909  0.00  0.00    +0.000 A 
ENDROOT
BRANCH   3   7
ATOM      7  C   UNL     1       1.862   3.318  21.403  0.00  0.00    +0.000 C 
ATOM      8  N   UNL     1       1.641   2.414  22.080  0.00  0.00    +0.000 NA
ENDBRANCH   3   7
BRANCH   5   9
ATOM      9  N   UNL     1       3.679   5.075  17.259  0.00  0.00    +0.000 N 
ATOM     10  H   UNL     1       3.284   5.559  16.456  0.00  0.00    +0.000 HD
BRANCH   9  11
ATOM     11  C   UNL     1       4.370   3.811  17.020  0.00  0.00    +0.000 C 
BRANCH  11  12
ATOM     12  C   UNL     1       5.782   4.002  16.467  0.00  0.00    +0.000 C 
BRANCH  12  13
ATOM     13  C   UNL     1       6.568   5.042  17.236  0.00  0.00    +0.000 A 
ATOM     14  C   UNL     1       6.916   6.276  16.681  0.00  0.00    +0.000 A 
ATOM     15  C   UNL     1       7.657   7.182  17.435  0.00  0.00    +0.000 A 
ATOM     16  C   UNL     1       8.031   6.844  18.727  0.00  0.00    +0.000 A 
ATOM     17  C   UNL     1       7.643   5.608  19.209  0.00  0.00    +0.000 A 
ATOM     18  N   UNL     1       6.924   4.707  18.499  0.00  0.00    +0.000 NA
ENDBRANCH  12  13
ENDBRANCH  11  12
ENDBRANCH   9  11
ENDBRANCH   5   9
BRANCH   1  19
ATOM     19  C   UNL     1       1.558   8.218  20.476  0.00  0.00    +0.000 C 
BRANCH  19  20
ATOM     20  C   UNL     1       1.336   9.151  19.273  0.00  0.00    +0.000 C 
BRANCH  20  26
ATOM     21  C   UNL     1      -1.508  11.977  22.274  0.00  0.00    +0.000 C 
ATOM     22  C   UNL     1      -1.117  11.554  20.893  0.00  0.00    +0.000 A 
ATOM     23  C   UNL     1      -1.651  12.128  19.740  0.00  0.00    +0.000 A 
ATOM     24  C   UNL     1      -1.228  11.666  18.500  0.00  0.00    +0.000 A 
ATOM     25  N   UNL     1      -0.305  10.699  18.358  0.00  0.00    +0.000 NA
ATOM     26  C   UNL     1       0.242  10.167  19.480  0.00  0.00    +0.000 A 
ATOM     27  C   UNL     1      -0.151  10.561  20.753  0.00  0.00    +0.000 A 
BRANCH  24  28
ATOM     28  N   UNL     1      -1.660  12.278  17.328  0.00  0.00    +0.000 N 
ATOM     29  H   UNL     1      -2.469  11.835  16.916  0.00  0.00    +0.000 HD
ATOM     30  H   UNL     1      -0.864  12.332  16.698  0.00  0.00    +0.000 HD
ENDBRANCH  24  28
ENDBRANCH  20  26
ENDBRANCH  19  20
ENDBRANCH   1  19
TORSDOF 9
ENDMDL
MODEL 4
REMARK VINA RESULT:      -7.8      2.760      8.765
REMARK  Name = 
REMARK  10 active torsions:
REMARK  status: ('A' for Active; 'I' for Inactive)
REMARK    1  A    between atoms: C_1  and  C_2
REMARK    2  A    between atoms: C_4  and  N_5
REMARK    3  A    between atoms: C_7  and  C_8
REMARK    4  A    between atoms: C_8  and  C_9
REMARK    5  A    between atoms: C_9  and  C_10
REMARK    6  A    between atoms: C_12  and  C_13
REMARK    7  A    between atoms: C_16  and  N_17
REMARK    8  A    between atoms: N_17  and  C_18
REMARK    9  A    between atoms: C_18  and  C_19
REMARK   10  A    between atoms: C_19  and  C_20
REMARK                            x       y       z     vdW  Elec       q    Type
REMARK                         _______ _______ _______ _____ _____    ______ ____
ROOT
ATOM      1  C   UNL     1       3.926   4.710  18.054  0.00  0.00    +0.000 A 
ATOM      2  C   UNL     1       3.580   3.857  19.106  0.00  0.00    +0.000 A 
ATOM      3  C   UNL     1       2.726   4.306  20.114  0.00  0.00    +0.000 A 
ATOM      4  C   UNL     1       2.218   5.608  20.084  0.00  0.00    +0.000 A 
ATOM      5  C   UNL     1       2.546   6.485  19.052  0.00  0.00    +0.000 A 
ATOM      6  C   UNL     1       3.386   6.008  18.034  0.00  0.00    +0.000 A 
ENDROOT
BRANCH   3   7
ATOM      7  C   UNL     1       2.374   3.429  21.194  0.00  0.00    +0.000 C 
ATOM      8  N   UNL     1       2.094   2.730  22.063  0.00  0.00    +0.000 NA
ENDBRANCH   3   7
BRANCH   5   9
ATOM      9  N   UNL     1       2.090   7.799  19.100  0.00  0.00    +0.000 N 
ATOM     10  H   UNL     1       1.544   8.067  19.916  0.00  0.00    +0.000 HD
BRANCH   9  11
ATOM     11  C   UNL     1       1.866   8.538  17.860  0.00  0.00    +0.000 C 
BRANCH  11  12
ATOM     12  C   UNL     1       1.855  10.053  18.066  0.00  0.00    +0.000 C 
BRANCH  12  13
ATOM     13  C   UNL     1       0.798  10.494  19.055  0.00  0.00    +0.000 A 
ATOM     14  C   UNL     1      -0.424  11.035  18.649  0.00  0.00    +0.000 A 
ATOM     15  C   UNL     1      -1.348  11.439  19.610  0.00  0.00    +0.000 A 
ATOM     16  C   UNL     1      -1.038  11.292  20.953  0.00  0.00    +0.000 A 
ATOM     17  C   UNL     1       0.189  10.742  21.277  0.00  0.00    +0.000 A 
ATOM     18  N   UNL     1       1.106  10.341  20.365  0.00  0.00    +0.000 NA
ENDBRANCH  12  13
ENDBRANCH  11  12
ENDBRANCH   9  11
ENDBRANCH   5   9
BRANCH   1  19
ATOM     19  C   UNL     1       4.856   4.276  16.941  0.00  0.00    +0.000 C 
BRANCH  19  20
ATOM     20  C   UNL     1       5.343   5.419  16.033  0.00  0.00    +0.000 C 
BRANCH  20  26
ATOM     21  C   UNL     1       5.415   2.687  11.837  0.00  0.00    +0.000 C 
ATOM     22  C   UNL     1       6.082   3.674  12.744  0.00  0.00    +0.000 A 
ATOM     23  C   UNL     1       7.298   4.284  12.443  0.00  0.00    +0.000 A 
ATOM     24  C   UNL     1       7.841   5.186  13.349  0.00  0.00    +0.000 A 
ATOM     25  N   UNL     1       7.233   5.517  14.502  0.00  0.00    +0.000 NA
ATOM     26  C   UNL     1       6.030   4.952  14.776  0.00  0.00    +0.000 A 
ATOM     27  C   UNL     1       5.440   4.022  13.929  0.00  0.00    +0.000 A 
BRANCH  24  28
ATOM     28  N   UNL     1       9.000   5.890  13.043  0.00  0.00    +0.000 N 
ATOM     29  H   UNL     1       9.056   6.177  12.076  0.00  0.00    +0.000 HD
ATOM     30  H   UNL     1       9.791   5.325  13.344  0.00  0.00    +0.000 HD
ENDBRANCH  24  28
ENDBRANCH  20  26
ENDBRANCH  19  20
ENDBRANCH   1  19
TORSDOF 9
ENDMDL
MODEL 5
REMARK VINA RESULT:      -7.7      2.754      5.386
REMARK  Name = 
REMARK  10 active torsions:
REMARK  status: ('A' for Active; 'I' for Inactive)
REMARK    1  A    between atoms: C_1  and  C_2
REMARK    2  A    between atoms: C_4  and  N_5
REMARK    3  A    between atoms: C_7  and  C_8
REMARK    4  A    between atoms: C_8  and  C_9
REMARK    5  A    between atoms: C_9  and  C_10
REMARK    6  A    between atoms: C_12  and  C_13
REMARK    7  A    between atoms: C_16  and  N_17
REMARK    8  A    between atoms: N_17  and  C_18
REMARK    9  A    between atoms: C_18  and  C_19
REMARK   10  A    between atoms: C_19  and  C_20
REMARK                            x       y       z     vdW  Elec       q    Type
REMARK                         _______ _______ _______ _____ _____    ______ ____
ROOT
ATOM      1  C   UNL     1       2.466   6.373  19.692  0.00  0.00    +0.000 A 
ATOM      2  C   UNL     1       1.953   5.397  20.552  0.00  0.00    +0.000 A 
ATOM      3  C   UNL     1       2.492   4.111  20.546  0.00  0.00    +0.000 A 
ATOM      4  C   UNL     1       3.539   3.786  19.679  0.00  0.00    +0.000 A 
ATOM      5  C   UNL     1       4.071   4.733  18.807  0.00  0.00    +0.000 A 
ATOM      6  C   UNL     1       3.534   6.028  18.845  0.00  0.00    +0.000 A 
ENDROOT
BRANCH   3   7
ATOM      7  C   UNL     1       1.962   3.111  21.428  0.00  0.00    +0.000 C 
ATOM      8  N   UNL     1       1.531   2.310  22.132  0.00  0.00    +0.000 NA
ENDBRANCH   3   7
BRANCH   5   9
ATOM      9  N   UNL     1       5.056   4.351  17.899  0.00  0.00    +0.000 N 
ATOM     10  H   UNL     1       5.821   3.787  18.262  0.00  0.00    +0.000 HD
BRANCH   9  11
ATOM     11  C   UNL     1       5.315   5.170  16.719  0.00  0.00    +0.000 C 
BRANCH  11  12
ATOM     12  C   UNL     1       6.761   5.071  16.234  0.00  0.00    +0.000 C 
BRANCH  12  13
ATOM     13  C   UNL     1       6.855   4.772  14.753  0.00  0.00    +0.000 A 
ATOM     14  C   UNL     1       6.050   3.812  14.133  0.00  0.00    +0.000 A 
ATOM     15  C   UNL     1       6.198   3.570  12.770  0.00  0.00    +0.000 A 
ATOM     16  C   UNL     1       7.139   4.292  12.051  0.00  0.00    +0.000 A 
ATOM     17  C   UNL     1       7.893   5.230  12.733  0.00  0.00    +0.000 A 
ATOM     18  N   UNL     1       7.772   5.485  14.057  0.00  0.00    +0.000 NA
ENDBRANCH  12  13
ENDBRANCH  11  12
ENDBRANCH   9  11
ENDBRANCH   5   9
BRANCH   1  19
ATOM     19  C   UNL     1       1.911   7.781  19.652  0.00  0.00    +0.000 C 
BRANCH  19  20
ATOM     20  C   UNL     1       1.358   8.287  20.996  0.00  0.00    +0.000 C 
BRANCH  20  26
ATOM     21  C   UNL     1      -1.530  11.825  23.051  0.00  0.00    +0.000 C 
ATOM     22  C   UNL     1      -0.870  11.243  21.840  0.00  0.00    +0.000 A 
ATOM     23  C   UNL     1      -0.923  11.841  20.582  0.00  0.00    +0.000 A 
ATOM     24  C   UNL     1      -0.281  11.224  19.516  0.00  0.00    +0.000 A 
ATOM     25  N   UNL     1       0.413  10.079  19.646  0.00  0.00    +0.000 NA
ATOM     26  C   UNL     1       0.496   9.518  20.878  0.00  0.00    +0.000 A 
ATOM     27  C   UNL     1      -0.142  10.065  21.984  0.00  0.00    +0.000 A 
BRANCH  24  28
ATOM     28  N   UNL     1      -0.225  11.836  18.268  0.00  0.00    +0.000 N 
ATOM     29  H   UNL     1      -1.118  12.186  17.950  0.00  0.00    +0.000 HD
ATOM     30  H   UNL     1       0.204  11.178  17.622  0.00  0.00    +0.000 HD
ENDBRANCH  24  28
ENDBRANCH  20  26
ENDBRANCH  19  20
ENDBRANCH   1  19
TORSDOF 9
ENDMDL
MODEL 6
REMARK VINA RESULT:      -7.7      2.681      8.897
REMARK  Name = 
REMARK  10 active torsions:
REMARK  status: ('A' for Active; 'I' for Inactive)
REMARK    1  A    between atoms: C_1  and  C_2
REMARK    2  A    between atoms: C_4  and  N_5
REMARK    3  A    between atoms: C_7  and  C_8
REMARK    4  A    between atoms: C_8  and  C_9
REMARK    5  A    between atoms: C_9  and  C_10
REMARK    6  A    between atoms: C_12  and  C_13
REMARK    7  A    between atoms: C_16  and  N_17
REMARK    8  A    between atoms: N_17  and  C_18
REMARK    9  A    between atoms: C_18  and  C_19
REMARK   10  A    between atoms: C_19  and  C_20
REMARK                            x       y       z     vdW  Elec       q    Type
REMARK                         _______ _______ _______ _____ _____    ______ ____
ROOT
ATOM      1  C   UNL     1       3.709   4.388  17.793  0.00  0.00    +0.000 A 
ATOM      2  C   UNL     1       3.110   3.594  18.776  0.00  0.00    +0.000 A 
ATOM      3  C   UNL     1       2.318   4.183  19.761  0.00  0.00    +0.000 A 
ATOM      4  C   UNL     1       2.122   5.567  19.779  0.00  0.00    +0.000 A 
ATOM      5  C   UNL     1       2.707   6.388  18.817  0.00  0.00    +0.000 A 
ATOM      6  C   UNL     1       3.480   5.775  17.819  0.00  0.00    +0.000 A 
ENDROOT
BRANCH   3   7
ATOM      7  C   UNL     1       1.707   3.365  20.769  0.00  0.00    +0.000 C 
ATOM      8  N   UNL     1       1.216   2.714  21.580  0.00  0.00    +0.000 NA
ENDBRANCH   3   7
BRANCH   5   9
ATOM      9  N   UNL     1       2.559   7.769  18.915  0.00  0.00    +0.000 N 
ATOM     10  H   UNL     1       2.643   8.176  19.845  0.00  0.00    +0.000 HD
BRANCH   9  11
ATOM     11  C   UNL     1       1.757   8.487  17.929  0.00  0.00    +0.000 C 
BRANCH  11  12
ATOM     12  C   UNL     1       1.614   9.975  18.250  0.00  0.00    +0.000 C 
BRANCH  12  13
ATOM     13  C   UNL     1       0.167  10.421  18.293  0.00  0.00    +0.000 A 
ATOM     14  C   UNL     1      -0.852   9.706  17.659  0.00  0.00    +0.000 A 
ATOM     15  C   UNL     1      -2.161  10.179  17.720  0.00  0.00    +0.000 A 
ATOM     16  C   UNL     1      -2.427  11.349  18.414  0.00  0.00    +0.000 A 
ATOM     17  C   UNL     1      -1.367  11.997  19.020  0.00  0.00    +0.000 A 
ATOM     18  N   UNL     1      -0.086  11.562  18.977  0.00  0.00    +0.000 NA
ENDBRANCH  12  13
ENDBRANCH  11  12
ENDBRANCH   9  11
ENDBRANCH   5   9
BRANCH   1  19
ATOM     19  C   UNL     1       4.584   3.800  16.708  0.00  0.00    +0.000 C 
BRANCH  19  20
ATOM     20  C   UNL     1       5.851   4.617  16.397  0.00  0.00    +0.000 C 
BRANCH  20  26
ATOM     21  C   UNL     1       5.323   2.843  11.743  0.00  0.00    +0.000 C 
ATOM     22  C   UNL     1       6.083   3.679  12.726  0.00  0.00    +0.000 A 
ATOM     23  C   UNL     1       7.186   4.455  12.373  0.00  0.00    +0.000 A 
ATOM     24  C   UNL     1       7.829   5.196  13.355  0.00  0.00    +0.000 A 
ATOM     25  N   UNL     1       7.422   5.217  14.637  0.00  0.00    +0.000 NA
ATOM     26  C   UNL     1       6.325   4.492  14.972  0.00  0.00    +0.000 A 
ATOM     27  C   UNL     1       5.648   3.707  14.048  0.00  0.00    +0.000 A 
BRANCH  24  28
ATOM     28  N   UNL     1       8.870   6.059  13.029  0.00  0.00    +0.000 N 
ATOM     29  H   UNL     1       9.371   5.789  12.194  0.00  0.00    +0.000 HD
ATOM     30  H   UNL     1       9.467   6.144  13.848  0.00  0.00    +0.000 HD
ENDBRANCH  24  28
ENDBRANCH  20  26
ENDBRANCH  19  20
ENDBRANCH   1  19
TORSDOF 9
ENDMDL
MODEL 7
REMARK VINA RESULT:      -7.7      4.602      7.816
REMARK  Name = 
REMARK  10 active torsions:
REMARK  status: ('A' for Active; 'I' for Inactive)
REMARK    1  A    between atoms: C_1  and  C_2
REMARK    2  A    between atoms: C_4  and  N_5
REMARK    3  A    between atoms: C_7  and  C_8
REMARK    4  A    between atoms: C_8  and  C_9
REMARK    5  A    between atoms: C_9  and  C_10
REMARK    6  A    between atoms: C_12  and  C_13
REMARK    7  A    between atoms: C_16  and  N_17
REMARK    8  A    between atoms: N_17  and  C_18
REMARK    9  A    between atoms: C_18  and  C_19
REMARK   10  A    between atoms: C_19  and  C_20
REMARK                            x       y       z     vdW  Elec       q    Type
REMARK                         _______ _______ _______ _____ _____    ______ ____
ROOT
ATOM      1  C   UNL     1       7.458   6.397  18.029  0.00  0.00    +0.000 A 
ATOM      2  C   UNL     1       7.476   6.134  16.656  0.00  0.00    +0.000 A 
ATOM      3  C   UNL     1       6.731   5.072  16.142  0.00  0.00    +0.000 A 
ATOM      4  C   UNL     1       5.971   4.263  16.990  0.00  0.00    +0.000 A 
ATOM      5  C   UNL     1       5.935   4.495  18.364  0.00  0.00    +0.000 A 
ATOM      6  C   UNL     1       6.669   5.583  18.860  0.00  0.00    +0.000 A 
ENDROOT
BRANCH   3   7
ATOM      7  C   UNL     1       6.753   4.803  14.732  0.00  0.00    +0.000 C 
ATOM      8  N   UNL     1       6.769   4.582  13.603  0.00  0.00    +0.000 NA
ENDBRANCH   3   7
BRANCH   5   9
ATOM      9  N   UNL     1       5.235   3.618  19.188  0.00  0.00    +0.000 N 
ATOM     10  H   UNL     1       5.781   3.087  19.863  0.00  0.00    +0.000 HD
BRANCH   9  11
ATOM     11  C   UNL     1       3.971   3.044  18.734  0.00  0.00    +0.000 C 
BRANCH  11  12
ATOM     12  C   UNL     1       2.781   3.481  19.588  0.00  0.00    +0.000 C 
BRANCH  12  13
ATOM     13  C   UNL     1       2.536   4.973  19.519  0.00  0.00    +0.000 A 
ATOM     14  C   UNL     1       2.009   5.693  20.594  0.00  0.00    +0.000 A 
ATOM     15  C   UNL     1       1.790   7.062  20.460  0.00  0.00    +0.000 A 
ATOM     16  C   UNL     1       2.104   7.685  19.262  0.00  0.00    +0.000 A 
ATOM     17  C   UNL     1       2.628   6.907  18.246  0.00  0.00    +0.000 A 
ATOM     18  N   UNL     1       2.851   5.576  18.348  0.00  0.00    +0.000 NA
ENDBRANCH  12  13
ENDBRANCH  11  12
ENDBRANCH   9  11
ENDBRANCH   5   9
BRANCH   1  19
ATOM     19  C   UNL     1       8.255   7.530  18.640  0.00  0.00    +0.000 C 
BRANCH  19  20
ATOM     20  C   UNL     1       8.129   8.872  17.897  0.00  0.00    +0.000 C 
BRANCH  20  26
ATOM     21  C   UNL     1      11.130  12.848  17.382  0.00  0.00    +0.000 C 
ATOM     22  C   UNL     1      10.382  11.905  18.271  0.00  0.00    +0.000 A 
ATOM     23  C   UNL     1      10.326  12.047  19.657  0.00  0.00    +0.000 A 
ATOM     24  C   UNL     1       9.608  11.119  20.400  0.00  0.00    +0.000 A 
ATOM     25  N   UNL     1       8.941  10.095  19.840  0.00  0.00    +0.000 NA
ATOM     26  C   UNL     1       8.963   9.980  18.488  0.00  0.00    +0.000 A 
ATOM     27  C   UNL     1       9.681  10.855  17.684  0.00  0.00    +0.000 A 
BRANCH  24  28
ATOM     28  N   UNL     1       9.445  11.279  21.772  0.00  0.00    +0.000 N 
ATOM     29  H   UNL     1       9.357  12.244  22.059  0.00  0.00    +0.000 HD
ATOM     30  H   UNL     1      10.209  10.789  22.231  0.00  0.00    +0.000 HD
ENDBRANCH  24  28
ENDBRANCH  20  26
ENDBRANCH  19  20
ENDBRANCH   1  19
TORSDOF 9
ENDMDL
MODEL 8
REMARK VINA RESULT:      -7.7      2.511      5.117
REMARK  Name = 
REMARK  10 active torsions:
REMARK  status: ('A' for Active; 'I' for Inactive)
REMARK    1  A    between atoms: C_1  and  C_2
REMARK    2  A    between atoms: C_4  and  N_5
REMARK    3  A    between atoms: C_7  and  C_8
REMARK    4  A    between atoms: C_8  and  C_9
REMARK    5  A    between atoms: C_9  and  C_10
REMARK    6  A    between atoms: C_12  and  C_13
REMARK    7  A    between atoms: C_16  and  N_17
REMARK    8  A    between atoms: N_17  and  C_18
REMARK    9  A    between atoms: C_18  and  C_19
REMARK   10  A    between atoms: C_19  and  C_20
REMARK                            x       y       z     vdW  Elec       q    Type
REMARK                         _______ _______ _______ _____ _____    ______ ____
ROOT
ATOM      1  C   UNL     1       2.381   6.136  19.571  0.00  0.00    +0.000 A 
ATOM      2  C   UNL     1       1.989   5.249  20.578  0.00  0.00    +0.000 A 
ATOM      3  C   UNL     1       2.198   3.879  20.420  0.00  0.00    +0.000 A 
ATOM      4  C   UNL     1       2.791   3.383  19.255  0.00  0.00    +0.000 A 
ATOM      5  C   UNL     1       3.189   4.239  18.231  0.00  0.00    +0.000 A 
ATOM      6  C   UNL     1       2.995   5.616  18.418  0.00  0.00    +0.000 A 
ENDROOT
BRANCH   3   7
ATOM      7  C   UNL     1       1.792   2.972  21.454  0.00  0.00    +0.000 C 
ATOM      8  N   UNL     1       1.466   2.240  22.280  0.00  0.00    +0.000 NA
ENDBRANCH   3   7
BRANCH   5   9
ATOM      9  N   UNL     1       3.699   3.703  17.051  0.00  0.00    +0.000 N 
ATOM     10  H   UNL     1       3.859   2.698  17.034  0.00  0.00    +0.000 HD
BRANCH   9  11
ATOM     11  C   UNL     1       4.506   4.535  16.163  0.00  0.00    +0.000 C 
BRANCH  11  12
ATOM     12  C   UNL     1       6.000   4.227  16.256  0.00  0.00    +0.000 C 
BRANCH  12  13
ATOM     13  C   UNL     1       6.749   5.244  17.092  0.00  0.00    +0.000 A 
ATOM     14  C   UNL     1       7.272   4.936  18.350  0.00  0.00    +0.000 A 
ATOM     15  C   UNL     1       7.934   5.922  19.077  0.00  0.00    +0.000 A 
ATOM     16  C   UNL     1       8.066   7.191  18.535  0.00  0.00    +0.000 A 
ATOM     17  C   UNL     1       7.528   7.417  17.281  0.00  0.00    +0.000 A 
ATOM     18  N   UNL     1       6.879   6.479  16.552  0.00  0.00    +0.000 NA
ENDBRANCH  12  13
ENDBRANCH  11  12
ENDBRANCH   9  11
ENDBRANCH   5   9
BRANCH   1  19
ATOM     19  C   UNL     1       2.169   7.630  19.689  0.00  0.00    +0.000 C 
BRANCH  19  20
ATOM     20  C   UNL     1       2.012   8.362  18.344  0.00  0.00    +0.000 C 
BRANCH  20  26
ATOM     21  C   UNL     1      -1.400  11.618  20.027  0.00  0.00    +0.000 C 
ATOM     22  C   UNL     1      -0.127  11.353  19.286  0.00  0.00    +0.000 A 
ATOM     23  C   UNL     1       0.677  12.367  18.766  0.00  0.00    +0.000 A 
ATOM     24  C   UNL     1       1.841  12.023  18.090  0.00  0.00    +0.000 A 
ATOM     25  N   UNL     1       2.242  10.749  17.930  0.00  0.00    +0.000 NA
ATOM     26  C   UNL     1       1.479   9.766  18.469  0.00  0.00    +0.000 A 
ATOM     27  C   UNL     1       0.290  10.033  19.136  0.00  0.00    +0.000 A 
BRANCH  24  28
ATOM     28  N   UNL     1       2.720  13.003  17.644  0.00  0.00    +0.000 N 
ATOM     29  H   UNL     1       3.547  13.096  18.217  0.00  0.00    +0.000 HD
ATOM     30  H   UNL     1       2.194  13.869  17.551  0.00  0.00    +0.000 HD
ENDBRANCH  24  28
ENDBRANCH  20  26
ENDBRANCH  19  20
ENDBRANCH   1  19
TORSDOF 9
ENDMDL
MODEL 9
REMARK VINA RESULT:      -7.6      1.119      1.719
REMARK  Name = 
REMARK  10 active torsions:
REMARK  status: ('A' for Active; 'I' for Inactive)
REMARK    1  A    between atoms: C_1  and  C_2
REMARK    2  A    between atoms: C_4  and  N_5
REMARK    3  A    between atoms: C_7  and  C_8
REMARK    4  A    between atoms: C_8  and  C_9
REMARK    5  A    between atoms: C_9  and  C_10
REMARK    6  A    between atoms: C_12  and  C_13
REMARK    7  A    between atoms: C_16  and  N_17
REMARK    8  A    between atoms: N_17  and  C_18
REMARK    9  A    between atoms: C_18  and  C_19
REMARK   10  A    between atoms: C_19  and  C_20
REMARK                            x       y       z     vdW  Elec       q    Type
REMARK                         _______ _______ _______ _____ _____    ______ ____
ROOT
ATOM      1  C   UNL     1       2.624   8.124  18.004  0.00  0.00    +0.000 A 
ATOM      2  C   UNL     1       3.640   7.778  17.107  0.00  0.00    +0.000 A 
ATOM      3  C   UNL     1       4.405   6.632  17.329  0.00  0.00    +0.000 A 
ATOM      4  C   UNL     1       4.168   5.829  18.448  0.00  0.00    +0.000 A 
ATOM      5  C   UNL     1       3.166   6.146  19.362  0.00  0.00    +0.000 A 
ATOM      6  C   UNL     1       2.390   7.288  19.109  0.00  0.00    +0.000 A 
ENDROOT
BRANCH   3   7
ATOM      7  C   UNL     1       5.448   6.282  16.409  0.00  0.00    +0.000 C 
ATOM      8  N   UNL     1       6.285   6.006  15.669  0.00  0.00    +0.000 NA
ENDBRANCH   3   7
BRANCH   5   9
ATOM      9  N   UNL     1       3.014   5.370  20.508  0.00  0.00    +0.000 N 
ATOM     10  H   UNL     1       3.729   4.668  20.686  0.00  0.00    +0.000 HD
BRANCH   9  11
ATOM     11  C   UNL     1       1.682   5.138  21.059  0.00  0.00    +0.000 C 
BRANCH  11  12
ATOM     12  C   UNL     1       1.034   3.859  20.526  0.00  0.00    +0.000 C 
BRANCH  12  13
ATOM     13  C   UNL     1       1.944   3.100  19.584  0.00  0.00    +0.000 A 
ATOM     14  C   UNL     1       1.694   3.017  18.212  0.00  0.00    +0.000 A 
ATOM     15  C   UNL     1       2.560   2.287  17.401  0.00  0.00    +0.000 A 
ATOM     16  C   UNL     1       3.658   1.661  17.971  0.00  0.00    +0.000 A 
ATOM     17  C   UNL     1       3.842   1.795  19.335  0.00  0.00    +0.000 A 
ATOM     18  N   UNL     1       3.018   2.497  20.147  0.00  0.00    +0.000 NA
ENDBRANCH  12  13
ENDBRANCH  11  12
ENDBRANCH   9  11
ENDBRANCH   5   9
BRANCH   1  19
ATOM     19  C   UNL     1       1.772   9.361  17.814  0.00  0.00    +0.000 C 
BRANCH  19  20
ATOM     20  C   UNL     1       0.952   9.767  19.051  0.00  0.00    +0.000 C 
BRANCH  20  26
ATOM     21  C   UNL     1      -2.951  12.719  20.113  0.00  0.00    +0.000 C 
ATOM     22  C   UNL     1      -2.289  11.737  19.197  0.00  0.00    +0.000 A 
ATOM     23  C   UNL     1      -2.832  11.353  17.972  0.00  0.00    +0.000 A 
ATOM     24  C   UNL     1      -2.145  10.433  17.190  0.00  0.00    +0.000 A 
ATOM     25  N   UNL     1      -0.961   9.908  17.553  0.00  0.00    +0.000 NA
ATOM     26  C   UNL     1      -0.415  10.312  18.727  0.00  0.00    +0.000 A 
ATOM     27  C   UNL     1      -1.057  11.208  19.572  0.00  0.00    +0.000 A 
BRANCH  24  28
ATOM     28  N   UNL     1      -2.601  10.098  15.920  0.00  0.00    +0.000 N 
ATOM     29  H   UNL     1      -3.418  10.618  15.633  0.00  0.00    +0.000 HD
ATOM     30  H   UNL     1      -2.734   9.090  15.897  0.00  0.00    +0.000 HD
ENDBRANCH  24  28
ENDBRANCH  20  26
ENDBRANCH  19  20
ENDBRANCH   1  19
TORSDOF 9
ENDMDL
