MODEL 1
REMARK VINA RESULT:      -8.3      0.000      0.000
REMARK  Name = 
REMARK  5 active torsions:
REMARK  status: ('A' for Active; 'I' for Inactive)
REMARK    1  A    between atoms: C_2  and  C_5
REMARK    2  A    between atoms: C_5  and  O_6
REMARK    3  A    between atoms: O_6  and  C_7
REMARK    4  A    between atoms: C_12  and  C_13
REMARK    5  A    between atoms: C_18  and  C_19
REMARK                            x       y       z     vdW  Elec       q    Type
REMARK                         _______ _______ _______ _____ _____    ______ ____
ROOT
ATOM      1  C   UNL     1       4.645   4.809  16.884  0.00  0.00    +0.000 A 
ATOM      2  C   UNL     1       4.344   3.713  17.726  0.00  0.00    +0.000 A 
ATOM      3  C   UNL     1       3.451   3.805  18.796  0.00  0.00    +0.000 A 
ATOM      4  C   UNL     1       2.835   5.019  19.108  0.00  0.00    +0.000 A 
ATOM      5  C   UNL     1       3.139   6.149  18.329  0.00  0.00    +0.000 A 
ATOM      6  C   UNL     1       2.771   7.532  18.313  0.00  0.00    +0.000 A 
ATOM      7  N   UNL     1       3.380   8.161  17.290  0.00  0.00    +0.000 NA
ATOM      8  O   UNL     1       4.128   7.209  16.636  0.00  0.00    +0.000 OA
ATOM      9  C   UNL     1       4.010   6.006  17.260  0.00  0.00    +0.000 A 
ENDROOT
BRANCH   1  15
ATOM     10  C   UNL     1       6.804   5.244  15.627  0.00  0.00    +0.000 A 
ATOM     11  N   UNL     1       7.621   5.154  14.557  0.00  0.00    +0.000 NA
ATOM     12  C   UNL     1       7.129   4.492  13.505  0.00  0.00    +0.000 A 
ATOM     13  N   UNL     1       5.924   3.919  13.440  0.00  0.00    +0.000 NA
ATOM     14  C   UNL     1       5.151   4.047  14.542  0.00  0.00    +0.000 A 
ATOM     15  C   UNL     1       5.517   4.716  15.701  0.00  0.00    +0.000 A 
BRANCH  10  16
ATOM     16  O   UNL     1       7.293   5.913  16.732  0.00  0.00    +0.000 OA
BRANCH  16  17
ATOM     17  C   UNL     1       7.750   5.056  17.785  0.00  0.00    +0.000 C 
BRANCH  17  19
ATOM     18  F   UNL     1       8.712   5.141  19.990  0.00  0.00    +0.000 F 
ATOM     19  C   UNL     1       7.803   5.705  19.165  0.00  0.00    +0.000 C 
ATOM     20  F   UNL     1       6.598   5.673  19.781  0.00  0.00    +0.000 F 
ATOM     21  F   UNL     1       8.144   7.015  19.047  0.00  0.00    +0.000 F 
ENDBRANCH  17  19
ENDBRANCH  16  17
ENDBRANCH  10  16
ENDBRANCH   1  15
BRANCH   6  22
ATOM     22  C   UNL     1       1.884   8.244  19.229  0.00  0.00    +0.000 A 
ATOM     23  C   UNL     1       1.197   9.389  18.834  0.00  0.00    +0.000 A 
ATOM     24  N   UNL     1       0.369  10.080  19.665  0.00  0.00    +0.000 NA
ATOM     25  C   UNL     1       0.260   9.576  20.914  0.00  0.00    +0.000 A 
ATOM     26  C   UNL     1       0.936   8.441  21.317  0.00  0.00    +0.000 A 
ATOM     27  N   UNL     1       1.757   7.751  20.490  0.00  0.00    +0.000 NA
ENDBRANCH   6  22
TORSDOF 5
ENDMDL
MODEL 2
REMARK VINA RESULT:      -8.3      1.179      1.520
REMARK  Name = 
REMARK  5 active torsions:
REMARK  status: ('A' for Active; 'I' for Inactive)
REMARK    1  A    between atoms: C_2  and  C_5
REMARK    2  A    between atoms: C_5  and  O_6
REMARK    3  A    between atoms: O_6  and  C_7
REMARK    4  A    between atoms: C_12  and  C_13
REMARK    5  A    between atoms: C_18  and  C_19
REMARK                            x       y       z     vdW  Elec       q    Type
REMARK                         _______ _______ _______ _____ _____    ______ ____
ROOT
ATOM      1  C   UNL     1       4.102   5.781  17.835  0.00  0.00    +0.000 A 
ATOM      2  C   UNL     1       3.846   4.905  18.915  0.00  0.00    +0.000 A 
ATOM      3  C   UNL     1       2.895   5.179  19.901  0.00  0.00    +0.000 A 
ATOM      4  C   UNL     1       2.169   6.372  19.880  0.00  0.00    +0.000 A 
ATOM      5  C   UNL     1       2.423   7.297  18.852  0.00  0.00    +0.000 A 
ATOM      6  C   UNL     1       1.948   8.594  18.478  0.00  0.00    +0.000 A 
ATOM      7  N   UNL     1       2.557   9.002  17.350  0.00  0.00    +0.000 NA
ATOM      8  O   UNL     1       3.411   7.989  16.978  0.00  0.00    +0.000 OA
ATOM      9  C   UNL     1       3.356   6.972  17.880  0.00  0.00    +0.000 A 
ENDROOT
BRANCH   1  15
ATOM     10  C   UNL     1       6.266   6.107  16.555  0.00  0.00    +0.000 A 
ATOM     11  N   UNL     1       7.141   5.828  15.566  0.00  0.00    +0.000 NA
ATOM     12  C   UNL     1       6.774   4.861  14.720  0.00  0.00    +0.000 A 
ATOM     13  N   UNL     1       5.639   4.160  14.785  0.00  0.00    +0.000 NA
ATOM     14  C   UNL     1       4.802   4.487  15.795  0.00  0.00    +0.000 A 
ATOM     15  C   UNL     1       5.038   5.476  16.740  0.00  0.00    +0.000 A 
BRANCH  10  16
ATOM     16  O   UNL     1       6.628   7.094  17.450  0.00  0.00    +0.000 OA
BRANCH  16  17
ATOM     17  C   UNL     1       7.825   6.814  18.185  0.00  0.00    +0.000 C 
BRANCH  17  19
ATOM     18  F   UNL     1       7.805   4.414  18.364  0.00  0.00    +0.000 F 
ATOM     19  C   UNL     1       7.762   5.568  19.064  0.00  0.00    +0.000 C 
ATOM     20  F   UNL     1       6.651   5.553  19.835  0.00  0.00    +0.000 F 
ATOM     21  F   UNL     1       8.824   5.548  19.913  0.00  0.00    +0.000 F 
ENDBRANCH  17  19
ENDBRANCH  16  17
ENDBRANCH  10  16
ENDBRANCH   1  15
BRANCH   6  22
ATOM     22  C   UNL     1       0.962   9.428  19.160  0.00  0.00    +0.000 A 
ATOM     23  C   UNL     1      -0.017  10.122  18.453  0.00  0.00    +0.000 A 
ATOM     24  N   UNL     1      -0.946  10.914  19.057  0.00  0.00    +0.000 NA
ATOM     25  C   UNL     1      -0.851  10.984  20.403  0.00  0.00    +0.000 A 
ATOM     26  C   UNL     1       0.115  10.300  21.114  0.00  0.00    +0.000 A 
ATOM     27  N   UNL     1       1.037   9.509  20.515  0.00  0.00    +0.000 NA
ENDBRANCH   6  22
TORSDOF 5
ENDMDL
MODEL 3
REMARK VINA RESULT:      -8.2      0.552      1.190
REMARK  Name = 
REMARK  5 active torsions:
REMARK  status: ('A' for Active; 'I' for Inactive)
REMARK    1  A    between atoms: C_2  and  C_5
REMARK    2  A    between atoms: C_5  and  O_6
REMARK    3  A    between atoms: O_6  and  C_7
REMARK    4  A    between atoms: C_12  and  C_13
REMARK    5  A    between atoms: C_18  and  C_19
REMARK                            x       y       z     vdW  Elec       q    Type
REMARK                         _______ _______ _______ _____ _____    ______ ____
ROOT
ATOM      1  C   UNL     1       4.713   4.731  16.695  0.00  0.00    +0.000 A 
ATOM      2  C   UNL     1       4.354   3.596  17.459  0.00  0.00    +0.000 A 
ATOM      3  C   UNL     1       3.431   3.651  18.506  0.00  0.00    +0.000 A 
ATOM      4  C   UNL     1       2.841   4.862  18.873  0.00  0.00    +0.000 A 
ATOM      5  C   UNL     1       3.203   6.028  18.174  0.00  0.00    +0.000 A 
ATOM      6  C   UNL     1       2.876   7.420  18.231  0.00  0.00    +0.000 A 
ATOM      7  N   UNL     1       3.535   8.089  17.267  0.00  0.00    +0.000 NA
ATOM      8  O   UNL     1       4.275   7.156  16.579  0.00  0.00    +0.000 OA
ATOM      9  C   UNL     1       4.102   5.922  17.125  0.00  0.00    +0.000 A 
ENDROOT
BRANCH   1  15
ATOM     10  C   UNL     1       6.896   5.238  15.508  0.00  0.00    +0.000 A 
ATOM     11  N   UNL     1       7.743   5.189  14.459  0.00  0.00    +0.000 NA
ATOM     12  C   UNL     1       7.294   4.540  13.380  0.00  0.00    +0.000 A 
ATOM     13  N   UNL     1       6.104   3.942  13.269  0.00  0.00    +0.000 NA
ATOM     14  C   UNL     1       5.299   4.030  14.352  0.00  0.00    +0.000 A 
ATOM     15  C   UNL     1       5.619   4.681  15.535  0.00  0.00    +0.000 A 
BRANCH  10  16
ATOM     16  O   UNL     1       7.340   5.893  16.640  0.00  0.00    +0.000 OA
BRANCH  16  17
ATOM     17  C   UNL     1       7.653   5.027  17.737  0.00  0.00    +0.000 C 
BRANCH  17  19
ATOM     18  F   UNL     1       8.152   7.026  18.981  0.00  0.00    +0.000 F 
ATOM     19  C   UNL     1       7.802   5.725  19.085  0.00  0.00    +0.000 C 
ATOM     20  F   UNL     1       8.710   5.106  19.874  0.00  0.00    +0.000 F 
ATOM     21  F   UNL     1       6.620   5.693  19.755  0.00  0.00    +0.000 F 
ENDBRANCH  17  19
ENDBRANCH  16  17
ENDBRANCH  10  16
ENDBRANCH   1  15
BRANCH   6  22
ATOM     22  C   UNL     1       1.981   8.102  19.162  0.00  0.00    +0.000 A 
ATOM     23  C   UNL     1       1.791   7.638  20.461  0.00  0.00    +0.000 A 
ATOM     24  N   UNL     1       0.959   8.245  21.351  0.00  0.00    +0.000 NA
ATOM     25  C   UNL     1       0.321   9.340  20.883  0.00  0.00    +0.000 A 
ATOM     26  C   UNL     1       0.502   9.811  19.598  0.00  0.00    +0.000 A 
ATOM     27  N   UNL     1       1.332   9.209  18.712  0.00  0.00    +0.000 NA
ENDBRANCH   6  22
TORSDOF 5
ENDMDL
MODEL 4
REMARK VINA RESULT:      -8.1      1.104      1.641
REMARK  Name = 
REMARK  5 active torsions:
REMARK  status: ('A' for Active; 'I' for Inactive)
REMARK    1  A    between atoms: C_2  and  C_5
REMARK    2  A    between atoms: C_5  and  O_6
REMARK    3  A    between atoms: O_6  and  C_7
REMARK    4  A    between atoms: C_12  and  C_13
REMARK    5  A    between atoms: C_18  and  C_19
REMARK                            x       y       z     vdW  Elec       q    Type
REMARK                         _______ _______ _______ _____ _____    ______ ____
ROOT
ATOM      1  C   UNL     1       4.126   5.461  17.678  0.00  0.00    +0.000 A 
ATOM      2  C   UNL     1       3.786   4.472  18.630  0.00  0.00    +0.000 A 
ATOM      3  C   UNL     1       2.817   4.674  19.616  0.00  0.00    +0.000 A 
ATOM      4  C   UNL     1       2.158   5.900  19.728  0.00  0.00    +0.000 A 
ATOM      5  C   UNL     1       2.497   6.931  18.835  0.00  0.00    +0.000 A 
ATOM      6  C   UNL     1       2.106   8.291  18.617  0.00  0.00    +0.000 A 
ATOM      7  N   UNL     1       2.774   8.802  17.567  0.00  0.00    +0.000 NA
ATOM      8  O   UNL     1       3.585   7.796  17.092  0.00  0.00    +0.000 OA
ATOM      9  C   UNL     1       3.444   6.678  17.855  0.00  0.00    +0.000 A 
ENDROOT
BRANCH   1  15
ATOM     10  C   UNL     1       6.265   5.959  16.411  0.00  0.00    +0.000 A 
ATOM     11  N   UNL     1       7.157   5.761  15.419  0.00  0.00    +0.000 NA
ATOM     12  C   UNL     1       6.857   4.789  14.552  0.00  0.00    +0.000 A 
ATOM     13  N   UNL     1       5.772   4.011  14.599  0.00  0.00    +0.000 NA
ATOM     14  C   UNL     1       4.913   4.261  15.614  0.00  0.00    +0.000 A 
ATOM     15  C   UNL     1       5.082   5.243  16.580  0.00  0.00    +0.000 A 
BRANCH  10  16
ATOM     16  O   UNL     1       6.558   6.950  17.327  0.00  0.00    +0.000 OA
BRANCH  16  17
ATOM     17  C   UNL     1       7.759   6.725  18.074  0.00  0.00    +0.000 C 
BRANCH  17  19
ATOM     18  F   UNL     1       6.570   5.528  19.790  0.00  0.00    +0.000 F 
ATOM     19  C   UNL     1       7.699   5.553  19.051  0.00  0.00    +0.000 C 
ATOM     20  F   UNL     1       8.756   5.549  19.894  0.00  0.00    +0.000 F 
ATOM     21  F   UNL     1       7.743   4.379  18.367  0.00  0.00    +0.000 F 
ENDBRANCH  17  19
ENDBRANCH  16  17
ENDBRANCH  10  16
ENDBRANCH   1  15
BRANCH   6  22
ATOM     22  C   UNL     1       1.143   9.088  19.372  0.00  0.00    +0.000 A 
ATOM     23  C   UNL     1       1.048   8.994  20.757  0.00  0.00    +0.000 A 
ATOM     24  N   UNL     1       0.156   9.715  21.491  0.00  0.00    +0.000 NA
ATOM     25  C   UNL     1      -0.641  10.538  20.774  0.00  0.00    +0.000 A 
ATOM     26  C   UNL     1      -0.556  10.640  19.399  0.00  0.00    +0.000 A 
ATOM     27  N   UNL     1       0.332   9.924  18.670  0.00  0.00    +0.000 NA
ENDBRANCH   6  22
TORSDOF 5
ENDMDL
MODEL 5
REMARK VINA RESULT:      -8.1      3.027      4.154
REMARK  Name = 
REMARK  5 active torsions:
REMARK  status: ('A' for Active; 'I' for Inactive)
REMARK    1  A    between atoms: C_2  and  C_5
REMARK    2  A    between atoms: C_5  and  O_6
REMARK    3  A    between atoms: O_6  and  C_7
REMARK    4  A    between atoms: C_12  and  C_13
REMARK    5  A    between atoms: C_18  and  C_19
REMARK                            x       y       z     vdW  Elec       q    Type
REMARK                         _______ _______ _______ _____ _____    ______ ____
ROOT
ATOM      1  C   UNL     1       3.436   6.032  18.885  0.00  0.00    +0.000 A 
ATOM      2  C   UNL     1       3.043   5.488  20.130  0.00  0.00    +0.000 A 
ATOM      3  C   UNL     1       2.074   6.082  20.942  0.00  0.00    +0.000 A 
ATOM      4  C   UNL     1       1.468   7.283  20.568  0.00  0.00    +0.000 A 
ATOM      5  C   UNL     1       1.860   7.888  19.361  0.00  0.00    +0.000 A 
ATOM      6  C   UNL     1       1.531   9.079  18.638  0.00  0.00    +0.000 A 
ATOM      7  N   UNL     1       2.232   9.132  17.490  0.00  0.00    +0.000 NA
ATOM      8  O   UNL     1       3.002   7.993  17.450  0.00  0.00    +0.000 OA
ATOM      9  C   UNL     1       2.805   7.250  18.573  0.00  0.00    +0.000 A 
ENDROOT
BRANCH   1  15
ATOM     10  C   UNL     1       4.066   4.354  17.092  0.00  0.00    +0.000 A 
ATOM     11  N   UNL     1       4.927   3.758  16.241  0.00  0.00    +0.000 NA
ATOM     12  C   UNL     1       6.181   4.220  16.265  0.00  0.00    +0.000 A 
ATOM     13  N   UNL     1       6.632   5.209  17.042  0.00  0.00    +0.000 NA
ATOM     14  C   UNL     1       5.723   5.763  17.875  0.00  0.00    +0.000 A 
ATOM     15  C   UNL     1       4.392   5.382  17.974  0.00  0.00    +0.000 A 
BRANCH  10  16
ATOM     16  O   UNL     1       2.761   3.903  17.077  0.00  0.00    +0.000 OA
BRANCH  16  17
ATOM     17  C   UNL     1       2.564   2.647  17.738  0.00  0.00    +0.000 C 
BRANCH  17  19
ATOM     18  F   UNL     1       0.467   1.697  18.439  0.00  0.00    +0.000 F 
ATOM     19  C   UNL     1       1.409   2.619  18.735  0.00  0.00    +0.000 C 
ATOM     20  F   UNL     1       0.803   3.824  18.835  0.00  0.00    +0.000 F 
ATOM     21  F   UNL     1       1.876   2.314  19.974  0.00  0.00    +0.000 F 
ENDBRANCH  17  19
ENDBRANCH  16  17
ENDBRANCH  10  16
ENDBRANCH   1  15
BRANCH   6  22
ATOM     22  C   UNL     1       0.596  10.136  19.013  0.00  0.00    +0.000 A 
ATOM     23  C   UNL     1      -0.611  10.312  18.341  0.00  0.00    +0.000 A 
ATOM     24  N   UNL     1      -1.500  11.293  18.659  0.00  0.00    +0.000 NA
ATOM     25  C   UNL     1      -1.128  12.093  19.682  0.00  0.00    +0.000 A 
ATOM     26  C   UNL     1       0.065  11.928  20.357  0.00  0.00    +0.000 A 
ATOM     27  N   UNL     1       0.950  10.951  20.042  0.00  0.00    +0.000 NA
ENDBRANCH   6  22
TORSDOF 5
ENDMDL
MODEL 6
REMARK VINA RESULT:      -8.0      1.768      2.239
REMARK  Name = 
REMARK  5 active torsions:
REMARK  status: ('A' for Active; 'I' for Inactive)
REMARK    1  A    between atoms: C_2  and  C_5
REMARK    2  A    between atoms: C_5  and  O_6
REMARK    3  A    between atoms: O_6  and  C_7
REMARK    4  A    between atoms: C_12  and  C_13
REMARK    5  A    between atoms: C_18  and  C_19
REMARK                            x       y       z     vdW  Elec       q    Type
REMARK                         _______ _______ _______ _____ _____    ______ ____
ROOT
ATOM      1  C   UNL     1       4.029   5.392  18.465  0.00  0.00    +0.000 A 
ATOM      2  C   UNL     1       3.596   4.631  19.575  0.00  0.00    +0.000 A 
ATOM      3  C   UNL     1       2.558   5.043  20.415  0.00  0.00    +0.000 A 
ATOM      4  C   UNL     1       1.918   6.267  20.210  0.00  0.00    +0.000 A 
ATOM      5  C   UNL     1       2.347   7.082  19.148  0.00  0.00    +0.000 A 
ATOM      6  C   UNL     1       2.002   8.365  18.615  0.00  0.00    +0.000 A 
ATOM      7  N   UNL     1       2.761   8.637  17.538  0.00  0.00    +0.000 NA
ATOM      8  O   UNL     1       3.584   7.550  17.354  0.00  0.00    +0.000 OA
ATOM      9  C   UNL     1       3.361   6.621  18.324  0.00  0.00    +0.000 A 
ENDROOT
BRANCH   1  15
ATOM     10  C   UNL     1       6.432   5.115  17.704  0.00  0.00    +0.000 A 
ATOM     11  N   UNL     1       7.391   4.694  16.854  0.00  0.00    +0.000 NA
ATOM     12  C   UNL     1       6.960   4.057  15.761  0.00  0.00    +0.000 A 
ATOM     13  N   UNL     1       5.684   3.802  15.461  0.00  0.00    +0.000 NA
ATOM     14  C   UNL     1       4.769   4.252  16.350  0.00  0.00    +0.000 A 
ATOM     15  C   UNL     1       5.063   4.941  17.518  0.00  0.00    +0.000 A 
BRANCH  10  16
ATOM     16  O   UNL     1       6.852   5.766  18.848  0.00  0.00    +0.000 OA
BRANCH  16  17
ATOM     17  C   UNL     1       8.044   6.542  18.679  0.00  0.00    +0.000 C 
BRANCH  17  19
ATOM     18  F   UNL     1       8.562   8.881  18.451  0.00  0.00    +0.000 F 
ATOM     19  C   UNL     1       7.854   7.857  17.928  0.00  0.00    +0.000 C 
ATOM     20  F   UNL     1       6.553   8.225  17.881  0.00  0.00    +0.000 F 
ATOM     21  F   UNL     1       8.266   7.717  16.640  0.00  0.00    +0.000 F 
ENDBRANCH  17  19
ENDBRANCH  16  17
ENDBRANCH  10  16
ENDBRANCH   1  15
BRANCH   6  22
ATOM     22  C   UNL     1       1.000   9.308  19.104  0.00  0.00    +0.000 A 
ATOM     23  C   UNL     1       0.862   9.585  20.461  0.00  0.00    +0.000 A 
ATOM     24  N   UNL     1      -0.066  10.452  20.951  0.00  0.00    +0.000 NA
ATOM     25  C   UNL     1      -0.855  11.032  20.020  0.00  0.00    +0.000 A 
ATOM     26  C   UNL     1      -0.727  10.767  18.671  0.00  0.00    +0.000 A 
ATOM     27  N   UNL     1       0.198   9.906  18.183  0.00  0.00    +0.000 NA
ENDBRANCH   6  22
TORSDOF 5
ENDMDL
MODEL 7
REMARK VINA RESULT:      -8.0      2.869      3.990
REMARK  Name = 
REMARK  5 active torsions:
REMARK  status: ('A' for Active; 'I' for Inactive)
REMARK    1  A    between atoms: C_2  and  C_5
REMARK    2  A    between atoms: C_5  and  O_6
REMARK    3  A    between atoms: O_6  and  C_7
REMARK    4  A    between atoms: C_12  and  C_13
REMARK    5  A    between atoms: C_18  and  C_19
REMARK                            x       y       z     vdW  Elec       q    Type
REMARK                         _______ _______ _______ _____ _____    ______ ____
ROOT
ATOM      1  C   UNL     1       2.805   6.409  18.674  0.00  0.00    +0.000 A 
ATOM      2  C   UNL     1       3.083   7.241  17.565  0.00  0.00    +0.000 A 
ATOM      3  C   UNL     1       2.694   8.582  17.510  0.00  0.00    +0.000 A 
ATOM      4  C   UNL     1       1.967   9.157  18.554  0.00  0.00    +0.000 A 
ATOM      5  C   UNL     1       1.625   8.357  19.658  0.00  0.00    +0.000 A 
ATOM      6  C   UNL     1       0.901   8.524  20.881  0.00  0.00    +0.000 A 
ATOM      7  N   UNL     1       0.914   7.378  21.587  0.00  0.00    +0.000 NA
ATOM      8  O   UNL     1       1.641   6.473  20.849  0.00  0.00    +0.000 OA
ATOM      9  C   UNL     1       2.055   7.039  19.683  0.00  0.00    +0.000 A 
ENDROOT
BRANCH   1  15
ATOM     10  C   UNL     1       4.529   4.650  19.277  0.00  0.00    +0.000 A 
ATOM     11  N   UNL     1       4.969   3.381  19.404  0.00  0.00    +0.000 NA
ATOM     12  C   UNL     1       4.109   2.427  19.034  0.00  0.00    +0.000 A 
ATOM     13  N   UNL     1       2.873   2.631  18.570  0.00  0.00    +0.000 NA
ATOM     14  C   UNL     1       2.491   3.924  18.461  0.00  0.00    +0.000 A 
ATOM     15  C   UNL     1       3.276   5.019  18.791  0.00  0.00    +0.000 A 
BRANCH  10  16
ATOM     16  O   UNL     1       5.394   5.654  19.663  0.00  0.00    +0.000 OA
BRANCH  16  17
ATOM     17  C   UNL     1       6.763   5.419  19.312  0.00  0.00    +0.000 C 
BRANCH  17  19
ATOM     18  F   UNL     1       8.346   7.050  18.520  0.00  0.00    +0.000 F 
ATOM     19  C   UNL     1       7.291   6.284  18.170  0.00  0.00    +0.000 C 
ATOM     20  F   UNL     1       6.330   7.093  17.668  0.00  0.00    +0.000 F 
ATOM     21  F   UNL     1       7.707   5.493  17.146  0.00  0.00    +0.000 F 
ENDBRANCH  17  19
ENDBRANCH  16  17
ENDBRANCH  10  16
ENDBRANCH   1  15
BRANCH   6  22
ATOM     22  C   UNL     1       0.214   9.716  21.370  0.00  0.00    +0.000 A 
ATOM     23  C   UNL     1       0.004   9.929  22.730  0.00  0.00    +0.000 A 
ATOM     24  N   UNL     1      -0.641  11.024  23.219  0.00  0.00    +0.000 NA
ATOM     25  C   UNL     1      -1.069  11.901  22.284  0.00  0.00    +0.000 A 
ATOM     26  C   UNL     1      -0.866  11.701  20.932  0.00  0.00    +0.000 A 
ATOM     27  N   UNL     1      -0.222  10.613  20.446  0.00  0.00    +0.000 NA
ENDBRANCH   6  22
TORSDOF 5
ENDMDL
MODEL 8
REMARK VINA RESULT:      -7.9      2.405      3.751
REMARK  Name = 
REMARK  5 active torsions:
REMARK  status: ('A' for Active; 'I' for Inactive)
REMARK    1  A    between atoms: C_2  and  C_5
REMARK    2  A    between atoms: C_5  and  O_6
REMARK    3  A    between atoms: O_6  and  C_7
REMARK    4  A    between atoms: C_12  and  C_13
REMARK    5  A    between atoms: C_18  and  C_19
REMARK                            x       y       z     vdW  Elec       q    Type
REMARK                         _______ _______ _______ _____ _____    ______ ____
ROOT
ATOM      1  C   UNL     1       2.231   6.316  19.319  0.00  0.00    +0.000 A 
ATOM      2  C   UNL     1       1.756   6.278  20.651  0.00  0.00    +0.000 A 
ATOM      3  C   UNL     1       1.227   7.398  21.296  0.00  0.00    +0.000 A 
ATOM      4  C   UNL     1       1.179   8.636  20.652  0.00  0.00    +0.000 A 
ATOM      5  C   UNL     1       1.685   8.736  19.344  0.00  0.00    +0.000 A 
ATOM      6  C   UNL     1       1.847   9.768  18.366  0.00  0.00    +0.000 A 
ATOM      7  N   UNL     1       2.391   9.260  17.244  0.00  0.00    +0.000 NA
ATOM      8  O   UNL     1       2.575   7.916  17.472  0.00  0.00    +0.000 OA
ATOM      9  C   UNL     1       2.175   7.593  18.732  0.00  0.00    +0.000 A 
ENDROOT
BRANCH   1  15
ATOM     10  C   UNL     1       4.054   4.757  18.497  0.00  0.00    +0.000 A 
ATOM     11  N   UNL     1       4.512   3.667  17.846  0.00  0.00    +0.000 NA
ATOM     12  C   UNL     1       3.582   2.905  17.263  0.00  0.00    +0.000 A 
ATOM     13  N   UNL     1       2.265   3.129  17.286  0.00  0.00    +0.000 NA
ATOM     14  C   UNL     1       1.868   4.238  17.950  0.00  0.00    +0.000 A 
ATOM     15  C   UNL     1       2.716   5.132  18.590  0.00  0.00    +0.000 A 
BRANCH  10  16
ATOM     16  O   UNL     1       4.994   5.555  19.118  0.00  0.00    +0.000 OA
BRANCH  16  17
ATOM     17  C   UNL     1       6.020   6.045  18.245  0.00  0.00    +0.000 C 
BRANCH  17  19
ATOM     18  F   UNL     1       8.266   6.870  18.499  0.00  0.00    +0.000 F 
ATOM     19  C   UNL     1       7.446   5.825  18.742  0.00  0.00    +0.000 C 
ATOM     20  F   UNL     1       8.001   4.718  18.198  0.00  0.00    +0.000 F 
ATOM     21  F   UNL     1       7.443   5.637  20.088  0.00  0.00    +0.000 F 
ENDBRANCH  17  19
ENDBRANCH  16  17
ENDBRANCH  10  16
ENDBRANCH   1  15
BRANCH   6  22
ATOM     22  C   UNL     1       1.512  11.184  18.480  0.00  0.00    +0.000 A 
ATOM     23  C   UNL     1       0.241  11.602  18.865  0.00  0.00    +0.000 A 
ATOM     24  N   UNL     1      -0.107  12.914  18.974  0.00  0.00    +0.000 NA
ATOM     25  C   UNL     1       0.875  13.793  18.677  0.00  0.00    +0.000 A 
ATOM     26  C   UNL     1       2.140  13.391  18.295  0.00  0.00    +0.000 A 
ATOM     27  N   UNL     1       2.487  12.086  18.189  0.00  0.00    +0.000 NA
ENDBRANCH   6  22
TORSDOF 5
ENDMDL
MODEL 9
REMARK VINA RESULT:      -7.9      2.455      3.849
REMARK  Name = 
REMARK  5 active torsions:
REMARK  status: ('A' for Active; 'I' for Inactive)
REMARK    1  A    between atoms: C_2  and  C_5
REMARK    2  A    between atoms: C_5  and  O_6
REMARK    3  A    between atoms: O_6  and  C_7
REMARK    4  A    between atoms: C_12  and  C_13
REMARK    5  A    between atoms: C_18  and  C_19
REMARK                            x       y       z     vdW  Elec       q    Type
REMARK                         _______ _______ _______ _____ _____    ______ ____
ROOT
ATOM      1  C   UNL     1       2.174   6.540  19.357  0.00  0.00    +0.000 A 
ATOM      2  C   UNL     1       1.702   6.479  20.689  0.00  0.00    +0.000 A 
ATOM      3  C   UNL     1       1.142   7.580  21.343  0.00  0.00    +0.000 A 
ATOM      4  C   UNL     1       1.058   8.820  20.707  0.00  0.00    +0.000 A 
ATOM      5  C   UNL     1       1.558   8.942  19.399  0.00  0.00    +0.000 A 
ATOM      6  C   UNL     1       1.690   9.985  18.427  0.00  0.00    +0.000 A 
ATOM      7  N   UNL     1       2.246   9.501  17.302  0.00  0.00    +0.000 NA
ATOM      8  O   UNL     1       2.468   8.161  17.520  0.00  0.00    +0.000 OA
ATOM      9  C   UNL     1       2.080   7.818  18.779  0.00  0.00    +0.000 A 
ENDROOT
BRANCH   1  15
ATOM     10  C   UNL     1       4.028   4.986  18.598  0.00  0.00    +0.000 A 
ATOM     11  N   UNL     1       4.514   3.913  17.940  0.00  0.00    +0.000 NA
ATOM     12  C   UNL     1       3.615   3.183  17.274  0.00  0.00    +0.000 A 
ATOM     13  N   UNL     1       2.301   3.423  17.221  0.00  0.00    +0.000 NA
ATOM     14  C   UNL     1       1.876   4.514  17.897  0.00  0.00    +0.000 A 
ATOM     15  C   UNL     1       2.691   5.374  18.620  0.00  0.00    +0.000 A 
BRANCH  10  16
ATOM     16  O   UNL     1       4.936   5.750  19.304  0.00  0.00    +0.000 OA
BRANCH  16  17
ATOM     17  C   UNL     1       6.289   5.289  19.216  0.00  0.00    +0.000 C 
BRANCH  17  19
ATOM     18  F   UNL     1       8.245   6.662  18.936  0.00  0.00    +0.000 F 
ATOM     19  C   UNL     1       7.190   6.110  18.299  0.00  0.00    +0.000 C 
ATOM     20  F   UNL     1       6.507   7.100  17.679  0.00  0.00    +0.000 F 
ATOM     21  F   UNL     1       7.698   5.316  17.319  0.00  0.00    +0.000 F 
ENDBRANCH  17  19
ENDBRANCH  16  17
ENDBRANCH  10  16
ENDBRANCH   1  15
BRANCH   6  22
ATOM     22  C   UNL     1       1.314  11.391  18.552  0.00  0.00    +0.000 A 
ATOM     23  C   UNL     1       2.258  12.408  18.445  0.00  0.00    +0.000 A 
ATOM     24  N   UNL     1       1.944  13.727  18.564  0.00  0.00    +0.000 NA
ATOM     25  C   UNL     1       0.638  13.986  18.798  0.00  0.00    +0.000 A 
ATOM     26  C   UNL     1      -0.308  12.985  18.906  0.00  0.00    +0.000 A 
ATOM     27  N   UNL     1       0.005  11.672  18.785  0.00  0.00    +0.000 NA
ENDBRANCH   6  22
TORSDOF 5
ENDMDL
