MODEL 1
REMARK VINA RESULT:      -7.9      0.000      0.000
REMARK  Name = 
REMARK  7 active torsions:
REMARK  status: ('A' for Active; 'I' for Inactive)
REMARK    1  A    between atoms: C_1  and  O_2
REMARK    2  A    between atoms: O_2  and  C_3
REMARK    3  A    between atoms: C_8  and  O_9
REMARK    4  A    between atoms: O_9  and  C_10
REMARK    5  A    between atoms: C_10  and  C_11
REMARK    6  A    between atoms: C_14  and  C_15
REMARK    7  A    between atoms: N_17  and  C_18
REMARK                            x       y       z     vdW  Elec       q    Type
REMARK                         _______ _______ _______ _____ _____    ______ ____
ROOT
ATOM      1  C   UNL     1       6.885   5.585  17.720  0.00  0.00    +0.000 A 
ATOM      2  C   UNL     1       6.543   6.684  16.930  0.00  0.00    +0.000 A 
ATOM      3  C   UNL     1       7.115   7.923  17.181  0.00  0.00    +0.000 A 
ATOM      4  C   UNL     1       8.031   8.095  18.232  0.00  0.00    +0.000 A 
ATOM      5  C   UNL     1       8.362   7.000  19.038  0.00  0.00    +0.000 A 
ATOM      6  C   UNL     1       7.791   5.750  18.775  0.00  0.00    +0.000 A 
ENDROOT
BRANCH   4   7
ATOM      7  C   UNL     1       8.542   9.476  18.424  0.00  0.00    +0.000 C 
ATOM      8  O   UNL     1       8.172  10.329  17.626  0.00  0.00    +0.000 OA
ATOM      9  N   UNL     1       9.430   9.701  19.469  0.00  0.00    +0.000 N 
ATOM     10  H   UNL     1       9.850   8.910  19.932  0.00  0.00    +0.000 HD
BRANCH   9  11
ATOM     11  C   UNL     1       9.926  10.974  19.825  0.00  0.00    +0.000 A 
ATOM     12  C   UNL     1       9.416  11.711  20.896  0.00  0.00    +0.000 A 
ATOM     13  C   UNL     1       9.914  12.977  21.191  0.00  0.00    +0.000 A 
ATOM     14  C   UNL     1      10.939  13.516  20.425  0.00  0.00    +0.000 A 
ATOM     15  C   UNL     1      11.479  12.780  19.374  0.00  0.00    +0.000 A 
ATOM     16  C   UNL     1      10.981  11.506  19.077  0.00  0.00    +0.000 A 
ENDBRANCH   9  11
ENDBRANCH   4   7
BRANCH   1  17
ATOM     17  C   UNL     1       6.207   4.264  17.466  0.00  0.00    +0.000 C 
BRANCH  17  18
ATOM     18  O   UNL     1       5.500   3.849  18.626  0.00  0.00    +0.000 OA
BRANCH  18  24
ATOM     19  C   UNL     1       3.178   4.763  18.810  0.00  0.00    +0.000 A 
ATOM     20  C   UNL     1       1.822   4.492  18.579  0.00  0.00    +0.000 A 
ATOM     21  C   UNL     1       1.401   3.226  18.192  0.00  0.00    +0.000 A 
ATOM     22  C   UNL     1       2.339   2.228  17.961  0.00  0.00    +0.000 A 
ATOM     23  C   UNL     1       3.698   2.510  18.098  0.00  0.00    +0.000 A 
ATOM     24  C   UNL     1       4.133   3.773  18.523  0.00  0.00    +0.000 A 
BRANCH  19  26
ATOM     25  C   UNL     1       2.519   6.955  19.427  0.00  0.00    +0.000 C 
ATOM     26  O   UNL     1       3.562   5.992  19.275  0.00  0.00    +0.000 OA
ENDBRANCH  19  26
ENDBRANCH  18  24
ENDBRANCH  17  18
ENDBRANCH   1  17
TORSDOF 6
ENDMDL
MODEL 2
REMARK VINA RESULT:      -7.8      0.307      1.396
REMARK  Name = 
REMARK  7 active torsions:
REMARK  status: ('A' for Active; 'I' for Inactive)
REMARK    1  A    between atoms: C_1  and  O_2
REMARK    2  A    between atoms: O_2  and  C_3
REMARK    3  A    between atoms: C_8  and  O_9
REMARK    4  A    between atoms: O_9  and  C_10
REMARK    5  A    between atoms: C_10  and  C_11
REMARK    6  A    between atoms: C_14  and  C_15
REMARK    7  A    between atoms: N_17  and  C_18
REMARK                            x       y       z     vdW  Elec       q    Type
REMARK                         _______ _______ _______ _____ _____    ______ ____
ROOT
ATOM      1  C   UNL     1       6.792   5.588  17.877  0.00  0.00    +0.000 A 
ATOM      2  C   UNL     1       7.801   5.878  18.796  0.00  0.00    +0.000 A 
ATOM      3  C   UNL     1       8.301   7.170  18.892  0.00  0.00    +0.000 A 
ATOM      4  C   UNL     1       7.812   8.195  18.065  0.00  0.00    +0.000 A 
ATOM      5  C   UNL     1       6.812   7.903  17.130  0.00  0.00    +0.000 A 
ATOM      6  C   UNL     1       6.304   6.602  17.044  0.00  0.00    +0.000 A 
ENDROOT
BRANCH   4   7
ATOM      7  C   UNL     1       8.454   9.523  18.235  0.00  0.00    +0.000 C 
ATOM      8  O   UNL     1       8.165  10.395  17.424  0.00  0.00    +0.000 OA
ATOM      9  N   UNL     1       9.362   9.678  19.275  0.00  0.00    +0.000 N 
ATOM     10  H   UNL     1       9.705   8.857  19.751  0.00  0.00    +0.000 HD
BRANCH   9  11
ATOM     11  C   UNL     1       9.979  10.903  19.610  0.00  0.00    +0.000 A 
ATOM     12  C   UNL     1      11.075  11.412  18.911  0.00  0.00    +0.000 A 
ATOM     13  C   UNL     1      11.672  12.610  19.296  0.00  0.00    +0.000 A 
ATOM     14  C   UNL     1      11.170  13.319  20.379  0.00  0.00    +0.000 A 
ATOM     15  C   UNL     1      10.059  12.839  21.066  0.00  0.00    +0.000 A 
ATOM     16  C   UNL     1       9.455  11.637  20.678  0.00  0.00    +0.000 A 
ENDBRANCH   9  11
ENDBRANCH   4   7
BRANCH   1  17
ATOM     17  C   UNL     1       6.307   4.167  17.751  0.00  0.00    +0.000 C 
BRANCH  17  18
ATOM     18  O   UNL     1       5.511   3.823  18.877  0.00  0.00    +0.000 OA
BRANCH  18  24
ATOM     19  C   UNL     1       3.170   4.705  18.828  0.00  0.00    +0.000 A 
ATOM     20  C   UNL     1       1.841   4.400  18.504  0.00  0.00    +0.000 A 
ATOM     21  C   UNL     1       1.468   3.109  18.151  0.00  0.00    +0.000 A 
ATOM     22  C   UNL     1       2.435   2.117  18.046  0.00  0.00    +0.000 A 
ATOM     23  C   UNL     1       3.775   2.429  18.276  0.00  0.00    +0.000 A 
ATOM     24  C   UNL     1       4.158   3.718  18.669  0.00  0.00    +0.000 A 
BRANCH  19  26
ATOM     25  C   UNL     1       3.010   7.042  18.463  0.00  0.00    +0.000 C 
ATOM     26  O   UNL     1       3.499   5.963  19.258  0.00  0.00    +0.000 OA
ENDBRANCH  19  26
ENDBRANCH  18  24
ENDBRANCH  17  18
ENDBRANCH   1  17
TORSDOF 6
ENDMDL
MODEL 3
REMARK VINA RESULT:      -7.7      5.504      8.491
REMARK  Name = 
REMARK  7 active torsions:
REMARK  status: ('A' for Active; 'I' for Inactive)
REMARK    1  A    between atoms: C_1  and  O_2
REMARK    2  A    between atoms: O_2  and  C_3
REMARK    3  A    between atoms: C_8  and  O_9
REMARK    4  A    between atoms: O_9  and  C_10
REMARK    5  A    between atoms: C_10  and  C_11
REMARK    6  A    between atoms: C_14  and  C_15
REMARK    7  A    between atoms: N_17  and  C_18
REMARK                            x       y       z     vdW  Elec       q    Type
REMARK                         _______ _______ _______ _____ _____    ______ ____
ROOT
ATOM      1  C   UNL     1       1.811   8.143  19.347  0.00  0.00    +0.000 A 
ATOM      2  C   UNL     1       1.666   7.722  20.670  0.00  0.00    +0.000 A 
ATOM      3  C   UNL     1       0.974   8.514  21.577  0.00  0.00    +0.000 A 
ATOM      4  C   UNL     1       0.425   9.746  21.186  0.00  0.00    +0.000 A 
ATOM      5  C   UNL     1       0.584  10.179  19.865  0.00  0.00    +0.000 A 
ATOM      6  C   UNL     1       1.273   9.373  18.951  0.00  0.00    +0.000 A 
ENDROOT
BRANCH   4   7
ATOM      7  C   UNL     1      -0.256  10.518  22.256  0.00  0.00    +0.000 C 
ATOM      8  O   UNL     1      -0.049  10.177  23.415  0.00  0.00    +0.000 OA
ATOM      9  N   UNL     1      -1.106  11.549  21.874  0.00  0.00    +0.000 N 
ATOM     10  H   UNL     1      -1.389  11.616  20.908  0.00  0.00    +0.000 HD
BRANCH   9  11
ATOM     11  C   UNL     1      -1.748  12.422  22.780  0.00  0.00    +0.000 A 
ATOM     12  C   UNL     1      -3.008  12.155  23.320  0.00  0.00    +0.000 A 
ATOM     13  C   UNL     1      -3.617  13.059  24.186  0.00  0.00    +0.000 A 
ATOM     14  C   UNL     1      -2.966  14.236  24.532  0.00  0.00    +0.000 A 
ATOM     15  C   UNL     1      -1.697  14.500  24.025  0.00  0.00    +0.000 A 
ATOM     16  C   UNL     1      -1.081  13.591  23.156  0.00  0.00    +0.000 A 
ENDBRANCH   9  11
ENDBRANCH   4   7
BRANCH   1  17
ATOM     17  C   UNL     1       2.615   7.294  18.397  0.00  0.00    +0.000 C 
BRANCH  17  18
ATOM     18  O   UNL     1       3.379   6.341  19.123  0.00  0.00    +0.000 OA
BRANCH  18  24
ATOM     19  C   UNL     1       4.221   4.008  18.799  0.00  0.00    +0.000 A 
ATOM     20  C   UNL     1       3.867   2.710  18.402  0.00  0.00    +0.000 A 
ATOM     21  C   UNL     1       2.627   2.448  17.836  0.00  0.00    +0.000 A 
ATOM     22  C   UNL     1       1.690   3.468  17.723  0.00  0.00    +0.000 A 
ATOM     23  C   UNL     1       1.996   4.743  18.199  0.00  0.00    +0.000 A 
ATOM     24  C   UNL     1       3.257   5.029  18.738  0.00  0.00    +0.000 A 
BRANCH  19  26
ATOM     25  C   UNL     1       6.430   4.716  18.311  0.00  0.00    +0.000 C 
ATOM     26  O   UNL     1       5.480   4.260  19.273  0.00  0.00    +0.000 OA
ENDBRANCH  19  26
ENDBRANCH  18  24
ENDBRANCH  17  18
ENDBRANCH   1  17
TORSDOF 6
ENDMDL
MODEL 4
REMARK VINA RESULT:      -7.6      5.659      8.717
REMARK  Name = 
REMARK  7 active torsions:
REMARK  status: ('A' for Active; 'I' for Inactive)
REMARK    1  A    between atoms: C_1  and  O_2
REMARK    2  A    between atoms: O_2  and  C_3
REMARK    3  A    between atoms: C_8  and  O_9
REMARK    4  A    between atoms: O_9  and  C_10
REMARK    5  A    between atoms: C_10  and  C_11
REMARK    6  A    between atoms: C_14  and  C_15
REMARK    7  A    between atoms: N_17  and  C_18
REMARK                            x       y       z     vdW  Elec       q    Type
REMARK                         _______ _______ _______ _____ _____    ______ ____
ROOT
ATOM      1  C   UNL     1       1.720   8.439  19.269  0.00  0.00    +0.000 A 
ATOM      2  C   UNL     1       1.090   9.665  19.054  0.00  0.00    +0.000 A 
ATOM      3  C   UNL     1       0.466  10.318  20.108  0.00  0.00    +0.000 A 
ATOM      4  C   UNL     1       0.447   9.754  21.395  0.00  0.00    +0.000 A 
ATOM      5  C   UNL     1       1.062   8.516  21.610  0.00  0.00    +0.000 A 
ATOM      6  C   UNL     1       1.700   7.866  20.547  0.00  0.00    +0.000 A 
ENDROOT
BRANCH   4   7
ATOM      7  C   UNL     1      -0.286  10.528  22.428  0.00  0.00    +0.000 C 
ATOM      8  O   UNL     1      -0.134  10.191  23.597  0.00  0.00    +0.000 OA
ATOM      9  N   UNL     1      -1.120  11.555  22.002  0.00  0.00    +0.000 N 
ATOM     10  H   UNL     1      -1.356  11.619  21.024  0.00  0.00    +0.000 HD
BRANCH   9  11
ATOM     11  C   UNL     1      -1.806  12.429  22.873  0.00  0.00    +0.000 A 
ATOM     12  C   UNL     1      -3.085  12.154  23.365  0.00  0.00    +0.000 A 
ATOM     13  C   UNL     1      -3.738  13.060  24.197  0.00  0.00    +0.000 A 
ATOM     14  C   UNL     1      -3.113  14.247  24.557  0.00  0.00    +0.000 A 
ATOM     15  C   UNL     1      -1.828  14.520  24.100  0.00  0.00    +0.000 A 
ATOM     16  C   UNL     1      -1.168  13.609  23.265  0.00  0.00    +0.000 A 
ENDBRANCH   9  11
ENDBRANCH   4   7
BRANCH   1  17
ATOM     17  C   UNL     1       2.340   7.722  18.097  0.00  0.00    +0.000 C 
BRANCH  17  18
ATOM     18  O   UNL     1       2.748   6.418  18.486  0.00  0.00    +0.000 OA
BRANCH  18  24
ATOM     19  C   UNL     1       3.805   4.385  17.482  0.00  0.00    +0.000 A 
ATOM     20  C   UNL     1       4.721   3.928  16.523  0.00  0.00    +0.000 A 
ATOM     21  C   UNL     1       5.533   4.816  15.829  0.00  0.00    +0.000 A 
ATOM     22  C   UNL     1       5.392   6.183  16.033  0.00  0.00    +0.000 A 
ATOM     23  C   UNL     1       4.421   6.655  16.916  0.00  0.00    +0.000 A 
ATOM     24  C   UNL     1       3.621   5.768  17.650  0.00  0.00    +0.000 A 
BRANCH  19  26
ATOM     25  C   UNL     1       3.348   2.109  17.964  0.00  0.00    +0.000 C 
ATOM     26  O   UNL     1       3.077   3.487  18.217  0.00  0.00    +0.000 OA
ENDBRANCH  19  26
ENDBRANCH  18  24
ENDBRANCH  17  18
ENDBRANCH   1  17
TORSDOF 6
ENDMDL
MODEL 5
REMARK VINA RESULT:      -7.6      4.406      7.437
REMARK  Name = 
REMARK  7 active torsions:
REMARK  status: ('A' for Active; 'I' for Inactive)
REMARK    1  A    between atoms: C_1  and  O_2
REMARK    2  A    between atoms: O_2  and  C_3
REMARK    3  A    between atoms: C_8  and  O_9
REMARK    4  A    between atoms: O_9  and  C_10
REMARK    5  A    between atoms: C_10  and  C_11
REMARK    6  A    between atoms: C_14  and  C_15
REMARK    7  A    between atoms: N_17  and  C_18
REMARK                            x       y       z     vdW  Elec       q    Type
REMARK                         _______ _______ _______ _____ _____    ______ ____
ROOT
ATOM      1  C   UNL     1       2.310   5.812  18.976  0.00  0.00    +0.000 A 
ATOM      2  C   UNL     1       1.865   5.696  20.293  0.00  0.00    +0.000 A 
ATOM      3  C   UNL     1       1.487   6.830  21.000  0.00  0.00    +0.000 A 
ATOM      4  C   UNL     1       1.557   8.103  20.411  0.00  0.00    +0.000 A 
ATOM      5  C   UNL     1       2.020   8.225  19.096  0.00  0.00    +0.000 A 
ATOM      6  C   UNL     1       2.389   7.079  18.383  0.00  0.00    +0.000 A 
ENDROOT
BRANCH   4   7
ATOM      7  C   UNL     1       1.164   9.240  21.281  0.00  0.00    +0.000 C 
ATOM      8  O   UNL     1       1.646   9.279  22.408  0.00  0.00    +0.000 OA
ATOM      9  N   UNL     1       0.254  10.161  20.777  0.00  0.00    +0.000 N 
ATOM     10  H   UNL     1      -0.256   9.935  19.937  0.00  0.00    +0.000 HD
BRANCH   9  11
ATOM     11  C   UNL     1      -0.140  11.336  21.455  0.00  0.00    +0.000 A 
ATOM     12  C   UNL     1       0.426  12.585  21.192  0.00  0.00    +0.000 A 
ATOM     13  C   UNL     1       0.029  13.712  21.907  0.00  0.00    +0.000 A 
ATOM     14  C   UNL     1      -0.950  13.603  22.886  0.00  0.00    +0.000 A 
ATOM     15  C   UNL     1      -1.545  12.370  23.136  0.00  0.00    +0.000 A 
ATOM     16  C   UNL     1      -1.149  11.237  22.416  0.00  0.00    +0.000 A 
ENDBRANCH   9  11
ENDBRANCH   4   7
BRANCH   1  17
ATOM     17  C   UNL     1       2.769   4.575  18.249  0.00  0.00    +0.000 C 
BRANCH  17  18
ATOM     18  O   UNL     1       4.083   4.228  18.663  0.00  0.00    +0.000 OA
BRANCH  18  24
ATOM     19  C   UNL     1       6.445   4.583  17.919  0.00  0.00    +0.000 A 
ATOM     20  C   UNL     1       7.304   4.592  16.811  0.00  0.00    +0.000 A 
ATOM     21  C   UNL     1       6.808   4.483  15.519  0.00  0.00    +0.000 A 
ATOM     22  C   UNL     1       5.447   4.290  15.317  0.00  0.00    +0.000 A 
ATOM     23  C   UNL     1       4.592   4.186  16.414  0.00  0.00    +0.000 A 
ATOM     24  C   UNL     1       5.076   4.332  17.722  0.00  0.00    +0.000 A 
BRANCH  19  26
ATOM     25  C   UNL     1       7.892   5.841  19.313  0.00  0.00    +0.000 C 
ATOM     26  O   UNL     1       6.946   4.780  19.177  0.00  0.00    +0.000 OA
ENDBRANCH  19  26
ENDBRANCH  18  24
ENDBRANCH  17  18
ENDBRANCH   1  17
TORSDOF 6
ENDMDL
MODEL 6
REMARK VINA RESULT:      -7.6      5.980      8.610
REMARK  Name = 
REMARK  7 active torsions:
REMARK  status: ('A' for Active; 'I' for Inactive)
REMARK    1  A    between atoms: C_1  and  O_2
REMARK    2  A    between atoms: O_2  and  C_3
REMARK    3  A    between atoms: C_8  and  O_9
REMARK    4  A    between atoms: O_9  and  C_10
REMARK    5  A    between atoms: C_10  and  C_11
REMARK    6  A    between atoms: C_14  and  C_15
REMARK    7  A    between atoms: N_17  and  C_18
REMARK                            x       y       z     vdW  Elec       q    Type
REMARK                         _______ _______ _______ _____ _____    ______ ____
ROOT
ATOM      1  C   UNL     1       1.715   8.288  19.409  0.00  0.00    +0.000 A 
ATOM      2  C   UNL     1       1.585   7.856  20.730  0.00  0.00    +0.000 A 
ATOM      3  C   UNL     1       0.887   8.630  21.647  0.00  0.00    +0.000 A 
ATOM      4  C   UNL     1       0.314   9.856  21.267  0.00  0.00    +0.000 A 
ATOM      5  C   UNL     1       0.458  10.300  19.948  0.00  0.00    +0.000 A 
ATOM      6  C   UNL     1       1.153   9.512  19.024  0.00  0.00    +0.000 A 
ENDROOT
BRANCH   4   7
ATOM      7  C   UNL     1      -0.371  10.610  22.346  0.00  0.00    +0.000 C 
ATOM      8  O   UNL     1      -0.147  10.268  23.502  0.00  0.00    +0.000 OA
ATOM      9  N   UNL     1      -1.246  11.625  21.977  0.00  0.00    +0.000 N 
ATOM     10  H   UNL     1      -1.539  11.690  21.014  0.00  0.00    +0.000 HD
BRANCH   9  11
ATOM     11  C   UNL     1      -1.896  12.480  22.892  0.00  0.00    +0.000 A 
ATOM     12  C   UNL     1      -3.154  12.195  23.429  0.00  0.00    +0.000 A 
ATOM     13  C   UNL     1      -3.773  13.083  24.305  0.00  0.00    +0.000 A 
ATOM     14  C   UNL     1      -3.134  14.263  24.665  0.00  0.00    +0.000 A 
ATOM     15  C   UNL     1      -1.867  14.545  24.161  0.00  0.00    +0.000 A 
ATOM     16  C   UNL     1      -1.242  13.652  23.283  0.00  0.00    +0.000 A 
ENDBRANCH   9  11
ENDBRANCH   4   7
BRANCH   1  17
ATOM     17  C   UNL     1       2.526   7.459  18.447  0.00  0.00    +0.000 C 
BRANCH  17  18
ATOM     18  O   UNL     1       3.132   6.372  19.133  0.00  0.00    +0.000 OA
BRANCH  18  24
ATOM     19  C   UNL     1       2.016   4.135  19.055  0.00  0.00    +0.000 A 
ATOM     20  C   UNL     1       1.919   2.931  18.341  0.00  0.00    +0.000 A 
ATOM     21  C   UNL     1       2.784   2.648  17.292  0.00  0.00    +0.000 A 
ATOM     22  C   UNL     1       3.716   3.598  16.892  0.00  0.00    +0.000 A 
ATOM     23  C   UNL     1       3.762   4.836  17.533  0.00  0.00    +0.000 A 
ATOM     24  C   UNL     1       2.919   5.119  18.617  0.00  0.00    +0.000 A 
BRANCH  19  26
ATOM     25  C   UNL     1       1.486   3.558  21.292  0.00  0.00    +0.000 C 
ATOM     26  O   UNL     1       1.212   4.355  20.140  0.00  0.00    +0.000 OA
ENDBRANCH  19  26
ENDBRANCH  18  24
ENDBRANCH  17  18
ENDBRANCH   1  17
TORSDOF 6
ENDMDL
MODEL 7
REMARK VINA RESULT:      -7.5      5.772      8.521
REMARK  Name = 
REMARK  7 active torsions:
REMARK  status: ('A' for Active; 'I' for Inactive)
REMARK    1  A    between atoms: C_1  and  O_2
REMARK    2  A    between atoms: O_2  and  C_3
REMARK    3  A    between atoms: C_8  and  O_9
REMARK    4  A    between atoms: O_9  and  C_10
REMARK    5  A    between atoms: C_10  and  C_11
REMARK    6  A    between atoms: C_14  and  C_15
REMARK    7  A    between atoms: N_17  and  C_18
REMARK                            x       y       z     vdW  Elec       q    Type
REMARK                         _______ _______ _______ _____ _____    ______ ____
ROOT
ATOM      1  C   UNL     1       1.832   8.048  19.481  0.00  0.00    +0.000 A 
ATOM      2  C   UNL     1       1.646   7.655  20.807  0.00  0.00    +0.000 A 
ATOM      3  C   UNL     1       0.956   8.481  21.684  0.00  0.00    +0.000 A 
ATOM      4  C   UNL     1       0.448   9.720  21.259  0.00  0.00    +0.000 A 
ATOM      5  C   UNL     1       0.649  10.125  19.935  0.00  0.00    +0.000 A 
ATOM      6  C   UNL     1       1.336   9.285  19.051  0.00  0.00    +0.000 A 
ENDROOT
BRANCH   4   7
ATOM      7  C   UNL     1      -0.235  10.529  22.300  0.00  0.00    +0.000 C 
ATOM      8  O   UNL     1      -0.052  10.212  23.470  0.00  0.00    +0.000 OA
ATOM      9  N   UNL     1      -1.060  11.565  21.880  0.00  0.00    +0.000 N 
ATOM     10  H   UNL     1      -1.327  11.614  20.909  0.00  0.00    +0.000 HD
BRANCH   9  11
ATOM     11  C   UNL     1      -1.701  12.470  22.755  0.00  0.00    +0.000 A 
ATOM     12  C   UNL     1      -1.099  13.654  23.189  0.00  0.00    +0.000 A 
ATOM     13  C   UNL     1      -1.755  14.502  24.078  0.00  0.00    +0.000 A 
ATOM     14  C   UNL     1      -3.027  14.181  24.533  0.00  0.00    +0.000 A 
ATOM     15  C   UNL     1      -3.651  13.020  24.084  0.00  0.00    +0.000 A 
ATOM     16  C   UNL     1      -2.994  12.168  23.189  0.00  0.00    +0.000 A 
ENDBRANCH   9  11
ENDBRANCH   4   7
BRANCH   1  17
ATOM     17  C   UNL     1       2.634   7.162  18.564  0.00  0.00    +0.000 C 
BRANCH  17  18
ATOM     18  O   UNL     1       3.186   6.077  19.296  0.00  0.00    +0.000 OA
BRANCH  18  24
ATOM     19  C   UNL     1       3.847   4.028  18.022  0.00  0.00    +0.000 A 
ATOM     20  C   UNL     1       3.450   2.734  17.654  0.00  0.00    +0.000 A 
ATOM     21  C   UNL     1       2.170   2.272  17.929  0.00  0.00    +0.000 A 
ATOM     22  C   UNL     1       1.287   3.073  18.643  0.00  0.00    +0.000 A 
ATOM     23  C   UNL     1       1.699   4.326  19.095  0.00  0.00    +0.000 A 
ATOM     24  C   UNL     1       2.976   4.818  18.792  0.00  0.00    +0.000 A 
BRANCH  19  26
ATOM     25  C   UNL     1       5.277   4.742  16.271  0.00  0.00    +0.000 C 
ATOM     26  O   UNL     1       5.083   4.494  17.663  0.00  0.00    +0.000 OA
ENDBRANCH  19  26
ENDBRANCH  18  24
ENDBRANCH  17  18
ENDBRANCH   1  17
TORSDOF 6
ENDMDL
MODEL 8
REMARK VINA RESULT:      -7.5      2.013      9.283
REMARK  Name = 
REMARK  7 active torsions:
REMARK  status: ('A' for Active; 'I' for Inactive)
REMARK    1  A    between atoms: C_1  and  O_2
REMARK    2  A    between atoms: O_2  and  C_3
REMARK    3  A    between atoms: C_8  and  O_9
REMARK    4  A    between atoms: O_9  and  C_10
REMARK    5  A    between atoms: C_10  and  C_11
REMARK    6  A    between atoms: C_14  and  C_15
REMARK    7  A    between atoms: N_17  and  C_18
REMARK                            x       y       z     vdW  Elec       q    Type
REMARK                         _______ _______ _______ _____ _____    ______ ____
ROOT
ATOM      1  C   UNL     1       7.788   7.924  17.921  0.00  0.00    +0.000 A 
ATOM      2  C   UNL     1       6.514   7.845  17.356  0.00  0.00    +0.000 A 
ATOM      3  C   UNL     1       5.668   6.799  17.698  0.00  0.00    +0.000 A 
ATOM      4  C   UNL     1       6.079   5.805  18.602  0.00  0.00    +0.000 A 
ATOM      5  C   UNL     1       7.362   5.872  19.156  0.00  0.00    +0.000 A 
ATOM      6  C   UNL     1       8.209   6.933  18.817  0.00  0.00    +0.000 A 
ENDROOT
BRANCH   4   7
ATOM      7  C   UNL     1       5.100   4.719  18.856  0.00  0.00    +0.000 C 
ATOM      8  O   UNL     1       5.540   3.581  18.979  0.00  0.00    +0.000 OA
ATOM      9  N   UNL     1       3.752   5.055  18.903  0.00  0.00    +0.000 N 
ATOM     10  H   UNL     1       3.464   5.964  18.573  0.00  0.00    +0.000 HD
BRANCH   9  11
ATOM     11  C   UNL     1       2.721   4.146  19.223  0.00  0.00    +0.000 A 
ATOM     12  C   UNL     1       2.249   3.968  20.526  0.00  0.00    +0.000 A 
ATOM     13  C   UNL     1       1.251   3.036  20.801  0.00  0.00    +0.000 A 
ATOM     14  C   UNL     1       0.704   2.281  19.773  0.00  0.00    +0.000 A 
ATOM     15  C   UNL     1       1.142   2.470  18.465  0.00  0.00    +0.000 A 
ATOM     16  C   UNL     1       2.144   3.408  18.186  0.00  0.00    +0.000 A 
ENDBRANCH   9  11
ENDBRANCH   4   7
BRANCH   1  17
ATOM     17  C   UNL     1       8.709   9.035  17.490  0.00  0.00    +0.000 C 
BRANCH  17  18
ATOM     18  O   UNL     1       8.475  10.194  18.278  0.00  0.00    +0.000 OA
BRANCH  18  24
ATOM     19  C   UNL     1       9.899  11.189  20.078  0.00  0.00    +0.000 A 
ATOM     20  C   UNL     1      11.120  11.822  20.349  0.00  0.00    +0.000 A 
ATOM     21  C   UNL     1      11.956  12.236  19.320  0.00  0.00    +0.000 A 
ATOM     22  C   UNL     1      11.617  11.957  18.002  0.00  0.00    +0.000 A 
ATOM     23  C   UNL     1      10.450  11.246  17.723  0.00  0.00    +0.000 A 
ATOM     24  C   UNL     1       9.580  10.856  18.750  0.00  0.00    +0.000 A 
BRANCH  19  26
ATOM     25  C   UNL     1       8.664  11.947  21.954  0.00  0.00    +0.000 C 
ATOM     26  O   UNL     1       9.050  10.868  21.103  0.00  0.00    +0.000 OA
ENDBRANCH  19  26
ENDBRANCH  18  24
ENDBRANCH  17  18
ENDBRANCH   1  17
TORSDOF 6
ENDMDL
MODEL 9
REMARK VINA RESULT:      -7.5      0.753      1.218
REMARK  Name = 
REMARK  7 active torsions:
REMARK  status: ('A' for Active; 'I' for Inactive)
REMARK    1  A    between atoms: C_1  and  O_2
REMARK    2  A    between atoms: O_2  and  C_3
REMARK    3  A    between atoms: C_8  and  O_9
REMARK    4  A    between atoms: O_9  and  C_10
REMARK    5  A    between atoms: C_10  and  C_11
REMARK    6  A    between atoms: C_14  and  C_15
REMARK    7  A    between atoms: N_17  and  C_18
REMARK                            x       y       z     vdW  Elec       q    Type
REMARK                         _______ _______ _______ _____ _____    ______ ____
ROOT
ATOM      1  C   UNL     1       6.565   5.533  17.652  0.00  0.00    +0.000 A 
ATOM      2  C   UNL     1       7.661   5.729  18.494  0.00  0.00    +0.000 A 
ATOM      3  C   UNL     1       8.192   7.001  18.656  0.00  0.00    +0.000 A 
ATOM      4  C   UNL     1       7.649   8.101  17.972  0.00  0.00    +0.000 A 
ATOM      5  C   UNL     1       6.562   7.906  17.113  0.00  0.00    +0.000 A 
ATOM      6  C   UNL     1       6.022   6.624  16.961  0.00  0.00    +0.000 A 
ENDROOT
BRANCH   4   7
ATOM      7  C   UNL     1       8.330   9.401  18.197  0.00  0.00    +0.000 C 
ATOM      8  O   UNL     1       8.107  10.300  17.393  0.00  0.00    +0.000 OA
ATOM      9  N   UNL     1       9.198   9.502  19.277  0.00  0.00    +0.000 N 
ATOM     10  H   UNL     1       9.491   8.661  19.749  0.00  0.00    +0.000 HD
BRANCH   9  11
ATOM     11  C   UNL     1       9.843  10.698  19.664  0.00  0.00    +0.000 A 
ATOM     12  C   UNL     1       9.491  11.407  20.814  0.00  0.00    +0.000 A 
ATOM     13  C   UNL     1      10.133  12.599  21.141  0.00  0.00    +0.000 A 
ATOM     14  C   UNL     1      11.146  13.088  20.325  0.00  0.00    +0.000 A 
ATOM     15  C   UNL     1      11.527  12.375  19.192  0.00  0.00    +0.000 A 
ATOM     16  C   UNL     1      10.885  11.175  18.864  0.00  0.00    +0.000 A 
ENDBRANCH   9  11
ENDBRANCH   4   7
BRANCH   1  17
ATOM     17  C   UNL     1       6.042   4.135  17.447  0.00  0.00    +0.000 C 
BRANCH  17  18
ATOM     18  O   UNL     1       4.661   4.176  17.118  0.00  0.00    +0.000 OA
BRANCH  18  24
ATOM     19  C   UNL     1       3.264   4.463  19.174  0.00  0.00    +0.000 A 
ATOM     20  C   UNL     1       2.326   3.846  20.014  0.00  0.00    +0.000 A 
ATOM     21  C   UNL     1       1.999   2.505  19.857  0.00  0.00    +0.000 A 
ATOM     22  C   UNL     1       2.552   1.778  18.811  0.00  0.00    +0.000 A 
ATOM     23  C   UNL     1       3.416   2.404  17.912  0.00  0.00    +0.000 A 
ATOM     24  C   UNL     1       3.782   3.747  18.082  0.00  0.00    +0.000 A 
BRANCH  19  26
ATOM     25  C   UNL     1       2.791   6.762  18.836  0.00  0.00    +0.000 C 
ATOM     26  O   UNL     1       3.638   5.761  19.401  0.00  0.00    +0.000 OA
ENDBRANCH  19  26
ENDBRANCH  18  24
ENDBRANCH  17  18
ENDBRANCH   1  17
TORSDOF 6
ENDMDL
