MODEL 1
REMARK VINA RESULT:      -8.5      0.000      0.000
REMARK  Name = 
REMARK  10 active torsions:
REMARK  status: ('A' for Active; 'I' for Inactive)
REMARK    1  A    between atoms: C_1  and  C_2
REMARK    2  A    between atoms: C_2  and  C_3
REMARK    3  A    between atoms: C_3  and  C_4
REMARK    4  A    between atoms: C_4  and  C_5
REMARK    5  A    between atoms: C_5  and  C_6
REMARK    6  A    between atoms: C_6  and  O_7
REMARK    7  A    between atoms: O_7  and  C_8
REMARK    8  A    between atoms: C_13  and  C_14
REMARK    9  A    between atoms: C_16  and  C_17
REMARK   10  A    between atoms: C_25  and  C_26
REMARK                            x       y       z     vdW  Elec       q    Type
REMARK                         _______ _______ _______ _____ _____    ______ ____
ROOT
ATOM      1  C   UNL     1       4.050   6.393  17.349  0.00  0.00    +0.000 A 
ATOM      2  C   UNL     1       3.560   7.722  17.522  0.00  0.00    +0.000 A 
ATOM      3  C   UNL     1       2.492   7.712  18.400  0.00  0.00    +0.000 A 
ATOM      4  N   UNL     1       2.293   6.393  18.725  0.00  0.00    +0.000 N 
ATOM      5  C   UNL     1       3.226   5.561  18.126  0.00  0.00    +0.000 A 
ATOM      6  H   UNL     1       1.594   6.073  19.377  0.00  0.00    +0.000 HD
ENDROOT
BRANCH   3   7
ATOM      7  C   UNL     1       1.703   8.821  18.959  0.00  0.00    +0.000 A 
ATOM      8  C   UNL     1       1.398   9.961  18.217  0.00  0.00    +0.000 A 
ATOM      9  C   UNL     1       0.650  10.999  18.789  0.00  0.00    +0.000 A 
ATOM     10  C   UNL     1       0.205  10.891  20.105  0.00  0.00    +0.000 A 
ATOM     11 CL   UNL     1      -0.702  12.172  20.812  0.00  0.00    +0.000 Cl
ATOM     12  C   UNL     1       0.492   9.757  20.854  0.00  0.00    +0.000 A 
ATOM     13  C   UNL     1       1.237   8.723  20.281  0.00  0.00    +0.000 A 
ENDBRANCH   3   7
BRANCH   1  19
ATOM     14  C   UNL     1       6.536   5.952  17.005  0.00  0.00    +0.000 A 
ATOM     15  C   UNL     1       7.538   5.376  16.199  0.00  0.00    +0.000 A 
ATOM     16  C   UNL     1       7.250   4.834  14.948  0.00  0.00    +0.000 A 
ATOM     17  C   UNL     1       5.962   4.908  14.452  0.00  0.00    +0.000 A 
ATOM     18  C   UNL     1       4.962   5.510  15.217  0.00  0.00    +0.000 A 
ATOM     19  C   UNL     1       5.201   5.967  16.529  0.00  0.00    +0.000 A 
BRANCH  14  20
ATOM     20  O   UNL     1       6.822   6.486  18.250  0.00  0.00    +0.000 OA
BRANCH  20  21
ATOM     21  C   UNL     1       8.086   7.154  18.349  0.00  0.00    +0.000 C 
BRANCH  21  22
ATOM     22  C   UNL     1       8.007   8.599  17.875  0.00  0.00    +0.000 C 
BRANCH  22  23
ATOM     23  C   UNL     1       8.809   9.499  18.825  0.00  0.00    +0.000 C 
BRANCH  23  24
ATOM     24  C   UNL     1       9.268  10.780  18.134  0.00  0.00    +0.000 C 
BRANCH  24  26
ATOM     25  C   UNL     1      10.230  11.515  20.337  0.00  0.00    +0.000 C 
ATOM     26  C   UNL     1      10.475  11.397  18.840  0.00  0.00    +0.000 C 
ENDBRANCH  24  26
ENDBRANCH  23  24
ENDBRANCH  22  23
ENDBRANCH  21  22
ENDBRANCH  20  21
ENDBRANCH  14  20
ENDBRANCH   1  19
BRANCH   5  27
ATOM     27  C   UNL     1       3.220   4.111  18.413  0.00  0.00    +0.000 A 
ATOM     28  C   UNL     1       2.412   3.226  17.687  0.00  0.00    +0.000 A 
ATOM     29  C   UNL     1       2.485   1.868  17.967  0.00  0.00    +0.000 A 
ATOM     30  N   UNL     1       3.317   1.330  18.881  0.00  0.00    +0.000 NA
ATOM     31  C   UNL     1       4.082   2.195  19.575  0.00  0.00    +0.000 A 
ATOM     32  C   UNL     1       4.035   3.569  19.408  0.00  0.00    +0.000 A 
ENDBRANCH   5  27
TORSDOF 9
ENDMDL
MODEL 2
REMARK VINA RESULT:      -8.3      0.763      1.190
REMARK  Name = 
REMARK  10 active torsions:
REMARK  status: ('A' for Active; 'I' for Inactive)
REMARK    1  A    between atoms: C_1  and  C_2
REMARK    2  A    between atoms: C_2  and  C_3
REMARK    3  A    between atoms: C_3  and  C_4
REMARK    4  A    between atoms: C_4  and  C_5
REMARK    5  A    between atoms: C_5  and  C_6
REMARK    6  A    between atoms: C_6  and  O_7
REMARK    7  A    between atoms: O_7  and  C_8
REMARK    8  A    between atoms: C_13  and  C_14
REMARK    9  A    between atoms: C_16  and  C_17
REMARK   10  A    between atoms: C_25  and  C_26
REMARK                            x       y       z     vdW  Elec       q    Type
REMARK                         _______ _______ _______ _____ _____    ______ ____
ROOT
ATOM      1  C   UNL     1       3.940   6.349  17.365  0.00  0.00    +0.000 A 
ATOM      2  C   UNL     1       3.646   7.742  17.457  0.00  0.00    +0.000 A 
ATOM      3  C   UNL     1       2.527   7.929  18.247  0.00  0.00    +0.000 A 
ATOM      4  N   UNL     1       2.106   6.669  18.595  0.00  0.00    +0.000 N 
ATOM      5  C   UNL     1       2.944   5.683  18.098  0.00  0.00    +0.000 A 
ATOM      6  H   UNL     1       1.321   6.485  19.200  0.00  0.00    +0.000 HD
ENDROOT
BRANCH   3   7
ATOM      7  C   UNL     1       1.877   9.166  18.707  0.00  0.00    +0.000 A 
ATOM      8  C   UNL     1       2.034  10.379  18.038  0.00  0.00    +0.000 A 
ATOM      9  C   UNL     1       1.403  11.537  18.513  0.00  0.00    +0.000 A 
ATOM     10  C   UNL     1       0.612  11.476  19.658  0.00  0.00    +0.000 A 
ATOM     11 CL   UNL     1      -0.151  12.902  20.249  0.00  0.00    +0.000 Cl
ATOM     12  C   UNL     1       0.437  10.274  20.330  0.00  0.00    +0.000 A 
ATOM     13  C   UNL     1       1.067   9.121  19.854  0.00  0.00    +0.000 A 
ENDBRANCH   3   7
BRANCH   1  19
ATOM     14  C   UNL     1       6.361   5.566  17.218  0.00  0.00    +0.000 A 
ATOM     15  C   UNL     1       7.322   4.810  16.519  0.00  0.00    +0.000 A 
ATOM     16  C   UNL     1       7.039   4.225  15.286  0.00  0.00    +0.000 A 
ATOM     17  C   UNL     1       5.805   4.432  14.700  0.00  0.00    +0.000 A 
ATOM     18  C   UNL     1       4.851   5.210  15.356  0.00  0.00    +0.000 A 
ATOM     19  C   UNL     1       5.070   5.721  16.653  0.00  0.00    +0.000 A 
BRANCH  14  20
ATOM     20  O   UNL     1       6.640   6.142  18.446  0.00  0.00    +0.000 OA
BRANCH  20  21
ATOM     21  C   UNL     1       7.860   6.892  18.501  0.00  0.00    +0.000 C 
BRANCH  21  22
ATOM     22  C   UNL     1       7.945   7.927  17.386  0.00  0.00    +0.000 C 
BRANCH  22  23
ATOM     23  C   UNL     1       7.975   9.336  17.992  0.00  0.00    +0.000 C 
BRANCH  23  24
ATOM     24  C   UNL     1       9.096   9.485  19.016  0.00  0.00    +0.000 C 
BRANCH  24  26
ATOM     25  C   UNL     1      10.242  11.415  17.882  0.00  0.00    +0.000 C 
ATOM     26  C   UNL     1       9.546  10.941  19.149  0.00  0.00    +0.000 C 
ENDBRANCH  24  26
ENDBRANCH  23  24
ENDBRANCH  22  23
ENDBRANCH  21  22
ENDBRANCH  20  21
ENDBRANCH  14  20
ENDBRANCH   1  19
BRANCH   5  27
ATOM     27  C   UNL     1       2.696   4.264  18.429  0.00  0.00    +0.000 A 
ATOM     28  C   UNL     1       3.695   3.458  18.989  0.00  0.00    +0.000 A 
ATOM     29  C   UNL     1       3.389   2.146  19.326  0.00  0.00    +0.000 A 
ATOM     30  N   UNL     1       2.167   1.595  19.178  0.00  0.00    +0.000 NA
ATOM     31  C   UNL     1       1.220   2.380  18.630  0.00  0.00    +0.000 A 
ATOM     32  C   UNL     1       1.447   3.680  18.210  0.00  0.00    +0.000 A 
ENDBRANCH   5  27
TORSDOF 9
ENDMDL
MODEL 3
REMARK VINA RESULT:      -8.2      0.534      1.343
REMARK  Name = 
REMARK  10 active torsions:
REMARK  status: ('A' for Active; 'I' for Inactive)
REMARK    1  A    between atoms: C_1  and  C_2
REMARK    2  A    between atoms: C_2  and  C_3
REMARK    3  A    between atoms: C_3  and  C_4
REMARK    4  A    between atoms: C_4  and  C_5
REMARK    5  A    between atoms: C_5  and  C_6
REMARK    6  A    between atoms: C_6  and  O_7
REMARK    7  A    between atoms: O_7  and  C_8
REMARK    8  A    between atoms: C_13  and  C_14
REMARK    9  A    between atoms: C_16  and  C_17
REMARK   10  A    between atoms: C_25  and  C_26
REMARK                            x       y       z     vdW  Elec       q    Type
REMARK                         _______ _______ _______ _____ _____    ______ ____
ROOT
ATOM      1  C   UNL     1       4.143   6.221  17.219  0.00  0.00    +0.000 A 
ATOM      2  C   UNL     1       3.643   7.546  17.397  0.00  0.00    +0.000 A 
ATOM      3  C   UNL     1       2.643   7.541  18.351  0.00  0.00    +0.000 A 
ATOM      4  N   UNL     1       2.493   6.227  18.721  0.00  0.00    +0.000 N 
ATOM      5  C   UNL     1       3.395   5.396  18.074  0.00  0.00    +0.000 A 
ATOM      6  H   UNL     1       1.850   5.911  19.431  0.00  0.00    +0.000 HD
ENDROOT
BRANCH   3   7
ATOM      7  C   UNL     1       1.878   8.649  18.942  0.00  0.00    +0.000 A 
ATOM      8  C   UNL     1       1.415   8.613  20.257  0.00  0.00    +0.000 A 
ATOM      9  C   UNL     1       0.683   9.687  20.781  0.00  0.00    +0.000 A 
ATOM     10  C   UNL     1       0.418  10.799  19.985  0.00  0.00    +0.000 A 
ATOM     11 CL   UNL     1      -0.494  12.112  20.625  0.00  0.00    +0.000 Cl
ATOM     12  C   UNL     1       0.881  10.856  18.677  0.00  0.00    +0.000 A 
ATOM     13  C   UNL     1       1.611   9.784  18.158  0.00  0.00    +0.000 A 
ENDBRANCH   3   7
BRANCH   1  19
ATOM     14  C   UNL     1       6.610   6.009  16.614  0.00  0.00    +0.000 A 
ATOM     15  C   UNL     1       7.579   5.420  15.778  0.00  0.00    +0.000 A 
ATOM     16  C   UNL     1       7.223   4.646  14.675  0.00  0.00    +0.000 A 
ATOM     17  C   UNL     1       5.888   4.492  14.353  0.00  0.00    +0.000 A 
ATOM     18  C   UNL     1       4.912   5.099  15.144  0.00  0.00    +0.000 A 
ATOM     19  C   UNL     1       5.238   5.794  16.327  0.00  0.00    +0.000 A 
BRANCH  14  20
ATOM     20  O   UNL     1       6.964   6.774  17.712  0.00  0.00    +0.000 OA
BRANCH  20  21
ATOM     21  C   UNL     1       7.470   8.079  17.406  0.00  0.00    +0.000 C 
BRANCH  21  22
ATOM     22  C   UNL     1       8.466   8.564  18.452  0.00  0.00    +0.000 C 
BRANCH  22  23
ATOM     23  C   UNL     1       8.644  10.083  18.329  0.00  0.00    +0.000 C 
BRANCH  23  24
ATOM     24  C   UNL     1       9.644  10.618  19.351  0.00  0.00    +0.000 C 
BRANCH  24  26
ATOM     25  C   UNL     1      11.880  11.726  19.659  0.00  0.00    +0.000 C 
ATOM     26  C   UNL     1      10.756  11.425  18.680  0.00  0.00    +0.000 C 
ENDBRANCH  24  26
ENDBRANCH  23  24
ENDBRANCH  22  23
ENDBRANCH  21  22
ENDBRANCH  20  21
ENDBRANCH  14  20
ENDBRANCH   1  19
BRANCH   5  27
ATOM     27  C   UNL     1       3.436   3.954  18.395  0.00  0.00    +0.000 A 
ATOM     28  C   UNL     1       4.260   3.454  19.411  0.00  0.00    +0.000 A 
ATOM     29  C   UNL     1       4.219   2.097  19.702  0.00  0.00    +0.000 A 
ATOM     30  N   UNL     1       3.404   1.218  19.086  0.00  0.00    +0.000 NA
ATOM     31  C   UNL     1       2.623   1.712  18.106  0.00  0.00    +0.000 A 
ATOM     32  C   UNL     1       2.638   3.038  17.706  0.00  0.00    +0.000 A 
ENDBRANCH   5  27
TORSDOF 9
ENDMDL
MODEL 4
REMARK VINA RESULT:      -8.2      1.135      1.379
REMARK  Name = 
REMARK  10 active torsions:
REMARK  status: ('A' for Active; 'I' for Inactive)
REMARK    1  A    between atoms: C_1  and  C_2
REMARK    2  A    between atoms: C_2  and  C_3
REMARK    3  A    between atoms: C_3  and  C_4
REMARK    4  A    between atoms: C_4  and  C_5
REMARK    5  A    between atoms: C_5  and  C_6
REMARK    6  A    between atoms: C_6  and  O_7
REMARK    7  A    between atoms: O_7  and  C_8
REMARK    8  A    between atoms: C_13  and  C_14
REMARK    9  A    between atoms: C_16  and  C_17
REMARK   10  A    between atoms: C_25  and  C_26
REMARK                            x       y       z     vdW  Elec       q    Type
REMARK                         _______ _______ _______ _____ _____    ______ ____
ROOT
ATOM      1  C   UNL     1       3.883   6.206  17.970  0.00  0.00    +0.000 A 
ATOM      2  C   UNL     1       3.352   7.517  17.777  0.00  0.00    +0.000 A 
ATOM      3  C   UNL     1       2.400   7.779  18.745  0.00  0.00    +0.000 A 
ATOM      4  N   UNL     1       2.309   6.631  19.492  0.00  0.00    +0.000 N 
ATOM      5  C   UNL     1       3.202   5.659  19.070  0.00  0.00    +0.000 A 
ATOM      6  H   UNL     1       1.711   6.530  20.298  0.00  0.00    +0.000 HD
ENDROOT
BRANCH   3   7
ATOM      7  C   UNL     1       1.632   9.001  19.024  0.00  0.00    +0.000 A 
ATOM      8  C   UNL     1       1.660  10.105  18.172  0.00  0.00    +0.000 A 
ATOM      9  C   UNL     1       0.918  11.255  18.477  0.00  0.00    +0.000 A 
ATOM     10  C   UNL     1       0.146  11.295  19.636  0.00  0.00    +0.000 A 
ATOM     11 CL   UNL     1      -0.753  12.713  20.018  0.00  0.00    +0.000 Cl
ATOM     12  C   UNL     1       0.099  10.200  20.490  0.00  0.00    +0.000 A 
ATOM     13  C   UNL     1       0.839   9.055  20.183  0.00  0.00    +0.000 A 
ENDBRANCH   3   7
BRANCH   1  19
ATOM     14  C   UNL     1       6.308   5.531  17.573  0.00  0.00    +0.000 A 
ATOM     15  C   UNL     1       7.214   4.741  16.838  0.00  0.00    +0.000 A 
ATOM     16  C   UNL     1       6.806   3.992  15.735  0.00  0.00    +0.000 A 
ATOM     17  C   UNL     1       5.493   4.063  15.311  0.00  0.00    +0.000 A 
ATOM     18  C   UNL     1       4.587   4.870  16.000  0.00  0.00    +0.000 A 
ATOM     19  C   UNL     1       4.946   5.550  17.183  0.00  0.00    +0.000 A 
BRANCH  14  20
ATOM     20  O   UNL     1       6.713   6.270  18.672  0.00  0.00    +0.000 OA
BRANCH  20  21
ATOM     21  C   UNL     1       7.949   6.975  18.508  0.00  0.00    +0.000 C 
BRANCH  21  22
ATOM     22  C   UNL     1       7.873   8.007  17.390  0.00  0.00    +0.000 C 
BRANCH  22  23
ATOM     23  C   UNL     1       7.996   9.418  17.981  0.00  0.00    +0.000 C 
BRANCH  23  24
ATOM     24  C   UNL     1       9.116   9.499  19.014  0.00  0.00    +0.000 C 
BRANCH  24  26
ATOM     25  C   UNL     1       9.362  11.784  17.993  0.00  0.00    +0.000 C 
ATOM     26  C   UNL     1       9.563  10.944  19.245  0.00  0.00    +0.000 C 
ENDBRANCH  24  26
ENDBRANCH  23  24
ENDBRANCH  22  23
ENDBRANCH  21  22
ENDBRANCH  20  21
ENDBRANCH  14  20
ENDBRANCH   1  19
BRANCH   5  27
ATOM     27  C   UNL     1       3.302   4.377  19.798  0.00  0.00    +0.000 A 
ATOM     28  C   UNL     1       4.292   3.435  19.487  0.00  0.00    +0.000 A 
ATOM     29  C   UNL     1       4.369   2.270  20.239  0.00  0.00    +0.000 A 
ATOM     30  N   UNL     1       3.565   1.993  21.285  0.00  0.00    +0.000 NA
ATOM     31  C   UNL     1       2.614   2.904  21.566  0.00  0.00    +0.000 A 
ATOM     32  C   UNL     1       2.423   4.066  20.837  0.00  0.00    +0.000 A 
ENDBRANCH   5  27
TORSDOF 9
ENDMDL
MODEL 5
REMARK VINA RESULT:      -8.1      0.589      1.435
REMARK  Name = 
REMARK  10 active torsions:
REMARK  status: ('A' for Active; 'I' for Inactive)
REMARK    1  A    between atoms: C_1  and  C_2
REMARK    2  A    between atoms: C_2  and  C_3
REMARK    3  A    between atoms: C_3  and  C_4
REMARK    4  A    between atoms: C_4  and  C_5
REMARK    5  A    between atoms: C_5  and  C_6
REMARK    6  A    between atoms: C_6  and  O_7
REMARK    7  A    between atoms: O_7  and  C_8
REMARK    8  A    between atoms: C_13  and  C_14
REMARK    9  A    between atoms: C_16  and  C_17
REMARK   10  A    between atoms: C_25  and  C_26
REMARK                            x       y       z     vdW  Elec       q    Type
REMARK                         _______ _______ _______ _____ _____    ______ ____
ROOT
ATOM      1  C   UNL     1       3.932   6.385  17.427  0.00  0.00    +0.000 A 
ATOM      2  C   UNL     1       3.484   7.730  17.589  0.00  0.00    +0.000 A 
ATOM      3  C   UNL     1       2.422   7.761  18.475  0.00  0.00    +0.000 A 
ATOM      4  N   UNL     1       2.187   6.451  18.815  0.00  0.00    +0.000 N 
ATOM      5  C   UNL     1       3.090   5.586  18.218  0.00  0.00    +0.000 A 
ATOM      6  H   UNL     1       1.484   6.159  19.476  0.00  0.00    +0.000 HD
ENDROOT
BRANCH   3   7
ATOM      7  C   UNL     1       1.672   8.898  19.029  0.00  0.00    +0.000 A 
ATOM      8  C   UNL     1       1.152   8.883  20.323  0.00  0.00    +0.000 A 
ATOM      9  C   UNL     1       0.436   9.984  20.812  0.00  0.00    +0.000 A 
ATOM     10  C   UNL     1       0.245  11.102  20.003  0.00  0.00    +0.000 A 
ATOM     11 CL   UNL     1      -0.647  12.449  20.600  0.00  0.00    +0.000 Cl
ATOM     12  C   UNL     1       0.765  11.137  18.716  0.00  0.00    +0.000 A 
ATOM     13  C   UNL     1       1.479  10.038  18.231  0.00  0.00    +0.000 A 
ENDBRANCH   3   7
BRANCH   1  19
ATOM     14  C   UNL     1       6.422   6.087  16.971  0.00  0.00    +0.000 A 
ATOM     15  C   UNL     1       7.419   5.462  16.196  0.00  0.00    +0.000 A 
ATOM     16  C   UNL     1       7.103   4.693  15.077  0.00  0.00    +0.000 A 
ATOM     17  C   UNL     1       5.786   4.581  14.677  0.00  0.00    +0.000 A 
ATOM     18  C   UNL     1       4.785   5.224  15.405  0.00  0.00    +0.000 A 
ATOM     19  C   UNL     1       5.063   5.916  16.603  0.00  0.00    +0.000 A 
BRANCH  14  20
ATOM     20  O   UNL     1       6.735   6.847  18.085  0.00  0.00    +0.000 OA
BRANCH  20  21
ATOM     21  C   UNL     1       8.048   7.421  18.079  0.00  0.00    +0.000 C 
BRANCH  21  22
ATOM     22  C   UNL     1       8.018   8.909  17.753  0.00  0.00    +0.000 C 
BRANCH  22  23
ATOM     23  C   UNL     1       8.837   9.682  18.795  0.00  0.00    +0.000 C 
BRANCH  23  24
ATOM     24  C   UNL     1       9.656  10.798  18.153  0.00  0.00    +0.000 C 
BRANCH  24  26
ATOM     25  C   UNL     1       8.054  12.575  17.379  0.00  0.00    +0.000 C 
ATOM     26  C   UNL     1       9.058  12.175  18.449  0.00  0.00    +0.000 C 
ENDBRANCH  24  26
ENDBRANCH  23  24
ENDBRANCH  22  23
ENDBRANCH  21  22
ENDBRANCH  20  21
ENDBRANCH  14  20
ENDBRANCH   1  19
BRANCH   5  27
ATOM     27  C   UNL     1       3.042   4.140  18.520  0.00  0.00    +0.000 A 
ATOM     28  C   UNL     1       4.119   3.484  19.129  0.00  0.00    +0.000 A 
ATOM     29  C   UNL     1       3.998   2.135  19.436  0.00  0.00    +0.000 A 
ATOM     30  N   UNL     1       2.884   1.409  19.212  0.00  0.00    +0.000 NA
ATOM     31  C   UNL     1       1.860   2.051  18.619  0.00  0.00    +0.000 A 
ATOM     32  C   UNL     1       1.910   3.378  18.224  0.00  0.00    +0.000 A 
ENDBRANCH   5  27
TORSDOF 9
ENDMDL
MODEL 6
REMARK VINA RESULT:      -8.1      1.284      1.636
REMARK  Name = 
REMARK  10 active torsions:
REMARK  status: ('A' for Active; 'I' for Inactive)
REMARK    1  A    between atoms: C_1  and  C_2
REMARK    2  A    between atoms: C_2  and  C_3
REMARK    3  A    between atoms: C_3  and  C_4
REMARK    4  A    between atoms: C_4  and  C_5
REMARK    5  A    between atoms: C_5  and  C_6
REMARK    6  A    between atoms: C_6  and  O_7
REMARK    7  A    between atoms: O_7  and  C_8
REMARK    8  A    between atoms: C_13  and  C_14
REMARK    9  A    between atoms: C_16  and  C_17
REMARK   10  A    between atoms: C_25  and  C_26
REMARK                            x       y       z     vdW  Elec       q    Type
REMARK                         _______ _______ _______ _____ _____    ______ ____
ROOT
ATOM      1  C   UNL     1       3.715   6.651  17.423  0.00  0.00    +0.000 A 
ATOM      2  C   UNL     1       3.414   8.039  17.281  0.00  0.00    +0.000 A 
ATOM      3  C   UNL     1       2.268   8.340  17.993  0.00  0.00    +0.000 A 
ATOM      4  N   UNL     1       1.841   7.148  18.526  0.00  0.00    +0.000 N 
ATOM      5  C   UNL     1       2.698   6.103  18.221  0.00  0.00    +0.000 A 
ATOM      6  H   UNL     1       1.036   7.057  19.126  0.00  0.00    +0.000 HD
ENDROOT
BRANCH   3   7
ATOM      7  C   UNL     1       1.598   9.628  18.228  0.00  0.00    +0.000 A 
ATOM      8  C   UNL     1       2.290  10.839  18.201  0.00  0.00    +0.000 A 
ATOM      9  C   UNL     1       1.617  12.045  18.436  0.00  0.00    +0.000 A 
ATOM     10  C   UNL     1       0.248  12.037  18.696  0.00  0.00    +0.000 A 
ATOM     11 CL   UNL     1      -0.576  13.518  19.000  0.00  0.00    +0.000 Cl
ATOM     12  C   UNL     1      -0.458  10.841  18.717  0.00  0.00    +0.000 A 
ATOM     13  C   UNL     1       0.216   9.639  18.481  0.00  0.00    +0.000 A 
ENDBRANCH   3   7
BRANCH   1  19
ATOM     14  C   UNL     1       6.208   6.387  16.966  0.00  0.00    +0.000 A 
ATOM     15  C   UNL     1       7.252   5.544  16.535  0.00  0.00    +0.000 A 
ATOM     16  C   UNL     1       7.001   4.282  15.999  0.00  0.00    +0.000 A 
ATOM     17  C   UNL     1       5.696   3.860  15.830  0.00  0.00    +0.000 A 
ATOM     18  C   UNL     1       4.646   4.695  16.213  0.00  0.00    +0.000 A 
ATOM     19  C   UNL     1       4.871   5.928  16.858  0.00  0.00    +0.000 A 
BRANCH  14  20
ATOM     20  O   UNL     1       6.458   7.638  17.503  0.00  0.00    +0.000 OA
BRANCH  20  21
ATOM     21  C   UNL     1       7.830   7.898  17.825  0.00  0.00    +0.000 C 
BRANCH  21  22
ATOM     22  C   UNL     1       8.143   9.389  17.825  0.00  0.00    +0.000 C 
BRANCH  22  23
ATOM     23  C   UNL     1       9.137   9.708  18.950  0.00  0.00    +0.000 C 
BRANCH  23  24
ATOM     24  C   UNL     1       9.394  11.208  19.066  0.00  0.00    +0.000 C 
BRANCH  24  26
ATOM     25  C   UNL     1      11.563  11.881  17.986  0.00  0.00    +0.000 C 
ATOM     26  C   UNL     1      10.877  11.507  19.291  0.00  0.00    +0.000 C 
ENDBRANCH  24  26
ENDBRANCH  23  24
ENDBRANCH  22  23
ENDBRANCH  21  22
ENDBRANCH  20  21
ENDBRANCH  14  20
ENDBRANCH   1  19
BRANCH   5  27
ATOM     27  C   UNL     1       2.444   4.753  18.767  0.00  0.00    +0.000 A 
ATOM     28  C   UNL     1       2.992   4.343  19.989  0.00  0.00    +0.000 A 
ATOM     29  C   UNL     1       2.677   3.082  20.477  0.00  0.00    +0.000 A 
ATOM     30  N   UNL     1       1.841   2.222  19.860  0.00  0.00    +0.000 NA
ATOM     31  C   UNL     1       1.329   2.627  18.683  0.00  0.00    +0.000 A 
ATOM     32  C   UNL     1       1.631   3.842  18.090  0.00  0.00    +0.000 A 
ENDBRANCH   5  27
TORSDOF 9
ENDMDL
MODEL 7
REMARK VINA RESULT:      -8.1      1.268      1.508
REMARK  Name = 
REMARK  10 active torsions:
REMARK  status: ('A' for Active; 'I' for Inactive)
REMARK    1  A    between atoms: C_1  and  C_2
REMARK    2  A    between atoms: C_2  and  C_3
REMARK    3  A    between atoms: C_3  and  C_4
REMARK    4  A    between atoms: C_4  and  C_5
REMARK    5  A    between atoms: C_5  and  C_6
REMARK    6  A    between atoms: C_6  and  O_7
REMARK    7  A    between atoms: O_7  and  C_8
REMARK    8  A    between atoms: C_13  and  C_14
REMARK    9  A    between atoms: C_16  and  C_17
REMARK   10  A    between atoms: C_25  and  C_26
REMARK                            x       y       z     vdW  Elec       q    Type
REMARK                         _______ _______ _______ _____ _____    ______ ____
ROOT
ATOM      1  C   UNL     1       3.727   6.745  17.499  0.00  0.00    +0.000 A 
ATOM      2  C   UNL     1       3.446   8.139  17.378  0.00  0.00    +0.000 A 
ATOM      3  C   UNL     1       2.293   8.442  18.078  0.00  0.00    +0.000 A 
ATOM      4  N   UNL     1       1.841   7.247  18.581  0.00  0.00    +0.000 N 
ATOM      5  C   UNL     1       2.690   6.196  18.271  0.00  0.00    +0.000 A 
ATOM      6  H   UNL     1       1.025   7.155  19.167  0.00  0.00    +0.000 HD
ENDROOT
BRANCH   3   7
ATOM      7  C   UNL     1       1.636   9.735  18.325  0.00  0.00    +0.000 A 
ATOM      8  C   UNL     1       0.311   9.823  18.752  0.00  0.00    +0.000 A 
ATOM      9  C   UNL     1      -0.281  11.074  18.970  0.00  0.00    +0.000 A 
ATOM     10  C   UNL     1       0.458  12.237  18.764  0.00  0.00    +0.000 A 
ATOM     11 CL   UNL     1      -0.274  13.775  19.019  0.00  0.00    +0.000 Cl
ATOM     12  C   UNL     1       1.782  12.166  18.350  0.00  0.00    +0.000 A 
ATOM     13  C   UNL     1       2.370  10.917  18.133  0.00  0.00    +0.000 A 
ENDBRANCH   3   7
BRANCH   1  19
ATOM     14  C   UNL     1       6.224   6.449  17.085  0.00  0.00    +0.000 A 
ATOM     15  C   UNL     1       7.262   5.600  16.655  0.00  0.00    +0.000 A 
ATOM     16  C   UNL     1       7.002   4.356  16.082  0.00  0.00    +0.000 A 
ATOM     17  C   UNL     1       5.694   3.961  15.876  0.00  0.00    +0.000 A 
ATOM     18  C   UNL     1       4.650   4.803  16.259  0.00  0.00    +0.000 A 
ATOM     19  C   UNL     1       4.882   6.016  16.940  0.00  0.00    +0.000 A 
BRANCH  14  20
ATOM     20  O   UNL     1       6.483   7.683  17.659  0.00  0.00    +0.000 OA
BRANCH  20  21
ATOM     21  C   UNL     1       7.872   8.016  17.781  0.00  0.00    +0.000 C 
BRANCH  21  22
ATOM     22  C   UNL     1       8.096   9.523  17.809  0.00  0.00    +0.000 C 
BRANCH  22  23
ATOM     23  C   UNL     1       9.165   9.865  18.855  0.00  0.00    +0.000 C 
BRANCH  23  24
ATOM     24  C   UNL     1       9.523  11.349  18.829  0.00  0.00    +0.000 C 
BRANCH  24  26
ATOM     25  C   UNL     1      11.953  11.641  19.406  0.00  0.00    +0.000 C 
ATOM     26  C   UNL     1      10.932  11.577  18.280  0.00  0.00    +0.000 C 
ENDBRANCH  24  26
ENDBRANCH  23  24
ENDBRANCH  22  23
ENDBRANCH  21  22
ENDBRANCH  20  21
ENDBRANCH  14  20
ENDBRANCH   1  19
BRANCH   5  27
ATOM     27  C   UNL     1       2.409   4.839  18.787  0.00  0.00    +0.000 A 
ATOM     28  C   UNL     1       1.503   3.985  18.145  0.00  0.00    +0.000 A 
ATOM     29  C   UNL     1       1.318   2.704  18.646  0.00  0.00    +0.000 A 
ATOM     30  N   UNL     1       1.984   2.205  19.707  0.00  0.00    +0.000 NA
ATOM     31  C   UNL     1       2.846   3.041  20.318  0.00  0.00    +0.000 A 
ATOM     32  C   UNL     1       3.053   4.353  19.926  0.00  0.00    +0.000 A 
ENDBRANCH   5  27
TORSDOF 9
ENDMDL
MODEL 8
REMARK VINA RESULT:      -8.1      1.182      1.644
REMARK  Name = 
REMARK  10 active torsions:
REMARK  status: ('A' for Active; 'I' for Inactive)
REMARK    1  A    between atoms: C_1  and  C_2
REMARK    2  A    between atoms: C_2  and  C_3
REMARK    3  A    between atoms: C_3  and  C_4
REMARK    4  A    between atoms: C_4  and  C_5
REMARK    5  A    between atoms: C_5  and  C_6
REMARK    6  A    between atoms: C_6  and  O_7
REMARK    7  A    between atoms: O_7  and  C_8
REMARK    8  A    between atoms: C_13  and  C_14
REMARK    9  A    between atoms: C_16  and  C_17
REMARK   10  A    between atoms: C_25  and  C_26
REMARK                            x       y       z     vdW  Elec       q    Type
REMARK                         _______ _______ _______ _____ _____    ______ ____
ROOT
ATOM      1  C   UNL     1       3.692   6.386  17.973  0.00  0.00    +0.000 A 
ATOM      2  C   UNL     1       3.113   7.685  17.851  0.00  0.00    +0.000 A 
ATOM      3  C   UNL     1       2.209   7.888  18.877  0.00  0.00    +0.000 A 
ATOM      4  N   UNL     1       2.193   6.716  19.593  0.00  0.00    +0.000 N 
ATOM      5  C   UNL     1       3.090   5.786  19.091  0.00  0.00    +0.000 A 
ATOM      6  H   UNL     1       1.644   6.573  20.427  0.00  0.00    +0.000 HD
ENDROOT
BRANCH   3   7
ATOM      7  C   UNL     1       1.422   9.077  19.237  0.00  0.00    +0.000 A 
ATOM      8  C   UNL     1       0.718   9.165  20.437  0.00  0.00    +0.000 A 
ATOM      9  C   UNL     1      -0.027  10.313  20.740  0.00  0.00    +0.000 A 
ATOM     10  C   UNL     1      -0.063  11.374  19.839  0.00  0.00    +0.000 A 
ATOM     11 CL   UNL     1      -0.990  12.779  20.205  0.00  0.00    +0.000 Cl
ATOM     12  C   UNL     1       0.641  11.308  18.643  0.00  0.00    +0.000 A 
ATOM     13  C   UNL     1       1.384  10.162  18.345  0.00  0.00    +0.000 A 
ENDBRANCH   3   7
BRANCH   1  19
ATOM     14  C   UNL     1       6.041   6.307  16.988  0.00  0.00    +0.000 A 
ATOM     15  C   UNL     1       7.000   5.570  16.266  0.00  0.00    +0.000 A 
ATOM     16  C   UNL     1       6.685   4.354  15.661  0.00  0.00    +0.000 A 
ATOM     17  C   UNL     1       5.390   3.878  15.719  0.00  0.00    +0.000 A 
ATOM     18  C   UNL     1       4.414   4.611  16.396  0.00  0.00    +0.000 A 
ATOM     19  C   UNL     1       4.728   5.787  17.109  0.00  0.00    +0.000 A 
BRANCH  14  20
ATOM     20  O   UNL     1       6.355   7.512  17.593  0.00  0.00    +0.000 OA
BRANCH  20  21
ATOM     21  C   UNL     1       7.750   7.721  17.846  0.00  0.00    +0.000 C 
BRANCH  21  22
ATOM     22  C   UNL     1       8.134   9.192  17.747  0.00  0.00    +0.000 C 
BRANCH  22  23
ATOM     23  C   UNL     1       9.000   9.580  18.953  0.00  0.00    +0.000 C 
BRANCH  23  24
ATOM     24  C   UNL     1       9.333  11.070  18.950  0.00  0.00    +0.000 C 
BRANCH  24  26
ATOM     25  C   UNL     1      11.231  12.124  17.682  0.00  0.00    +0.000 C 
ATOM     26  C   UNL     1      10.844  11.307  18.904  0.00  0.00    +0.000 C 
ENDBRANCH  24  26
ENDBRANCH  23  24
ENDBRANCH  22  23
ENDBRANCH  21  22
ENDBRANCH  20  21
ENDBRANCH  14  20
ENDBRANCH   1  19
BRANCH   5  27
ATOM     27  C   UNL     1       3.268   4.486  19.773  0.00  0.00    +0.000 A 
ATOM     28  C   UNL     1       4.358   3.654  19.486  0.00  0.00    +0.000 A 
ATOM     29  C   UNL     1       4.501   2.468  20.194  0.00  0.00    +0.000 A 
ATOM     30  N   UNL     1       3.668   2.071  21.177  0.00  0.00    +0.000 NA
ATOM     31  C   UNL     1       2.621   2.878  21.435  0.00  0.00    +0.000 A 
ATOM     32  C   UNL     1       2.364   4.050  20.743  0.00  0.00    +0.000 A 
ENDBRANCH   5  27
TORSDOF 9
ENDMDL
MODEL 9
REMARK VINA RESULT:      -8.0      0.553      1.059
REMARK  Name = 
REMARK  10 active torsions:
REMARK  status: ('A' for Active; 'I' for Inactive)
REMARK    1  A    between atoms: C_1  and  C_2
REMARK    2  A    between atoms: C_2  and  C_3
REMARK    3  A    between atoms: C_3  and  C_4
REMARK    4  A    between atoms: C_4  and  C_5
REMARK    5  A    between atoms: C_5  and  C_6
REMARK    6  A    between atoms: C_6  and  O_7
REMARK    7  A    between atoms: O_7  and  C_8
REMARK    8  A    between atoms: C_13  and  C_14
REMARK    9  A    between atoms: C_16  and  C_17
REMARK   10  A    between atoms: C_25  and  C_26
REMARK                            x       y       z     vdW  Elec       q    Type
REMARK                         _______ _______ _______ _____ _____    ______ ____
ROOT
ATOM      1  C   UNL     1       4.107   6.379  17.333  0.00  0.00    +0.000 A 
ATOM      2  C   UNL     1       3.702   7.744  17.442  0.00  0.00    +0.000 A 
ATOM      3  C   UNL     1       2.618   7.839  18.295  0.00  0.00    +0.000 A 
ATOM      4  N   UNL     1       2.326   6.549  18.667  0.00  0.00    +0.000 N 
ATOM      5  C   UNL     1       3.215   5.635  18.122  0.00  0.00    +0.000 A 
ATOM      6  H   UNL     1       1.595   6.302  19.315  0.00  0.00    +0.000 HD
ENDROOT
BRANCH   3   7
ATOM      7  C   UNL     1       1.893   9.017  18.793  0.00  0.00    +0.000 A 
ATOM      8  C   UNL     1       1.142   8.984  19.968  0.00  0.00    +0.000 A 
ATOM      9  C   UNL     1       0.459  10.127  20.405  0.00  0.00    +0.000 A 
ATOM     10  C   UNL     1       0.533  11.305  19.665  0.00  0.00    +0.000 A 
ATOM     11 CL   UNL     1      -0.318  12.705  20.195  0.00  0.00    +0.000 Cl
ATOM     12  C   UNL     1       1.285  11.358  18.499  0.00  0.00    +0.000 A 
ATOM     13  C   UNL     1       1.965  10.217  18.065  0.00  0.00    +0.000 A 
ENDBRANCH   3   7
BRANCH   1  19
ATOM     14  C   UNL     1       6.527   5.613  17.111  0.00  0.00    +0.000 A 
ATOM     15  C   UNL     1       7.495   4.952  16.329  0.00  0.00    +0.000 A 
ATOM     16  C   UNL     1       7.225   4.536  15.026  0.00  0.00    +0.000 A 
ATOM     17  C   UNL     1       5.998   4.824  14.459  0.00  0.00    +0.000 A 
ATOM     18  C   UNL     1       5.038   5.512  15.202  0.00  0.00    +0.000 A 
ATOM     19  C   UNL     1       5.244   5.847  16.557  0.00  0.00    +0.000 A 
BRANCH  14  20
ATOM     20  O   UNL     1       6.794   6.021  18.407  0.00  0.00    +0.000 OA
BRANCH  20  21
ATOM     21  C   UNL     1       7.849   6.983  18.536  0.00  0.00    +0.000 C 
BRANCH  21  22
ATOM     22  C   UNL     1       7.857   7.978  17.382  0.00  0.00    +0.000 C 
BRANCH  22  23
ATOM     23  C   UNL     1       7.952   9.407  17.934  0.00  0.00    +0.000 C 
BRANCH  23  24
ATOM     24  C   UNL     1       9.045   9.530  18.992  0.00  0.00    +0.000 C 
BRANCH  24  26
ATOM     25  C   UNL     1      10.076  11.374  20.355  0.00  0.00    +0.000 C 
ATOM     26  C   UNL     1       9.711  10.906  18.954  0.00  0.00    +0.000 C 
ENDBRANCH  24  26
ENDBRANCH  23  24
ENDBRANCH  22  23
ENDBRANCH  21  22
ENDBRANCH  20  21
ENDBRANCH  14  20
ENDBRANCH   1  19
BRANCH   5  27
ATOM     27  C   UNL     1       3.107   4.201  18.465  0.00  0.00    +0.000 A 
ATOM     28  C   UNL     1       3.015   3.217  17.473  0.00  0.00    +0.000 A 
ATOM     29  C   UNL     1       2.968   1.882  17.854  0.00  0.00    +0.000 A 
ATOM     30  N   UNL     1       3.037   1.460  19.132  0.00  0.00    +0.000 NA
ATOM     31  C   UNL     1       3.117   2.419  20.075  0.00  0.00    +0.000 A 
ATOM     32  C   UNL     1       3.112   3.775  19.795  0.00  0.00    +0.000 A 
ENDBRANCH   5  27
TORSDOF 9
ENDMDL
