MODEL 1
REMARK VINA RESULT:      -7.3      0.000      0.000
REMARK  Name = 
REMARK  5 active torsions:
REMARK  status: ('A' for Active; 'I' for Inactive)
REMARK    1  A    between atoms: C_1  and  C_2
REMARK    2  A    between atoms: N_4  and  C_5
REMARK    3  A    between atoms: C_5  and  C_6
REMARK    4  A    between atoms: C_12  and  C_13
REMARK    5  A    between atoms: C_14  and  C_15
REMARK                            x       y       z     vdW  Elec       q    Type
REMARK                         _______ _______ _______ _____ _____    ______ ____
ROOT
ATOM      1  C   UNL     1       8.233   4.754  18.818  0.00  0.00    +0.000 C 
ATOM      2  C   UNL     1       6.904   5.307  18.458  0.00  0.00    +0.000 A 
ATOM      3  N   UNL     1       5.971   5.497  19.398  0.00  0.00    +0.000 NA
ATOM      4  N   UNL     1       4.891   5.952  18.715  0.00  0.00    +0.000 N 
ATOM      5  C   UNL     1       5.174   6.232  17.396  0.00  0.00    +0.000 A 
ATOM      6  C   UNL     1       4.259   6.909  16.446  0.00  0.00    +0.000 C 
ATOM      7  C   UNL     1       6.438   5.715  17.190  0.00  0.00    +0.000 A 
ENDROOT
BRANCH   7   8
ATOM      8  C   UNL     1       7.099   5.678  15.935  0.00  0.00    +0.000 C 
ATOM      9  C   UNL     1       6.828   4.836  14.913  0.00  0.00    +0.000 C 
ATOM     10  C   UNL     1       5.824   3.741  14.977  0.00  0.00    +0.000 C 
ATOM     11  O   UNL     1       5.189   3.424  15.972  0.00  0.00    +0.000 OA
ATOM     12  N   UNL     1       5.649   3.047  13.809  0.00  0.00    +0.000 N 
ATOM     13  C   UNL     1       6.304   3.253  12.637  0.00  0.00    +0.000 C 
ATOM     14  S   UNL     1       5.994   2.323  11.294  0.00  0.00    +0.000 S 
ATOM     15  N   UNL     1       7.229   4.250  12.606  0.00  0.00    +0.000 N 
ATOM     16  C   UNL     1       7.571   5.072  13.648  0.00  0.00    +0.000 C 
ATOM     17  O   UNL     1       8.420   5.944  13.507  0.00  0.00    +0.000 OA
ATOM     18  H   UNL     1       4.968   2.298  13.849  0.00  0.00    +0.000 HD
ATOM     19  H   UNL     1       7.718   4.417  11.736  0.00  0.00    +0.000 HD
ENDBRANCH   7   8
BRANCH   4  20
ATOM     20  C   UNL     1       3.656   6.207  19.451  0.00  0.00    +0.000 C 
BRANCH  20  21
ATOM     21  C   UNL     1       2.726   5.016  19.535  0.00  0.00    +0.000 A 
ATOM     22  C   UNL     1       2.212   4.579  20.767  0.00  0.00    +0.000 A 
ATOM     23  C   UNL     1       1.245   3.573  20.824  0.00  0.00    +0.000 A 
ATOM     24  C   UNL     1       0.775   2.988  19.650  0.00  0.00    +0.000 A 
ATOM     25  C   UNL     1       1.288   3.394  18.420  0.00  0.00    +0.000 A 
ATOM     26  C   UNL     1       2.258   4.400  18.363  0.00  0.00    +0.000 A 
ENDBRANCH  20  21
ENDBRANCH   4  20
TORSDOF 3
ENDMDL
MODEL 2
REMARK VINA RESULT:      -7.3      0.203      1.005
REMARK  Name = 
REMARK  5 active torsions:
REMARK  status: ('A' for Active; 'I' for Inactive)
REMARK    1  A    between atoms: C_1  and  C_2
REMARK    2  A    between atoms: N_4  and  C_5
REMARK    3  A    between atoms: C_5  and  C_6
REMARK    4  A    between atoms: C_12  and  C_13
REMARK    5  A    between atoms: C_14  and  C_15
REMARK                            x       y       z     vdW  Elec       q    Type
REMARK                         _______ _______ _______ _____ _____    ______ ____
ROOT
ATOM      1  C   UNL     1       8.004   4.825  18.982  0.00  0.00    +0.000 C 
ATOM      2  C   UNL     1       6.703   5.402  18.561  0.00  0.00    +0.000 A 
ATOM      3  N   UNL     1       5.738   5.626  19.461  0.00  0.00    +0.000 NA
ATOM      4  N   UNL     1       4.696   6.094  18.729  0.00  0.00    +0.000 N 
ATOM      5  C   UNL     1       5.038   6.349  17.419  0.00  0.00    +0.000 A 
ATOM      6  C   UNL     1       4.175   7.032  16.424  0.00  0.00    +0.000 C 
ATOM      7  C   UNL     1       6.296   5.801  17.270  0.00  0.00    +0.000 A 
ENDROOT
BRANCH   7   8
ATOM      8  C   UNL     1       7.005   5.731  16.043  0.00  0.00    +0.000 C 
ATOM      9  C   UNL     1       6.744   4.894  15.015  0.00  0.00    +0.000 C 
ATOM     10  C   UNL     1       5.697   3.838  15.044  0.00  0.00    +0.000 C 
ATOM     11  O   UNL     1       5.011   3.551  16.014  0.00  0.00    +0.000 OA
ATOM     12  N   UNL     1       5.543   3.144  13.873  0.00  0.00    +0.000 N 
ATOM     13  C   UNL     1       6.252   3.317  12.728  0.00  0.00    +0.000 C 
ATOM     14  S   UNL     1       5.961   2.392  11.378  0.00  0.00    +0.000 S 
ATOM     15  N   UNL     1       7.214   4.279  12.729  0.00  0.00    +0.000 N 
ATOM     16  C   UNL     1       7.546   5.093  13.780  0.00  0.00    +0.000 C 
ATOM     17  O   UNL     1       8.432   5.932  13.669  0.00  0.00    +0.000 OA
ATOM     18  H   UNL     1       4.833   2.421  13.889  0.00  0.00    +0.000 HD
ATOM     19  H   UNL     1       7.744   4.421  11.878  0.00  0.00    +0.000 HD
ENDBRANCH   7   8
BRANCH   4  20
ATOM     20  C   UNL     1       3.439   6.387  19.413  0.00  0.00    +0.000 C 
BRANCH  20  21
ATOM     21  C   UNL     1       2.466   5.229  19.445  0.00  0.00    +0.000 A 
ATOM     22  C   UNL     1       2.120   4.535  18.273  0.00  0.00    +0.000 A 
ATOM     23  C   UNL     1       1.336   3.381  18.328  0.00  0.00    +0.000 A 
ATOM     24  C   UNL     1       0.885   2.900  19.555  0.00  0.00    +0.000 A 
ATOM     25  C   UNL     1       1.200   3.586  20.725  0.00  0.00    +0.000 A 
ATOM     26  C   UNL     1       1.984   4.743  20.671  0.00  0.00    +0.000 A 
ENDBRANCH  20  21
ENDBRANCH   4  20
TORSDOF 3
ENDMDL
MODEL 3
REMARK VINA RESULT:      -7.2      6.946      9.166
REMARK  Name = 
REMARK  5 active torsions:
REMARK  status: ('A' for Active; 'I' for Inactive)
REMARK    1  A    between atoms: C_1  and  C_2
REMARK    2  A    between atoms: N_4  and  C_5
REMARK    3  A    between atoms: C_5  and  C_6
REMARK    4  A    between atoms: C_12  and  C_13
REMARK    5  A    between atoms: C_14  and  C_15
REMARK                            x       y       z     vdW  Elec       q    Type
REMARK                         _______ _______ _______ _____ _____    ______ ____
ROOT
ATOM      1  C   UNL     1      -0.457   9.476  22.500  0.00  0.00    +0.000 C 
ATOM      2  C   UNL     1       0.338   9.059  21.319  0.00  0.00    +0.000 A 
ATOM      3  N   UNL     1       1.188   8.029  21.403  0.00  0.00    +0.000 NA
ATOM      4  N   UNL     1       1.768   7.969  20.178  0.00  0.00    +0.000 N 
ATOM      5  C   UNL     1       1.173   8.812  19.265  0.00  0.00    +0.000 A 
ATOM      6  C   UNL     1       1.458   8.842  17.810  0.00  0.00    +0.000 C 
ATOM      7  C   UNL     1       0.324   9.601  20.016  0.00  0.00    +0.000 A 
ENDROOT
BRANCH   7   8
ATOM      8  C   UNL     1      -0.423  10.694  19.506  0.00  0.00    +0.000 C 
ATOM      9  C   UNL     1      -0.111  12.003  19.628  0.00  0.00    +0.000 C 
ATOM     10  C   UNL     1       1.051  12.515  20.403  0.00  0.00    +0.000 C 
ATOM     11  O   UNL     1       1.806  11.831  21.077  0.00  0.00    +0.000 OA
ATOM     12  N   UNL     1       1.234  13.871  20.341  0.00  0.00    +0.000 N 
ATOM     13  C   UNL     1       0.462  14.765  19.671  0.00  0.00    +0.000 C 
ATOM     14  S   UNL     1       0.801  16.392  19.692  0.00  0.00    +0.000 S 
ATOM     15  N   UNL     1      -0.603  14.276  18.982  0.00  0.00    +0.000 N 
ATOM     16  C   UNL     1      -0.982  12.961  18.899  0.00  0.00    +0.000 C 
ATOM     17  O   UNL     1      -1.963  12.631  18.243  0.00  0.00    +0.000 OA
ATOM     18  H   UNL     1       2.023  14.225  20.870  0.00  0.00    +0.000 HD
ATOM     19  H   UNL     1      -1.181  14.932  18.473  0.00  0.00    +0.000 HD
ENDBRANCH   7   8
BRANCH   4  20
ATOM     20  C   UNL     1       2.810   6.972  19.947  0.00  0.00    +0.000 C 
BRANCH  20  21
ATOM     21  C   UNL     1       2.286   5.601  19.581  0.00  0.00    +0.000 A 
ATOM     22  C   UNL     1       1.699   4.764  20.545  0.00  0.00    +0.000 A 
ATOM     23  C   UNL     1       1.089   3.563  20.176  0.00  0.00    +0.000 A 
ATOM     24  C   UNL     1       1.056   3.178  18.837  0.00  0.00    +0.000 A 
ATOM     25  C   UNL     1       1.651   3.985  17.870  0.00  0.00    +0.000 A 
ATOM     26  C   UNL     1       2.263   5.187  18.239  0.00  0.00    +0.000 A 
ENDBRANCH  20  21
ENDBRANCH   4  20
TORSDOF 3
ENDMDL
MODEL 4
REMARK VINA RESULT:      -7.2      6.813      9.035
REMARK  Name = 
REMARK  5 active torsions:
REMARK  status: ('A' for Active; 'I' for Inactive)
REMARK    1  A    between atoms: C_1  and  C_2
REMARK    2  A    between atoms: N_4  and  C_5
REMARK    3  A    between atoms: C_5  and  C_6
REMARK    4  A    between atoms: C_12  and  C_13
REMARK    5  A    between atoms: C_14  and  C_15
REMARK                            x       y       z     vdW  Elec       q    Type
REMARK                         _______ _______ _______ _____ _____    ______ ____
ROOT
ATOM      1  C   UNL     1      -0.449   9.628  22.272  0.00  0.00    +0.000 C 
ATOM      2  C   UNL     1       0.399   9.115  21.169  0.00  0.00    +0.000 A 
ATOM      3  N   UNL     1       1.103   7.987  21.323  0.00  0.00    +0.000 NA
ATOM      4  N   UNL     1       1.788   7.855  20.160  0.00  0.00    +0.000 N 
ATOM      5  C   UNL     1       1.393   8.764  19.203  0.00  0.00    +0.000 A 
ATOM      6  C   UNL     1       1.821   8.758  17.783  0.00  0.00    +0.000 C 
ATOM      7  C   UNL     1       0.580   9.654  19.877  0.00  0.00    +0.000 A 
ENDROOT
BRANCH   7   8
ATOM      8  C   UNL     1       0.028  10.831  19.309  0.00  0.00    +0.000 C 
ATOM      9  C   UNL     1       0.432  12.099  19.546  0.00  0.00    +0.000 C 
ATOM     10  C   UNL     1       1.492  12.469  20.521  0.00  0.00    +0.000 C 
ATOM     11  O   UNL     1       2.062  11.691  21.272  0.00  0.00    +0.000 OA
ATOM     12  N   UNL     1       1.804  13.802  20.558  0.00  0.00    +0.000 N 
ATOM     13  C   UNL     1       1.236  14.789  19.818  0.00  0.00    +0.000 C 
ATOM     14  S   UNL     1       1.711  16.374  19.975  0.00  0.00    +0.000 S 
ATOM     15  N   UNL     1       0.258  14.430  18.944  0.00  0.00    +0.000 N 
ATOM     16  C   UNL     1      -0.218  13.162  18.736  0.00  0.00    +0.000 C 
ATOM     17  O   UNL     1      -1.104  12.950  17.916  0.00  0.00    +0.000 OA
ATOM     18  H   UNL     1       2.523  14.059  21.223  0.00  0.00    +0.000 HD
ATOM     19  H   UNL     1      -0.168  15.156  18.382  0.00  0.00    +0.000 HD
ENDBRANCH   7   8
BRANCH   4  20
ATOM     20  C   UNL     1       2.715   6.736  20.019  0.00  0.00    +0.000 C 
BRANCH  20  21
ATOM     21  C   UNL     1       2.060   5.434  19.609  0.00  0.00    +0.000 A 
ATOM     22  C   UNL     1       2.051   5.015  18.268  0.00  0.00    +0.000 A 
ATOM     23  C   UNL     1       1.574   3.751  17.916  0.00  0.00    +0.000 A 
ATOM     24  C   UNL     1       1.099   2.885  18.898  0.00  0.00    +0.000 A 
ATOM     25  C   UNL     1       1.081   3.291  20.230  0.00  0.00    +0.000 A 
ATOM     26  C   UNL     1       1.557   4.557  20.584  0.00  0.00    +0.000 A 
ENDBRANCH  20  21
ENDBRANCH   4  20
TORSDOF 3
ENDMDL
MODEL 5
REMARK VINA RESULT:      -7.1      7.259      9.615
REMARK  Name = 
REMARK  5 active torsions:
REMARK  status: ('A' for Active; 'I' for Inactive)
REMARK    1  A    between atoms: C_1  and  C_2
REMARK    2  A    between atoms: N_4  and  C_5
REMARK    3  A    between atoms: C_5  and  C_6
REMARK    4  A    between atoms: C_12  and  C_13
REMARK    5  A    between atoms: C_14  and  C_15
REMARK                            x       y       z     vdW  Elec       q    Type
REMARK                         _______ _______ _______ _____ _____    ______ ____
ROOT
ATOM      1  C   UNL     1      -0.175   9.471  23.077  0.00  0.00    +0.000 C 
ATOM      2  C   UNL     1       0.375   9.187  21.729  0.00  0.00    +0.000 A 
ATOM      3  N   UNL     1       1.265   8.203  21.553  0.00  0.00    +0.000 NA
ATOM      4  N   UNL     1       1.583   8.266  20.236  0.00  0.00    +0.000 N 
ATOM      5  C   UNL     1       0.779   9.139  19.536  0.00  0.00    +0.000 A 
ATOM      6  C   UNL     1       0.757   9.291  18.061  0.00  0.00    +0.000 C 
ATOM      7  C   UNL     1       0.072   9.822  20.506  0.00  0.00    +0.000 A 
ENDROOT
BRANCH   7   8
ATOM      8  C   UNL     1      -0.807  10.905  20.250  0.00  0.00    +0.000 C 
ATOM      9  C   UNL     1      -0.474  12.215  20.219  0.00  0.00    +0.000 C 
ATOM     10  C   UNL     1       0.881  12.740  20.532  0.00  0.00    +0.000 C 
ATOM     11  O   UNL     1       1.823  12.069  20.928  0.00  0.00    +0.000 OA
ATOM     12  N   UNL     1       1.030  14.092  20.371  0.00  0.00    +0.000 N 
ATOM     13  C   UNL     1       0.073  14.973  19.979  0.00  0.00    +0.000 C 
ATOM     14  S   UNL     1       0.395  16.597  19.835  0.00  0.00    +0.000 S 
ATOM     15  N   UNL     1      -1.163  14.472  19.712  0.00  0.00    +0.000 N 
ATOM     16  C   UNL     1      -1.544  13.159  19.803  0.00  0.00    +0.000 C 
ATOM     17  O   UNL     1      -2.690  12.818  19.534  0.00  0.00    +0.000 OA
ATOM     18  H   UNL     1       1.951  14.454  20.587  0.00  0.00    +0.000 HD
ATOM     19  H   UNL     1      -1.882  15.119  19.412  0.00  0.00    +0.000 HD
ENDBRANCH   7   8
BRANCH   4  20
ATOM     20  C   UNL     1       2.593   7.349  19.717  0.00  0.00    +0.000 C 
BRANCH  20  21
ATOM     21  C   UNL     1       2.068   5.967  19.391  0.00  0.00    +0.000 A 
ATOM     22  C   UNL     1       2.169   5.438  18.094  0.00  0.00    +0.000 A 
ATOM     23  C   UNL     1       1.815   4.112  17.831  0.00  0.00    +0.000 A 
ATOM     24  C   UNL     1       1.355   3.295  18.861  0.00  0.00    +0.000 A 
ATOM     25  C   UNL     1       1.229   3.808  20.149  0.00  0.00    +0.000 A 
ATOM     26  C   UNL     1       1.582   5.136  20.413  0.00  0.00    +0.000 A 
ENDBRANCH  20  21
ENDBRANCH   4  20
TORSDOF 3
ENDMDL
MODEL 6
REMARK VINA RESULT:      -6.9      4.231      7.611
REMARK  Name = 
REMARK  5 active torsions:
REMARK  status: ('A' for Active; 'I' for Inactive)
REMARK    1  A    between atoms: C_1  and  C_2
REMARK    2  A    between atoms: N_4  and  C_5
REMARK    3  A    between atoms: C_5  and  C_6
REMARK    4  A    between atoms: C_12  and  C_13
REMARK    5  A    between atoms: C_14  and  C_15
REMARK                            x       y       z     vdW  Elec       q    Type
REMARK                         _______ _______ _______ _____ _____    ______ ____
ROOT
ATOM      1  C   UNL     1       1.450   4.299  17.823  0.00  0.00    +0.000 C 
ATOM      2  C   UNL     1       2.794   4.862  17.545  0.00  0.00    +0.000 A 
ATOM      3  N   UNL     1       3.817   4.055  17.241  0.00  0.00    +0.000 NA
ATOM      4  N   UNL     1       4.878   4.889  17.108  0.00  0.00    +0.000 N 
ATOM      5  C   UNL     1       4.516   6.218  17.134  0.00  0.00    +0.000 A 
ATOM      6  C   UNL     1       5.415   7.360  16.834  0.00  0.00    +0.000 C 
ATOM      7  C   UNL     1       3.193   6.216  17.528  0.00  0.00    +0.000 A 
ENDROOT
BRANCH   7   8
ATOM      8  C   UNL     1       2.429   7.380  17.797  0.00  0.00    +0.000 C 
ATOM      9  C   UNL     1       1.984   7.783  19.008  0.00  0.00    +0.000 C 
ATOM     10  C   UNL     1       2.164   7.008  20.264  0.00  0.00    +0.000 C 
ATOM     11  O   UNL     1       2.659   5.892  20.339  0.00  0.00    +0.000 OA
ATOM     12  N   UNL     1       1.703   7.625  21.396  0.00  0.00    +0.000 N 
ATOM     13  C   UNL     1       1.098   8.839  21.470  0.00  0.00    +0.000 C 
ATOM     14  S   UNL     1       0.579   9.463  22.920  0.00  0.00    +0.000 S 
ATOM     15  N   UNL     1       0.931   9.523  20.307  0.00  0.00    +0.000 N 
ATOM     16  C   UNL     1       1.310   9.107  19.058  0.00  0.00    +0.000 C 
ATOM     17  O   UNL     1       1.112   9.810  18.074  0.00  0.00    +0.000 OA
ATOM     18  H   UNL     1       1.821   7.098  22.254  0.00  0.00    +0.000 HD
ATOM     19  H   UNL     1       0.487  10.432  20.351  0.00  0.00    +0.000 HD
ENDBRANCH   7   8
BRANCH   4  20
ATOM     20  C   UNL     1       6.190   4.312  16.829  0.00  0.00    +0.000 C 
BRANCH  20  21
ATOM     21  C   UNL     1       6.556   4.283  15.361  0.00  0.00    +0.000 A 
ATOM     22  C   UNL     1       5.823   3.512  14.443  0.00  0.00    +0.000 A 
ATOM     23  C   UNL     1       6.074   3.599  13.072  0.00  0.00    +0.000 A 
ATOM     24  C   UNL     1       7.061   4.459  12.596  0.00  0.00    +0.000 A 
ATOM     25  C   UNL     1       7.812   5.215  13.492  0.00  0.00    +0.000 A 
ATOM     26  C   UNL     1       7.563   5.127  14.865  0.00  0.00    +0.000 A 
ENDBRANCH  20  21
ENDBRANCH   4  20
TORSDOF 3
ENDMDL
MODEL 7
REMARK VINA RESULT:      -6.7      3.810      7.331
REMARK  Name = 
REMARK  5 active torsions:
REMARK  status: ('A' for Active; 'I' for Inactive)
REMARK    1  A    between atoms: C_1  and  C_2
REMARK    2  A    between atoms: N_4  and  C_5
REMARK    3  A    between atoms: C_5  and  C_6
REMARK    4  A    between atoms: C_12  and  C_13
REMARK    5  A    between atoms: C_14  and  C_15
REMARK                            x       y       z     vdW  Elec       q    Type
REMARK                         _______ _______ _______ _____ _____    ______ ____
ROOT
ATOM      1  C   UNL     1       2.160   3.689  17.253  0.00  0.00    +0.000 C 
ATOM      2  C   UNL     1       3.511   4.299  17.326  0.00  0.00    +0.000 A 
ATOM      3  N   UNL     1       4.489   3.878  16.516  0.00  0.00    +0.000 NA
ATOM      4  N   UNL     1       5.573   4.603  16.890  0.00  0.00    +0.000 N 
ATOM      5  C   UNL     1       5.261   5.603  17.785  0.00  0.00    +0.000 A 
ATOM      6  C   UNL     1       6.186   6.670  18.238  0.00  0.00    +0.000 C 
ATOM      7  C   UNL     1       3.957   5.347  18.160  0.00  0.00    +0.000 A 
ENDROOT
BRANCH   7   8
ATOM      8  C   UNL     1       3.248   6.064  19.157  0.00  0.00    +0.000 C 
ATOM      9  C   UNL     1       2.624   7.252  18.996  0.00  0.00    +0.000 C 
ATOM     10  C   UNL     1       2.651   8.046  17.739  0.00  0.00    +0.000 C 
ATOM     11  O   UNL     1       3.297   7.763  16.740  0.00  0.00    +0.000 OA
ATOM     12  N   UNL     1       1.894   9.187  17.759  0.00  0.00    +0.000 N 
ATOM     13  C   UNL     1       1.156   9.654  18.799  0.00  0.00    +0.000 C 
ATOM     14  S   UNL     1       0.289  11.067  18.684  0.00  0.00    +0.000 S 
ATOM     15  N   UNL     1       1.158   8.919  19.944  0.00  0.00    +0.000 N 
ATOM     16  C   UNL     1       1.838   7.749  20.156  0.00  0.00    +0.000 C 
ATOM     17  O   UNL     1       1.765   7.166  21.231  0.00  0.00    +0.000 OA
ATOM     18  H   UNL     1       1.912   9.732  16.905  0.00  0.00    +0.000 HD
ATOM     19  H   UNL     1       0.606   9.254  20.724  0.00  0.00    +0.000 HD
ENDBRANCH   7   8
BRANCH   4  20
ATOM     20  C   UNL     1       6.849   4.342  16.231  0.00  0.00    +0.000 C 
BRANCH  20  21
ATOM     21  C   UNL     1       6.793   4.409  14.720  0.00  0.00    +0.000 A 
ATOM     22  C   UNL     1       7.644   5.262  13.998  0.00  0.00    +0.000 A 
ATOM     23  C   UNL     1       7.689   5.216  12.603  0.00  0.00    +0.000 A 
ATOM     24  C   UNL     1       6.884   4.317  11.907  0.00  0.00    +0.000 A 
ATOM     25  C   UNL     1       6.019   3.479  12.606  0.00  0.00    +0.000 A 
ATOM     26  C   UNL     1       5.973   3.525  14.002  0.00  0.00    +0.000 A 
ENDBRANCH  20  21
ENDBRANCH   4  20
TORSDOF 3
ENDMDL
MODEL 8
REMARK VINA RESULT:      -6.7      6.791      9.083
REMARK  Name = 
REMARK  5 active torsions:
REMARK  status: ('A' for Active; 'I' for Inactive)
REMARK    1  A    between atoms: C_1  and  C_2
REMARK    2  A    between atoms: N_4  and  C_5
REMARK    3  A    between atoms: C_5  and  C_6
REMARK    4  A    between atoms: C_12  and  C_13
REMARK    5  A    between atoms: C_14  and  C_15
REMARK                            x       y       z     vdW  Elec       q    Type
REMARK                         _______ _______ _______ _____ _____    ______ ____
ROOT
ATOM      1  C   UNL     1      -0.515   8.984  22.161  0.00  0.00    +0.000 C 
ATOM      2  C   UNL     1       0.409   8.686  21.039  0.00  0.00    +0.000 A 
ATOM      3  N   UNL     1       1.311   7.704  21.146  0.00  0.00    +0.000 NA
ATOM      4  N   UNL     1       2.003   7.752  19.980  0.00  0.00    +0.000 N 
ATOM      5  C   UNL     1       1.441   8.613  19.063  0.00  0.00    +0.000 A 
ATOM      6  C   UNL     1       1.855   8.748  17.645  0.00  0.00    +0.000 C 
ATOM      7  C   UNL     1       0.480   9.305  19.773  0.00  0.00    +0.000 A 
ENDROOT
BRANCH   7   8
ATOM      8  C   UNL     1      -0.285  10.382  19.255  0.00  0.00    +0.000 C 
ATOM      9  C   UNL     1      -0.097  11.694  19.515  0.00  0.00    +0.000 C 
ATOM     10  C   UNL     1       0.916  12.220  20.468  0.00  0.00    +0.000 C 
ATOM     11  O   UNL     1       1.637  11.535  21.180  0.00  0.00    +0.000 OA
ATOM     12  N   UNL     1       0.996  13.586  20.534  0.00  0.00    +0.000 N 
ATOM     13  C   UNL     1       0.242  14.477  19.839  0.00  0.00    +0.000 C 
ATOM     14  S   UNL     1       0.443  16.116  20.027  0.00  0.00    +0.000 S 
ATOM     15  N   UNL     1      -0.688  13.974  18.984  0.00  0.00    +0.000 N 
ATOM     16  C   UNL     1      -0.947  12.648  18.755  0.00  0.00    +0.000 C 
ATOM     17  O   UNL     1      -1.810  12.305  17.956  0.00  0.00    +0.000 OA
ATOM     18  H   UNL     1       1.683  13.947  21.184  0.00  0.00    +0.000 HD
ATOM     19  H   UNL     1      -1.251  14.629  18.456  0.00  0.00    +0.000 HD
ENDBRANCH   7   8
BRANCH   4  20
ATOM     20  C   UNL     1       3.122   6.833  19.794  0.00  0.00    +0.000 C 
BRANCH  20  21
ATOM     21  C   UNL     1       2.800   5.629  18.936  0.00  0.00    +0.000 A 
ATOM     22  C   UNL     1       3.642   5.242  17.880  0.00  0.00    +0.000 A 
ATOM     23  C   UNL     1       3.418   4.052  17.184  0.00  0.00    +0.000 A 
ATOM     24  C   UNL     1       2.350   3.229  17.533  0.00  0.00    +0.000 A 
ATOM     25  C   UNL     1       1.493   3.607  18.564  0.00  0.00    +0.000 A 
ATOM     26  C   UNL     1       1.715   4.799  19.260  0.00  0.00    +0.000 A 
ENDBRANCH  20  21
ENDBRANCH   4  20
TORSDOF 3
ENDMDL
MODEL 9
REMARK VINA RESULT:      -6.7      6.865      9.074
REMARK  Name = 
REMARK  5 active torsions:
REMARK  status: ('A' for Active; 'I' for Inactive)
REMARK    1  A    between atoms: C_1  and  C_2
REMARK    2  A    between atoms: N_4  and  C_5
REMARK    3  A    between atoms: C_5  and  C_6
REMARK    4  A    between atoms: C_12  and  C_13
REMARK    5  A    between atoms: C_14  and  C_15
REMARK                            x       y       z     vdW  Elec       q    Type
REMARK                         _______ _______ _______ _____ _____    ______ ____
ROOT
ATOM      1  C   UNL     1       1.959  10.352  17.780  0.00  0.00    +0.000 C 
ATOM      2  C   UNL     1       1.561   9.545  18.959  0.00  0.00    +0.000 A 
ATOM      3  N   UNL     1       2.178   8.388  19.227  0.00  0.00    +0.000 NA
ATOM      4  N   UNL     1       1.533   7.906  20.320  0.00  0.00    +0.000 N 
ATOM      5  C   UNL     1       0.652   8.816  20.861  0.00  0.00    +0.000 A 
ATOM      6  C   UNL     1      -0.062   8.658  22.152  0.00  0.00    +0.000 C 
ATOM      7  C   UNL     1       0.577   9.832  19.929  0.00  0.00    +0.000 A 
ENDROOT
BRANCH   7   8
ATOM      8  C   UNL     1      -0.301  10.943  20.015  0.00  0.00    +0.000 C 
ATOM      9  C   UNL     1      -1.422  11.135  19.285  0.00  0.00    +0.000 C 
ATOM     10  C   UNL     1      -1.876  10.227  18.198  0.00  0.00    +0.000 C 
ATOM     11  O   UNL     1      -1.258   9.256  17.785  0.00  0.00    +0.000 OA
ATOM     12  N   UNL     1      -3.077  10.560  17.629  0.00  0.00    +0.000 N 
ATOM     13  C   UNL     1      -3.858  11.624  17.948  0.00  0.00    +0.000 C 
ATOM     14  S   UNL     1      -5.295  11.912  17.164  0.00  0.00    +0.000 S 
ATOM     15  N   UNL     1      -3.417  12.449  18.935  0.00  0.00    +0.000 N 
ATOM     16  C   UNL     1      -2.250  12.316  19.643  0.00  0.00    +0.000 C 
ATOM     17  O   UNL     1      -1.952  13.119  20.518  0.00  0.00    +0.000 OA
ATOM     18  H   UNL     1      -3.388   9.946  16.886  0.00  0.00    +0.000 HD
ATOM     19  H   UNL     1      -3.995  13.241  19.186  0.00  0.00    +0.000 HD
ENDBRANCH   7   8
BRANCH   4  20
ATOM     20  C   UNL     1       1.929   6.603  20.846  0.00  0.00    +0.000 C 
BRANCH  20  21
ATOM     21  C   UNL     1       1.652   5.446  19.911  0.00  0.00    +0.000 A 
ATOM     22  C   UNL     1       2.139   5.442  18.593  0.00  0.00    +0.000 A 
ATOM     23  C   UNL     1       2.003   4.313  17.782  0.00  0.00    +0.000 A 
ATOM     24  C   UNL     1       1.379   3.169  18.275  0.00  0.00    +0.000 A 
ATOM     25  C   UNL     1       0.872   3.162  19.572  0.00  0.00    +0.000 A 
ATOM     26  C   UNL     1       1.006   4.293  20.384  0.00  0.00    +0.000 A 
ENDBRANCH  20  21
ENDBRANCH   4  20
TORSDOF 3
ENDMDL
