MODEL 1
REMARK VINA RESULT:      -6.3      0.000      0.000
REMARK  Name = 
REMARK  9 active torsions:
REMARK  status: ('A' for Active; 'I' for Inactive)
REMARK    1  A    between atoms: C_1  and  C_2
REMARK    2  A    between atoms: C_2  and  C_14
REMARK    3  A    between atoms: C_3  and  C_4
REMARK    4  A    between atoms: C_4  and  O_5
REMARK    5  A    between atoms: C_4  and  C_6
REMARK    6  A    between atoms: C_6  and  O_7
REMARK    7  A    between atoms: C_6  and  C_8
REMARK    8  A    between atoms: C_14  and  C_15
REMARK    9  A    between atoms: C_15  and  O_16
REMARK                            x       y       z     vdW  Elec       q    Type
REMARK                         _______ _______ _______ _____ _____    ______ ____
ROOT
ATOM      1  C   UNL     1       6.259   5.396  16.500  0.00  0.00    +0.000 C 
ENDROOT
BRANCH   1   4
ATOM      2  C   UNL     1       7.493   4.984  13.622  0.00  0.00    +0.000 C 
ATOM      3  C   UNL     1       6.185   4.430  14.116  0.00  0.00    +0.000 C 
ATOM      4  C   UNL     1       5.676   4.619  15.350  0.00  0.00    +0.000 C 
BRANCH   3   5
ATOM      5  C   UNL     1       5.383   3.649  13.088  0.00  0.00    +0.000 C 
BRANCH   5   6
ATOM      6  C   UNL     1       6.249   3.095  11.954  0.00  0.00    +0.000 C 
BRANCH   6   7
ATOM      7  O   UNL     1       5.933   1.734  11.669  0.00  0.00    +0.000 OA
ATOM      8  H   UNL     1       5.395   1.727  10.859  0.00  0.00    +0.000 HD
ENDBRANCH   6   7
ENDBRANCH   5   6
ENDBRANCH   3   5
ENDBRANCH   1   4
BRANCH   1   9
ATOM      9  O   UNL     1       5.952   6.770  16.224  0.00  0.00    +0.000 OA
ATOM     10  H   UNL     1       5.203   6.743  15.599  0.00  0.00    +0.000 HD
ENDBRANCH   1   9
BRANCH   1  11
ATOM     11  C   UNL     1       5.657   4.988  17.883  0.00  0.00    +0.000 C 
BRANCH  11  12
ATOM     12  C   UNL     1       4.237   4.439  17.856  0.00  0.00    +0.000 A 
ATOM     13  C   UNL     1       3.154   5.336  17.878  0.00  0.00    +0.000 A 
ATOM     14  C   UNL     1       1.835   4.873  17.901  0.00  0.00    +0.000 A 
ATOM     15  C   UNL     1       1.576   3.506  17.892  0.00  0.00    +0.000 A 
ATOM     16  C   UNL     1       2.633   2.606  17.856  0.00  0.00    +0.000 A 
ATOM     17  C   UNL     1       3.949   3.064  17.840  0.00  0.00    +0.000 A 
ENDBRANCH  11  12
BRANCH  11  18
ATOM     18  O   UNL     1       6.521   3.988  18.461  0.00  0.00    +0.000 OA
ATOM     19  H   UNL     1       6.453   3.188  17.911  0.00  0.00    +0.000 HD
ENDBRANCH  11  18
ENDBRANCH   1  11
TORSDOF 8
ENDMDL
MODEL 2
REMARK VINA RESULT:      -6.2      2.579      4.415
REMARK  Name = 
REMARK  9 active torsions:
REMARK  status: ('A' for Active; 'I' for Inactive)
REMARK    1  A    between atoms: C_1  and  C_2
REMARK    2  A    between atoms: C_2  and  C_14
REMARK    3  A    between atoms: C_3  and  C_4
REMARK    4  A    between atoms: C_4  and  O_5
REMARK    5  A    between atoms: C_4  and  C_6
REMARK    6  A    between atoms: C_6  and  O_7
REMARK    7  A    between atoms: C_6  and  C_8
REMARK    8  A    between atoms: C_14  and  C_15
REMARK    9  A    between atoms: C_15  and  O_16
REMARK                            x       y       z     vdW  Elec       q    Type
REMARK                         _______ _______ _______ _____ _____    ______ ____
ROOT
ATOM      1  C   UNL     1       4.044   4.926  17.091  0.00  0.00    +0.000 C 
ENDROOT
BRANCH   1   4
ATOM      2  C   UNL     1       6.913   4.569  15.817  0.00  0.00    +0.000 C 
ATOM      3  C   UNL     1       6.609   4.810  17.270  0.00  0.00    +0.000 C 
ATOM      4  C   UNL     1       5.375   4.961  17.793  0.00  0.00    +0.000 C 
BRANCH   3   5
ATOM      5  C   UNL     1       7.818   4.824  18.191  0.00  0.00    +0.000 C 
BRANCH   5   6
ATOM      6  C   UNL     1       7.702   5.863  19.308  0.00  0.00    +0.000 C 
BRANCH   6   7
ATOM      7  O   UNL     1       8.130   5.335  20.563  0.00  0.00    +0.000 OA
ATOM      8  H   UNL     1       9.085   5.171  20.494  0.00  0.00    +0.000 HD
ENDBRANCH   6   7
ENDBRANCH   5   6
ENDBRANCH   3   5
ENDBRANCH   1   4
BRANCH   1   9
ATOM      9  O   UNL     1       3.769   3.537  16.865  0.00  0.00    +0.000 OA
ATOM     10  H   UNL     1       3.030   3.524  16.228  0.00  0.00    +0.000 HD
ENDBRANCH   1   9
BRANCH   1  11
ATOM     11  C   UNL     1       2.892   5.565  17.931  0.00  0.00    +0.000 C 
BRANCH  11  12
ATOM     12  C   UNL     1       2.272   4.673  18.997  0.00  0.00    +0.000 A 
ATOM     13  C   UNL     1       2.700   4.798  20.331  0.00  0.00    +0.000 A 
ATOM     14  C   UNL     1       2.189   3.967  21.333  0.00  0.00    +0.000 A 
ATOM     15  C   UNL     1       1.235   3.003  21.020  0.00  0.00    +0.000 A 
ATOM     16  C   UNL     1       0.791   2.875  19.711  0.00  0.00    +0.000 A 
ATOM     17  C   UNL     1       1.303   3.698  18.708  0.00  0.00    +0.000 A 
ENDBRANCH  11  12
BRANCH  11  18
ATOM     18  O   UNL     1       3.417   6.746  18.572  0.00  0.00    +0.000 OA
ATOM     19  H   UNL     1       4.334   6.860  18.269  0.00  0.00    +0.000 HD
ENDBRANCH  11  18
ENDBRANCH   1  11
TORSDOF 8
ENDMDL
MODEL 3
REMARK VINA RESULT:      -6.1      2.062      2.958
REMARK  Name = 
REMARK  9 active torsions:
REMARK  status: ('A' for Active; 'I' for Inactive)
REMARK    1  A    between atoms: C_1  and  C_2
REMARK    2  A    between atoms: C_2  and  C_14
REMARK    3  A    between atoms: C_3  and  C_4
REMARK    4  A    between atoms: C_4  and  O_5
REMARK    5  A    between atoms: C_4  and  C_6
REMARK    6  A    between atoms: C_6  and  O_7
REMARK    7  A    between atoms: C_6  and  C_8
REMARK    8  A    between atoms: C_14  and  C_15
REMARK    9  A    between atoms: C_15  and  O_16
REMARK                            x       y       z     vdW  Elec       q    Type
REMARK                         _______ _______ _______ _____ _____    ______ ____
ROOT
ATOM      1  C   UNL     1       4.376   5.974  17.787  0.00  0.00    +0.000 C 
ENDROOT
BRANCH   1   4
ATOM      2  C   UNL     1       7.203   4.603  17.459  0.00  0.00    +0.000 C 
ATOM      3  C   UNL     1       6.053   4.510  16.494  0.00  0.00    +0.000 C 
ATOM      4  C   UNL     1       4.853   5.104  16.655  0.00  0.00    +0.000 C 
BRANCH   3   5
ATOM      5  C   UNL     1       6.332   3.718  15.228  0.00  0.00    +0.000 C 
BRANCH   5   6
ATOM      6  C   UNL     1       6.585   4.611  14.011  0.00  0.00    +0.000 C 
BRANCH   6   7
ATOM      7  O   UNL     1       7.749   5.417  14.184  0.00  0.00    +0.000 OA
ATOM      8  H   UNL     1       8.516   4.867  13.952  0.00  0.00    +0.000 HD
ENDBRANCH   6   7
ENDBRANCH   5   6
ENDBRANCH   3   5
ENDBRANCH   1   4
BRANCH   1   9
ATOM      9  O   UNL     1       4.926   7.273  17.526  0.00  0.00    +0.000 OA
ATOM     10  H   UNL     1       4.846   7.756  18.370  0.00  0.00    +0.000 HD
ENDBRANCH   1   9
BRANCH   1  11
ATOM     11  C   UNL     1       2.819   6.066  17.874  0.00  0.00    +0.000 C 
BRANCH  11  12
ATOM     12  C   UNL     1       2.128   4.953  18.651  0.00  0.00    +0.000 A 
ATOM     13  C   UNL     1       2.019   5.058  20.050  0.00  0.00    +0.000 A 
ATOM     14  C   UNL     1       1.433   4.037  20.805  0.00  0.00    +0.000 A 
ATOM     15  C   UNL     1       0.938   2.900  20.175  0.00  0.00    +0.000 A 
ATOM     16  C   UNL     1       1.025   2.786  18.793  0.00  0.00    +0.000 A 
ATOM     17  C   UNL     1       1.614   3.799  18.038  0.00  0.00    +0.000 A 
ENDBRANCH  11  12
BRANCH  11  18
ATOM     18  O   UNL     1       2.486   7.327  18.490  0.00  0.00    +0.000 OA
ATOM     19  H   UNL     1       1.927   7.820  17.865  0.00  0.00    +0.000 HD
ENDBRANCH  11  18
ENDBRANCH   1  11
TORSDOF 8
ENDMDL
MODEL 4
REMARK VINA RESULT:      -6.1      2.522      4.427
REMARK  Name = 
REMARK  9 active torsions:
REMARK  status: ('A' for Active; 'I' for Inactive)
REMARK    1  A    between atoms: C_1  and  C_2
REMARK    2  A    between atoms: C_2  and  C_14
REMARK    3  A    between atoms: C_3  and  C_4
REMARK    4  A    between atoms: C_4  and  O_5
REMARK    5  A    between atoms: C_4  and  C_6
REMARK    6  A    between atoms: C_6  and  O_7
REMARK    7  A    between atoms: C_6  and  C_8
REMARK    8  A    between atoms: C_14  and  C_15
REMARK    9  A    between atoms: C_15  and  O_16
REMARK                            x       y       z     vdW  Elec       q    Type
REMARK                         _______ _______ _______ _____ _____    ______ ____
ROOT
ATOM      1  C   UNL     1       4.132   4.576  17.026  0.00  0.00    +0.000 C 
ENDROOT
BRANCH   1   4
ATOM      2  C   UNL     1       7.019   4.587  15.743  0.00  0.00    +0.000 C 
ATOM      3  C   UNL     1       6.695   4.715  17.207  0.00  0.00    +0.000 C 
ATOM      4  C   UNL     1       5.454   4.708  17.733  0.00  0.00    +0.000 C 
BRANCH   3   5
ATOM      5  C   UNL     1       7.899   4.802  18.131  0.00  0.00    +0.000 C 
BRANCH   5   6
ATOM      6  C   UNL     1       7.767   5.913  19.175  0.00  0.00    +0.000 C 
BRANCH   6   7
ATOM      7  O   UNL     1       8.042   5.433  20.489  0.00  0.00    +0.000 OA
ATOM      8  H   UNL     1       7.627   4.557  20.568  0.00  0.00    +0.000 HD
ENDBRANCH   6   7
ENDBRANCH   5   6
ENDBRANCH   3   5
ENDBRANCH   1   4
BRANCH   1   9
ATOM      9  O   UNL     1       3.886   3.165  16.939  0.00  0.00    +0.000 OA
ATOM     10  H   UNL     1       4.121   2.922  16.024  0.00  0.00    +0.000 HD
ENDBRANCH   1   9
BRANCH   1  11
ATOM     11  C   UNL     1       2.958   5.271  17.787  0.00  0.00    +0.000 C 
BRANCH  11  12
ATOM     12  C   UNL     1       2.370   4.496  18.958  0.00  0.00    +0.000 A 
ATOM     13  C   UNL     1       1.324   3.585  18.721  0.00  0.00    +0.000 A 
ATOM     14  C   UNL     1       0.726   2.887  19.775  0.00  0.00    +0.000 A 
ATOM     15  C   UNL     1       1.168   3.080  21.080  0.00  0.00    +0.000 A 
ATOM     16  C   UNL     1       2.209   3.965  21.329  0.00  0.00    +0.000 A 
ATOM     17  C   UNL     1       2.804   4.667  20.282  0.00  0.00    +0.000 A 
ENDBRANCH  11  12
BRANCH  11  18
ATOM     18  O   UNL     1       3.441   6.540  18.276  0.00  0.00    +0.000 OA
ATOM     19  H   UNL     1       3.864   6.999  17.530  0.00  0.00    +0.000 HD
ENDBRANCH  11  18
ENDBRANCH   1  11
TORSDOF 8
ENDMDL
MODEL 5
REMARK VINA RESULT:      -6.1      1.684      2.259
REMARK  Name = 
REMARK  9 active torsions:
REMARK  status: ('A' for Active; 'I' for Inactive)
REMARK    1  A    between atoms: C_1  and  C_2
REMARK    2  A    between atoms: C_2  and  C_14
REMARK    3  A    between atoms: C_3  and  C_4
REMARK    4  A    between atoms: C_4  and  O_5
REMARK    5  A    between atoms: C_4  and  C_6
REMARK    6  A    between atoms: C_6  and  O_7
REMARK    7  A    between atoms: C_6  and  C_8
REMARK    8  A    between atoms: C_14  and  C_15
REMARK    9  A    between atoms: C_15  and  O_16
REMARK                            x       y       z     vdW  Elec       q    Type
REMARK                         _______ _______ _______ _____ _____    ______ ____
ROOT
ATOM      1  C   UNL     1       4.811   5.722  18.096  0.00  0.00    +0.000 C 
ENDROOT
BRANCH   1   4
ATOM      2  C   UNL     1       7.143   5.105  16.056  0.00  0.00    +0.000 C 
ATOM      3  C   UNL     1       5.676   4.855  15.833  0.00  0.00    +0.000 C 
ATOM      4  C   UNL     1       4.697   5.126  16.719  0.00  0.00    +0.000 C 
BRANCH   3   5
ATOM      5  C   UNL     1       5.315   4.301  14.465  0.00  0.00    +0.000 C 
BRANCH   5   6
ATOM      6  C   UNL     1       6.541   4.026  13.592  0.00  0.00    +0.000 C 
BRANCH   6   7
ATOM      7  O   UNL     1       6.309   2.950  12.684  0.00  0.00    +0.000 OA
ATOM      8  H   UNL     1       5.623   3.244  12.061  0.00  0.00    +0.000 HD
ENDBRANCH   6   7
ENDBRANCH   5   6
ENDBRANCH   3   5
ENDBRANCH   1   4
BRANCH   1   9
ATOM      9  O   UNL     1       3.737   6.668  18.191  0.00  0.00    +0.000 OA
ATOM     10  H   UNL     1       2.987   6.248  17.729  0.00  0.00    +0.000 HD
ENDBRANCH   1   9
BRANCH   1  11
ATOM     11  C   UNL     1       4.684   4.661  19.236  0.00  0.00    +0.000 C 
BRANCH  11  12
ATOM     12  C   UNL     1       3.298   4.063  19.438  0.00  0.00    +0.000 A 
ATOM     13  C   UNL     1       2.877   3.011  18.605  0.00  0.00    +0.000 A 
ATOM     14  C   UNL     1       1.595   2.464  18.728  0.00  0.00    +0.000 A 
ATOM     15  C   UNL     1       0.717   2.954  19.690  0.00  0.00    +0.000 A 
ATOM     16  C   UNL     1       1.122   3.983  20.529  0.00  0.00    +0.000 A 
ATOM     17  C   UNL     1       2.397   4.535  20.406  0.00  0.00    +0.000 A 
ENDBRANCH  11  12
BRANCH  11  18
ATOM     18  O   UNL     1       5.605   3.590  18.945  0.00  0.00    +0.000 OA
ATOM     19  H   UNL     1       6.382   3.708  19.520  0.00  0.00    +0.000 HD
ENDBRANCH  11  18
ENDBRANCH   1  11
TORSDOF 8
ENDMDL
MODEL 6
REMARK VINA RESULT:      -6.0      2.238      2.959
REMARK  Name = 
REMARK  9 active torsions:
REMARK  status: ('A' for Active; 'I' for Inactive)
REMARK    1  A    between atoms: C_1  and  C_2
REMARK    2  A    between atoms: C_2  and  C_14
REMARK    3  A    between atoms: C_3  and  C_4
REMARK    4  A    between atoms: C_4  and  O_5
REMARK    5  A    between atoms: C_4  and  C_6
REMARK    6  A    between atoms: C_6  and  O_7
REMARK    7  A    between atoms: C_6  and  C_8
REMARK    8  A    between atoms: C_14  and  C_15
REMARK    9  A    between atoms: C_15  and  O_16
REMARK                            x       y       z     vdW  Elec       q    Type
REMARK                         _______ _______ _______ _____ _____    ______ ____
ROOT
ATOM      1  C   UNL     1       4.386   4.230  17.489  0.00  0.00    +0.000 C 
ENDROOT
BRANCH   1   4
ATOM      2  C   UNL     1       6.990   5.799  16.627  0.00  0.00    +0.000 C 
ATOM      3  C   UNL     1       6.258   4.771  15.807  0.00  0.00    +0.000 C 
ATOM      4  C   UNL     1       5.147   4.112  16.195  0.00  0.00    +0.000 C 
BRANCH   3   5
ATOM      5  C   UNL     1       6.823   4.529  14.417  0.00  0.00    +0.000 C 
BRANCH   5   6
ATOM      6  C   UNL     1       5.803   3.907  13.461  0.00  0.00    +0.000 C 
BRANCH   6   7
ATOM      7  O   UNL     1       6.397   2.899  12.645  0.00  0.00    +0.000 OA
ATOM      8  H   UNL     1       6.850   2.277  13.240  0.00  0.00    +0.000 HD
ENDBRANCH   6   7
ENDBRANCH   5   6
ENDBRANCH   3   5
ENDBRANCH   1   4
BRANCH   1   9
ATOM      9  O   UNL     1       3.672   5.471  17.398  0.00  0.00    +0.000 OA
ATOM     10  H   UNL     1       3.044   5.349  16.661  0.00  0.00    +0.000 HD
ENDBRANCH   1   9
BRANCH   1  11
ATOM     11  C   UNL     1       3.381   3.057  17.717  0.00  0.00    +0.000 C 
BRANCH  11  12
ATOM     12  C   UNL     1       2.682   3.031  19.069  0.00  0.00    +0.000 A 
ATOM     13  C   UNL     1       3.413   2.665  20.213  0.00  0.00    +0.000 A 
ATOM     14  C   UNL     1       2.797   2.584  21.466  0.00  0.00    +0.000 A 
ATOM     15  C   UNL     1       1.444   2.877  21.598  0.00  0.00    +0.000 A 
ATOM     16  C   UNL     1       0.710   3.254  20.481  0.00  0.00    +0.000 A 
ATOM     17  C   UNL     1       1.319   3.329  19.229  0.00  0.00    +0.000 A 
ENDBRANCH  11  12
BRANCH  11  18
ATOM     18  O   UNL     1       2.376   3.130  16.684  0.00  0.00    +0.000 OA
ATOM     19  H   UNL     1       1.991   4.024  16.714  0.00  0.00    +0.000 HD
ENDBRANCH  11  18
ENDBRANCH   1  11
TORSDOF 8
ENDMDL
MODEL 7
REMARK VINA RESULT:      -6.0      1.822      2.250
REMARK  Name = 
REMARK  9 active torsions:
REMARK  status: ('A' for Active; 'I' for Inactive)
REMARK    1  A    between atoms: C_1  and  C_2
REMARK    2  A    between atoms: C_2  and  C_14
REMARK    3  A    between atoms: C_3  and  C_4
REMARK    4  A    between atoms: C_4  and  O_5
REMARK    5  A    between atoms: C_4  and  C_6
REMARK    6  A    between atoms: C_6  and  O_7
REMARK    7  A    between atoms: C_6  and  C_8
REMARK    8  A    between atoms: C_14  and  C_15
REMARK    9  A    between atoms: C_15  and  O_16
REMARK                            x       y       z     vdW  Elec       q    Type
REMARK                         _______ _______ _______ _____ _____    ______ ____
ROOT
ATOM      1  C   UNL     1       4.863   6.343  17.679  0.00  0.00    +0.000 C 
ENDROOT
BRANCH   1   4
ATOM      2  C   UNL     1       7.405   4.543  17.149  0.00  0.00    +0.000 C 
ATOM      3  C   UNL     1       6.172   4.617  16.289  0.00  0.00    +0.000 C 
ATOM      4  C   UNL     1       5.097   5.392  16.535  0.00  0.00    +0.000 C 
BRANCH   3   5
ATOM      5  C   UNL     1       6.211   3.772  15.027  0.00  0.00    +0.000 C 
BRANCH   5   6
ATOM      6  C   UNL     1       6.664   4.561  13.797  0.00  0.00    +0.000 C 
BRANCH   6   7
ATOM      7  O   UNL     1       7.687   5.500  14.123  0.00  0.00    +0.000 OA
ATOM      8  H   UNL     1       8.455   5.294  13.563  0.00  0.00    +0.000 HD
ENDBRANCH   6   7
ENDBRANCH   5   6
ENDBRANCH   3   5
ENDBRANCH   1   4
BRANCH   1   9
ATOM      9  O   UNL     1       3.890   7.282  17.200  0.00  0.00    +0.000 OA
ATOM     10  H   UNL     1       4.410   8.036  16.863  0.00  0.00    +0.000 HD
ENDBRANCH   1   9
BRANCH   1  11
ATOM     11  C   UNL     1       4.327   5.634  18.964  0.00  0.00    +0.000 C 
BRANCH  11  12
ATOM     12  C   UNL     1       3.472   4.395  18.734  0.00  0.00    +0.000 A 
ATOM     13  C   UNL     1       2.108   4.550  18.425  0.00  0.00    +0.000 A 
ATOM     14  C   UNL     1       1.278   3.438  18.252  0.00  0.00    +0.000 A 
ATOM     15  C   UNL     1       1.799   2.153  18.375  0.00  0.00    +0.000 A 
ATOM     16  C   UNL     1       3.146   1.982  18.666  0.00  0.00    +0.000 A 
ATOM     17  C   UNL     1       3.975   3.089  18.846  0.00  0.00    +0.000 A 
ENDBRANCH  11  12
BRANCH  11  18
ATOM     18  O   UNL     1       5.465   5.260  19.768  0.00  0.00    +0.000 OA
ATOM     19  H   UNL     1       5.134   5.031  20.654  0.00  0.00    +0.000 HD
ENDBRANCH  11  18
ENDBRANCH   1  11
TORSDOF 8
ENDMDL
MODEL 8
REMARK VINA RESULT:      -6.0      3.045      6.404
REMARK  Name = 
REMARK  9 active torsions:
REMARK  status: ('A' for Active; 'I' for Inactive)
REMARK    1  A    between atoms: C_1  and  C_2
REMARK    2  A    between atoms: C_2  and  C_14
REMARK    3  A    between atoms: C_3  and  C_4
REMARK    4  A    between atoms: C_4  and  O_5
REMARK    5  A    between atoms: C_4  and  C_6
REMARK    6  A    between atoms: C_6  and  O_7
REMARK    7  A    between atoms: C_6  and  C_8
REMARK    8  A    between atoms: C_14  and  C_15
REMARK    9  A    between atoms: C_15  and  O_16
REMARK                            x       y       z     vdW  Elec       q    Type
REMARK                         _______ _______ _______ _____ _____    ______ ____
ROOT
ATOM      1  C   UNL     1       4.530   3.447  18.367  0.00  0.00    +0.000 C 
ENDROOT
BRANCH   1   4
ATOM      2  C   UNL     1       1.518   4.246  17.846  0.00  0.00    +0.000 C 
ATOM      3  C   UNL     1       2.123   3.872  19.172  0.00  0.00    +0.000 C 
ATOM      4  C   UNL     1       3.413   3.533  19.372  0.00  0.00    +0.000 C 
BRANCH   3   5
ATOM      5  C   UNL     1       1.177   3.948  20.359  0.00  0.00    +0.000 C 
BRANCH   5   6
ATOM      6  C   UNL     1       1.348   2.779  21.331  0.00  0.00    +0.000 C 
BRANCH   6   7
ATOM      7  O   UNL     1       2.256   3.099  22.384  0.00  0.00    +0.000 OA
ATOM      8  H   UNL     1       2.201   2.382  23.038  0.00  0.00    +0.000 HD
ENDBRANCH   6   7
ENDBRANCH   5   6
ENDBRANCH   3   5
ENDBRANCH   1   4
BRANCH   1   9
ATOM      9  O   UNL     1       4.213   2.317  17.541  0.00  0.00    +0.000 OA
ATOM     10  H   UNL     1       3.255   2.176  17.661  0.00  0.00    +0.000 HD
ENDBRANCH   1   9
BRANCH   1  11
ATOM     11  C   UNL     1       4.658   4.729  17.483  0.00  0.00    +0.000 C 
BRANCH  11  12
ATOM     12  C   UNL     1       5.871   5.608  17.755  0.00  0.00    +0.000 A 
ATOM     13  C   UNL     1       6.777   5.234  18.764  0.00  0.00    +0.000 A 
ATOM     14  C   UNL     1       7.878   6.038  19.076  0.00  0.00    +0.000 A 
ATOM     15  C   UNL     1       8.097   7.222  18.380  0.00  0.00    +0.000 A 
ATOM     16  C   UNL     1       7.220   7.599  17.371  0.00  0.00    +0.000 A 
ATOM     17  C   UNL     1       6.118   6.804  17.061  0.00  0.00    +0.000 A 
ENDBRANCH  11  12
BRANCH  11  18
ATOM     18  O   UNL     1       4.698   4.310  16.103  0.00  0.00    +0.000 OA
ATOM     19  H   UNL     1       5.383   3.623  16.025  0.00  0.00    +0.000 HD
ENDBRANCH  11  18
ENDBRANCH   1  11
TORSDOF 8
ENDMDL
MODEL 9
REMARK VINA RESULT:      -6.0      1.830      2.543
REMARK  Name = 
REMARK  9 active torsions:
REMARK  status: ('A' for Active; 'I' for Inactive)
REMARK    1  A    between atoms: C_1  and  C_2
REMARK    2  A    between atoms: C_2  and  C_14
REMARK    3  A    between atoms: C_3  and  C_4
REMARK    4  A    between atoms: C_4  and  O_5
REMARK    5  A    between atoms: C_4  and  C_6
REMARK    6  A    between atoms: C_6  and  O_7
REMARK    7  A    between atoms: C_6  and  C_8
REMARK    8  A    between atoms: C_14  and  C_15
REMARK    9  A    between atoms: C_15  and  O_16
REMARK                            x       y       z     vdW  Elec       q    Type
REMARK                         _______ _______ _______ _____ _____    ______ ____
ROOT
ATOM      1  C   UNL     1       4.874   5.538  18.550  0.00  0.00    +0.000 C 
ENDROOT
BRANCH   1   4
ATOM      2  C   UNL     1       7.402   6.763  17.105  0.00  0.00    +0.000 C 
ATOM      3  C   UNL     1       6.603   5.576  16.643  0.00  0.00    +0.000 C 
ATOM      4  C   UNL     1       5.526   5.068  17.277  0.00  0.00    +0.000 C 
BRANCH   3   5
ATOM      5  C   UNL     1       7.051   4.966  15.326  0.00  0.00    +0.000 C 
BRANCH   5   6
ATOM      6  C   UNL     1       6.177   3.789  14.887  0.00  0.00    +0.000 C 
BRANCH   6   7
ATOM      7  O   UNL     1       6.330   3.511  13.496  0.00  0.00    +0.000 OA
ATOM      8  H   UNL     1       6.399   4.366  13.038  0.00  0.00    +0.000 HD
ENDBRANCH   6   7
ENDBRANCH   5   6
ENDBRANCH   3   5
ENDBRANCH   1   4
BRANCH   1   9
ATOM      9  O   UNL     1       3.652   6.169  18.140  0.00  0.00    +0.000 OA
ATOM     10  H   UNL     1       3.789   7.120  18.310  0.00  0.00    +0.000 HD
ENDBRANCH   1   9
BRANCH   1  11
ATOM     11  C   UNL     1       4.561   4.374  19.543  0.00  0.00    +0.000 C 
BRANCH  11  12
ATOM     12  C   UNL     1       3.152   3.802  19.477  0.00  0.00    +0.000 A 
ATOM     13  C   UNL     1       2.181   4.262  20.386  0.00  0.00    +0.000 A 
ATOM     14  C   UNL     1       0.888   3.730  20.390  0.00  0.00    +0.000 A 
ATOM     15  C   UNL     1       0.540   2.737  19.479  0.00  0.00    +0.000 A 
ATOM     16  C   UNL     1       1.482   2.281  18.566  0.00  0.00    +0.000 A 
ATOM     17  C   UNL     1       2.774   2.805  18.563  0.00  0.00    +0.000 A 
ENDBRANCH  11  12
BRANCH  11  18
ATOM     18  O   UNL     1       5.498   3.308  19.283  0.00  0.00    +0.000 OA
ATOM     19  H   UNL     1       5.793   3.397  18.359  0.00  0.00    +0.000 HD
ENDBRANCH  11  18
ENDBRANCH   1  11
TORSDOF 8
ENDMDL
