MODEL 1
REMARK VINA RESULT:      -6.0      0.000      0.000
REMARK  Name = 
REMARK  5 active torsions:
REMARK  status: ('A' for Active; 'I' for Inactive)
REMARK    1  A    between atoms: C_1  and  O_2
REMARK    2  A    between atoms: O_2  and  C_3
REMARK    3  A    between atoms: C_5  and  C_6
REMARK    4  A    between atoms: C_11  and  O_12
REMARK    5  A    between atoms: C_18  and  O_19
REMARK                            x       y       z     vdW  Elec       q    Type
REMARK                         _______ _______ _______ _____ _____    ______ ____
ROOT
ATOM      1  C   UNL     1       8.594  14.405  21.031  0.00  0.00    +0.000 C 
ATOM      2  C   UNL     1       7.801  16.277  20.616  0.00  0.00    +0.000 C 
ATOM      3  C   UNL     1       8.776  16.136  19.710  0.00  0.00    +0.000 C 
ATOM      4  C   UNL     1       9.030  17.385  18.891  0.00  0.00    +0.000 C 
ATOM      5  C   UNL     1       9.153  16.356  21.590  0.00  0.00    +0.000 C 
ATOM      6  C   UNL     1       7.464  15.764  22.477  0.00  0.00    +0.000 C 
ATOM      7  C   UNL     1       6.394  14.843  21.106  0.00  0.00    +0.000 C 
ATOM      8  I   UNL     1       4.313  15.562  21.170  0.00  0.00    +0.000 I 
ATOM      9  C   UNL     1       7.198  15.204  19.354  0.00  0.00    +0.000 C 
ATOM     10  C   UNL     1      10.487  15.629  21.725  0.00  0.00    +0.000 C 
ATOM     11  C   UNL     1      11.594  16.388  21.024  0.00  0.00    +0.000 C 
ATOM     12  C   UNL     1      12.155  16.025  19.857  0.00  0.00    +0.000 C 
ATOM     13  C   UNL     1      11.733  14.817  19.137  0.00  0.00    +0.000 A 
ATOM     14  C   UNL     1      12.263  14.490  17.875  0.00  0.00    +0.000 A 
ATOM     15  C   UNL     1      11.848  13.324  17.222  0.00  0.00    +0.000 A 
ATOM     16  C   UNL     1      10.934  12.472  17.823  0.00  0.00    +0.000 A 
ATOM     17  F   UNL     1      10.535  11.347  17.212  0.00  0.00    +0.000 F 
ATOM     18  C   UNL     1      10.407  12.786  19.066  0.00  0.00    +0.000 A 
ATOM     19  C   UNL     1      10.776  13.978  19.719  0.00  0.00    +0.000 A 
ATOM     20  C   UNL     1      10.164  14.328  21.058  0.00  0.00    +0.000 C 
ENDROOT
BRANCH   1  22
ATOM     21  C   UNL     1       8.755  12.328  22.414  0.00  0.00    +0.000 C 
ATOM     22  O   UNL     1       8.245  13.649  22.262  0.00  0.00    +0.000 OA
ENDBRANCH   1  22
BRANCH   9  23
ATOM     23  O   UNL     1       7.425  14.097  18.493  0.00  0.00    +0.000 OA
ATOM     24  H   UNL     1       7.760  14.463  17.652  0.00  0.00    +0.000 HD
ENDBRANCH   9  23
BRANCH  15  25
ATOM     25  O   UNL     1      12.331  12.992  15.987  0.00  0.00    +0.000 OA
ATOM     26  H   UNL     1      13.006  12.308  16.077  0.00  0.00    +0.000 HD
ENDBRANCH  15  25
TORSDOF 3
ENDMDL
MODEL 2
REMARK VINA RESULT:      -6.0     13.709     16.355
REMARK  Name = 
REMARK  5 active torsions:
REMARK  status: ('A' for Active; 'I' for Inactive)
REMARK    1  A    between atoms: C_1  and  O_2
REMARK    2  A    between atoms: O_2  and  C_3
REMARK    3  A    between atoms: C_5  and  C_6
REMARK    4  A    between atoms: C_11  and  O_12
REMARK    5  A    between atoms: C_18  and  O_19
REMARK                            x       y       z     vdW  Elec       q    Type
REMARK                         _______ _______ _______ _____ _____    ______ ____
ROOT
ATOM      1  C   UNL     1      -5.802  15.054  21.291  0.00  0.00    +0.000 C 
ATOM      2  C   UNL     1      -4.358  14.757  22.752  0.00  0.00    +0.000 C 
ATOM      3  C   UNL     1      -4.898  13.544  22.584  0.00  0.00    +0.000 C 
ATOM      4  C   UNL     1      -4.404  12.516  23.582  0.00  0.00    +0.000 C 
ATOM      5  C   UNL     1      -5.881  14.994  23.394  0.00  0.00    +0.000 C 
ATOM      6  C   UNL     1      -4.949  16.625  22.713  0.00  0.00    +0.000 C 
ATOM      7  C   UNL     1      -3.787  16.042  21.236  0.00  0.00    +0.000 C 
ATOM      8  I   UNL     1      -1.781  16.922  21.467  0.00  0.00    +0.000 I 
ATOM      9  C   UNL     1      -3.691  14.084  21.266  0.00  0.00    +0.000 C 
ATOM     10  C   UNL     1      -7.318  14.625  23.046  0.00  0.00    +0.000 C 
ATOM     11  C   UNL     1      -7.764  13.394  23.806  0.00  0.00    +0.000 C 
ATOM     12  C   UNL     1      -7.915  12.171  23.267  0.00  0.00    +0.000 C 
ATOM     13  C   UNL     1      -7.657  11.914  21.845  0.00  0.00    +0.000 A 
ATOM     14  C   UNL     1      -7.732  10.616  21.307  0.00  0.00    +0.000 A 
ATOM     15  C   UNL     1      -7.492  10.408  19.944  0.00  0.00    +0.000 A 
ATOM     16  C   UNL     1      -7.204  11.479  19.112  0.00  0.00    +0.000 A 
ATOM     17  F   UNL     1      -6.982  11.295  17.802  0.00  0.00    +0.000 F 
ATOM     18  C   UNL     1      -7.129  12.761  19.633  0.00  0.00    +0.000 A 
ATOM     19  C   UNL     1      -7.320  12.986  21.010  0.00  0.00    +0.000 A 
ATOM     20  C   UNL     1      -7.196  14.385  21.573  0.00  0.00    +0.000 C 
ENDROOT
BRANCH   1  22
ATOM     21  C   UNL     1      -7.130  16.520  19.760  0.00  0.00    +0.000 C 
ATOM     22  O   UNL     1      -6.216  16.411  20.848  0.00  0.00    +0.000 OA
ENDBRANCH   1  22
BRANCH   9  23
ATOM     23  O   UNL     1      -3.908  13.395  20.043  0.00  0.00    +0.000 OA
ATOM     24  H   UNL     1      -3.653  12.465  20.198  0.00  0.00    +0.000 HD
ENDBRANCH   9  23
BRANCH  15  25
ATOM     25  O   UNL     1      -7.539   9.155  19.397  0.00  0.00    +0.000 OA
ATOM     26  H   UNL     1      -8.458   8.873  19.316  0.00  0.00    +0.000 HD
ENDBRANCH  15  25
TORSDOF 3
ENDMDL
MODEL 3
REMARK VINA RESULT:      -5.9     12.847     15.936
REMARK  Name = 
REMARK  5 active torsions:
REMARK  status: ('A' for Active; 'I' for Inactive)
REMARK    1  A    between atoms: C_1  and  O_2
REMARK    2  A    between atoms: O_2  and  C_3
REMARK    3  A    between atoms: C_5  and  C_6
REMARK    4  A    between atoms: C_11  and  O_12
REMARK    5  A    between atoms: C_18  and  O_19
REMARK                            x       y       z     vdW  Elec       q    Type
REMARK                         _______ _______ _______ _____ _____    ______ ____
ROOT
ATOM      1  C   UNL     1      -4.804  14.777  21.762  0.00  0.00    +0.000 C 
ATOM      2  C   UNL     1      -3.725  14.280  23.464  0.00  0.00    +0.000 C 
ATOM      3  C   UNL     1      -4.560  13.246  23.301  0.00  0.00    +0.000 C 
ATOM      4  C   UNL     1      -4.526  12.252  24.444  0.00  0.00    +0.000 C 
ATOM      5  C   UNL     1      -5.189  14.996  23.820  0.00  0.00    +0.000 C 
ATOM      6  C   UNL     1      -3.745  16.219  23.182  0.00  0.00    +0.000 C 
ATOM      7  C   UNL     1      -2.604  15.168  21.971  0.00  0.00    +0.000 C 
ATOM      8  I   UNL     1      -0.482  15.494  22.466  0.00  0.00    +0.000 I 
ATOM      9  C   UNL     1      -3.078  13.276  22.167  0.00  0.00    +0.000 C 
ATOM     10  C   UNL     1      -6.609  14.991  23.265  0.00  0.00    +0.000 C 
ATOM     11  C   UNL     1      -7.490  14.027  24.032  0.00  0.00    +0.000 C 
ATOM     12  C   UNL     1      -7.908  12.835  23.571  0.00  0.00    +0.000 C 
ATOM     13  C   UNL     1      -7.539  12.347  22.237  0.00  0.00    +0.000 A 
ATOM     14  C   UNL     1      -7.907  11.063  21.795  0.00  0.00    +0.000 A 
ATOM     15  C   UNL     1      -7.549  10.634  20.513  0.00  0.00    +0.000 A 
ATOM     16  C   UNL     1      -6.853  11.479  19.661  0.00  0.00    +0.000 A 
ATOM     17  F   UNL     1      -6.512  11.084  18.425  0.00  0.00    +0.000 F 
ATOM     18  C   UNL     1      -6.487  12.745  20.086  0.00  0.00    +0.000 A 
ATOM     19  C   UNL     1      -6.796  13.179  21.390  0.00  0.00    +0.000 A 
ATOM     20  C   UNL     1      -6.356  14.550  21.856  0.00  0.00    +0.000 C 
ENDROOT
BRANCH   1  22
ATOM     21  C   UNL     1      -5.588  16.410  20.037  0.00  0.00    +0.000 C 
ATOM     22  O   UNL     1      -4.746  16.131  21.153  0.00  0.00    +0.000 OA
ENDBRANCH   1  22
BRANCH   9  23
ATOM     23  O   UNL     1      -3.310  12.529  20.981  0.00  0.00    +0.000 OA
ATOM     24  H   UNL     1      -2.509  12.623  20.431  0.00  0.00    +0.000 HD
ENDBRANCH   9  23
BRANCH  15  25
ATOM     25  O   UNL     1      -7.876   9.384  20.064  0.00  0.00    +0.000 OA
ATOM     26  H   UNL     1      -8.097   8.820  20.815  0.00  0.00    +0.000 HD
ENDBRANCH  15  25
TORSDOF 3
ENDMDL
MODEL 4
REMARK VINA RESULT:      -5.8      1.445      1.566
REMARK  Name = 
REMARK  5 active torsions:
REMARK  status: ('A' for Active; 'I' for Inactive)
REMARK    1  A    between atoms: C_1  and  O_2
REMARK    2  A    between atoms: O_2  and  C_3
REMARK    3  A    between atoms: C_5  and  C_6
REMARK    4  A    between atoms: C_11  and  O_12
REMARK    5  A    between atoms: C_18  and  O_19
REMARK                            x       y       z     vdW  Elec       q    Type
REMARK                         _______ _______ _______ _____ _____    ______ ____
ROOT
ATOM      1  C   UNL     1       7.621  14.792  20.419  0.00  0.00    +0.000 C 
ATOM      2  C   UNL     1       7.442  16.467  19.207  0.00  0.00    +0.000 C 
ATOM      3  C   UNL     1       8.594  15.910  18.815  0.00  0.00    +0.000 C 
ATOM      4  C   UNL     1       9.368  16.752  17.821  0.00  0.00    +0.000 C 
ATOM      5  C   UNL     1       8.401  16.743  20.545  0.00  0.00    +0.000 C 
ATOM      6  C   UNL     1       6.431  16.687  20.871  0.00  0.00    +0.000 C 
ATOM      7  C   UNL     1       5.668  15.459  19.538  0.00  0.00    +0.000 C 
ATOM      8  I   UNL     1       3.891  16.370  18.607  0.00  0.00    +0.000 I 
ATOM      9  C   UNL     1       7.040  15.086  18.188  0.00  0.00    +0.000 C 
ATOM     10  C   UNL     1       9.424  15.974  21.374  0.00  0.00    +0.000 C 
ATOM     11  C   UNL     1      10.836  16.312  20.945  0.00  0.00    +0.000 C 
ATOM     12  C   UNL     1      11.639  15.500  20.234  0.00  0.00    +0.000 C 
ATOM     13  C   UNL     1      11.204  14.167  19.799  0.00  0.00    +0.000 A 
ATOM     14  C   UNL     1      12.015  13.359  18.982  0.00  0.00    +0.000 A 
ATOM     15  C   UNL     1      11.575  12.089  18.595  0.00  0.00    +0.000 A 
ATOM     16  C   UNL     1      10.350  11.608  19.035  0.00  0.00    +0.000 A 
ATOM     17  F   UNL     1       9.921  10.388  18.681  0.00  0.00    +0.000 F 
ATOM     18  C   UNL     1       9.545  12.397  19.841  0.00  0.00    +0.000 A 
ATOM     19  C   UNL     1       9.949  13.697  20.202  0.00  0.00    +0.000 A 
ATOM     20  C   UNL     1       9.042  14.563  21.050  0.00  0.00    +0.000 C 
ENDROOT
BRANCH   1  22
ATOM     21  C   UNL     1       7.022  13.459  22.449  0.00  0.00    +0.000 C 
ATOM     22  O   UNL     1       6.742  14.564  21.595  0.00  0.00    +0.000 OA
ENDBRANCH   1  22
BRANCH   9  23
ATOM     23  O   UNL     1       7.271  13.728  17.841  0.00  0.00    +0.000 OA
ATOM     24  H   UNL     1       6.982  13.624  16.914  0.00  0.00    +0.000 HD
ENDBRANCH   9  23
BRANCH  15  25
ATOM     25  O   UNL     1      12.333  11.289  17.786  0.00  0.00    +0.000 OA
ATOM     26  H   UNL     1      12.566  11.772  16.983  0.00  0.00    +0.000 HD
ENDBRANCH  15  25
TORSDOF 3
ENDMDL
MODEL 5
REMARK VINA RESULT:      -5.8      2.213      3.292
REMARK  Name = 
REMARK  5 active torsions:
REMARK  status: ('A' for Active; 'I' for Inactive)
REMARK    1  A    between atoms: C_1  and  O_2
REMARK    2  A    between atoms: O_2  and  C_3
REMARK    3  A    between atoms: C_5  and  C_6
REMARK    4  A    between atoms: C_11  and  O_12
REMARK    5  A    between atoms: C_18  and  O_19
REMARK                            x       y       z     vdW  Elec       q    Type
REMARK                         _______ _______ _______ _____ _____    ______ ____
ROOT
ATOM      1  C   UNL     1       9.444  15.650  20.429  0.00  0.00    +0.000 C 
ATOM      2  C   UNL     1       8.057  16.486  19.131  0.00  0.00    +0.000 C 
ATOM      3  C   UNL     1       8.173  15.222  18.705  0.00  0.00    +0.000 C 
ATOM      4  C   UNL     1       7.429  14.946  17.415  0.00  0.00    +0.000 C 
ATOM      5  C   UNL     1       9.606  16.501  18.510  0.00  0.00    +0.000 C 
ATOM      6  C   UNL     1       9.209  17.863  19.916  0.00  0.00    +0.000 C 
ATOM      7  C   UNL     1       7.849  17.078  21.101  0.00  0.00    +0.000 C 
ATOM      8  I   UNL     1       6.242  18.539  21.471  0.00  0.00    +0.000 I 
ATOM      9  C   UNL     1       7.136  15.469  20.238  0.00  0.00    +0.000 C 
ATOM     10  C   UNL     1      10.832  15.594  18.523  0.00  0.00    +0.000 C 
ATOM     11  C   UNL     1      10.900  14.753  17.266  0.00  0.00    +0.000 C 
ATOM     12  C   UNL     1      10.626  13.438  17.206  0.00  0.00    +0.000 C 
ATOM     13  C   UNL     1      10.228  12.674  18.395  0.00  0.00    +0.000 A 
ATOM     14  C   UNL     1       9.859  11.319  18.309  0.00  0.00    +0.000 A 
ATOM     15  C   UNL     1       9.496  10.617  19.464  0.00  0.00    +0.000 A 
ATOM     16  C   UNL     1       9.523  11.244  20.701  0.00  0.00    +0.000 A 
ATOM     17  F   UNL     1       9.188  10.580  21.818  0.00  0.00    +0.000 F 
ATOM     18  C   UNL     1       9.886  12.578  20.795  0.00  0.00    +0.000 A 
ATOM     19  C   UNL     1      10.209  13.315  19.639  0.00  0.00    +0.000 A 
ATOM     20  C   UNL     1      10.565  14.781  19.752  0.00  0.00    +0.000 C 
ENDROOT
BRANCH   1  22
ATOM     21  C   UNL     1      10.697  15.871  22.583  0.00  0.00    +0.000 C 
ATOM     22  O   UNL     1      10.246  16.472  21.372  0.00  0.00    +0.000 OA
ENDBRANCH   1  22
BRANCH   9  23
ATOM     23  O   UNL     1       7.060  14.283  21.016  0.00  0.00    +0.000 OA
ATOM     24  H   UNL     1       7.054  14.562  21.951  0.00  0.00    +0.000 HD
ENDBRANCH   9  23
BRANCH  15  25
ATOM     25  O   UNL     1       9.114   9.306  19.408  0.00  0.00    +0.000 OA
ATOM     26  H   UNL     1       9.432   8.912  18.586  0.00  0.00    +0.000 HD
ENDBRANCH  15  25
TORSDOF 3
ENDMDL
MODEL 6
REMARK VINA RESULT:      -5.8      8.972     11.056
REMARK  Name = 
REMARK  5 active torsions:
REMARK  status: ('A' for Active; 'I' for Inactive)
REMARK    1  A    between atoms: C_1  and  O_2
REMARK    2  A    between atoms: O_2  and  C_3
REMARK    3  A    between atoms: C_5  and  C_6
REMARK    4  A    between atoms: C_11  and  O_12
REMARK    5  A    between atoms: C_18  and  O_19
REMARK                            x       y       z     vdW  Elec       q    Type
REMARK                         _______ _______ _______ _____ _____    ______ ____
ROOT
ATOM      1  C   UNL     1      -0.659  13.510  20.559  0.00  0.00    +0.000 C 
ATOM      2  C   UNL     1       1.312  13.982  20.113  0.00  0.00    +0.000 C 
ATOM      3  C   UNL     1       1.012  13.009  19.244  0.00  0.00    +0.000 C 
ATOM      4  C   UNL     1       2.200  12.531  18.435  0.00  0.00    +0.000 C 
ATOM      5  C   UNL     1       1.183  12.671  21.137  0.00  0.00    +0.000 C 
ATOM      6  C   UNL     1       0.870  14.464  21.961  0.00  0.00    +0.000 C 
ATOM      7  C   UNL     1       0.121  15.614  20.552  0.00  0.00    +0.000 C 
ATOM      8  I   UNL     1       1.159  17.557  20.537  0.00  0.00    +0.000 I 
ATOM      9  C   UNL     1       0.338  14.701  18.831  0.00  0.00    +0.000 C 
ATOM     10  C   UNL     1       0.255  11.475  21.322  0.00  0.00    +0.000 C 
ATOM     11  C   UNL     1       0.826  10.237  20.662  0.00  0.00    +0.000 C 
ATOM     12  C   UNL     1       0.371   9.698  19.517  0.00  0.00    +0.000 C 
ATOM     13  C   UNL     1      -0.761  10.278  18.783  0.00  0.00    +0.000 A 
ATOM     14  C   UNL     1      -1.175   9.760  17.542  0.00  0.00    +0.000 A 
ATOM     15  C   UNL     1      -2.265  10.330  16.875  0.00  0.00    +0.000 A 
ATOM     16  C   UNL     1      -2.958  11.389  17.442  0.00  0.00    +0.000 A 
ATOM     17  F   UNL     1      -4.011  11.937  16.818  0.00  0.00    +0.000 F 
ATOM     18  C   UNL     1      -2.558  11.904  18.665  0.00  0.00    +0.000 A 
ATOM     19  C   UNL     1      -1.434  11.376  19.330  0.00  0.00    +0.000 A 
ATOM     20  C   UNL     1      -0.983  11.975  20.645  0.00  0.00    +0.000 C 
ENDROOT
BRANCH   1  22
ATOM     21  C   UNL     1      -2.714  13.688  21.974  0.00  0.00    +0.000 C 
ATOM     22  O   UNL     1      -1.342  14.019  21.776  0.00  0.00    +0.000 OA
ENDBRANCH   1  22
BRANCH   9  23
ATOM     23  O   UNL     1      -0.796  14.619  17.980  0.00  0.00    +0.000 OA
ATOM     24  H   UNL     1      -1.121  13.700  18.036  0.00  0.00    +0.000 HD
ENDBRANCH   9  23
BRANCH  15  25
ATOM     25  O   UNL     1      -2.678   9.861  15.659  0.00  0.00    +0.000 OA
ATOM     26  H   UNL     1      -1.991  10.023  15.000  0.00  0.00    +0.000 HD
ENDBRANCH  15  25
TORSDOF 3
ENDMDL
MODEL 7
REMARK VINA RESULT:      -5.8      1.656      2.513
REMARK  Name = 
REMARK  5 active torsions:
REMARK  status: ('A' for Active; 'I' for Inactive)
REMARK    1  A    between atoms: C_1  and  O_2
REMARK    2  A    between atoms: O_2  and  C_3
REMARK    3  A    between atoms: C_5  and  C_6
REMARK    4  A    between atoms: C_11  and  O_12
REMARK    5  A    between atoms: C_18  and  O_19
REMARK                            x       y       z     vdW  Elec       q    Type
REMARK                         _______ _______ _______ _____ _____    ______ ____
ROOT
ATOM      1  C   UNL     1       9.276  16.095  20.820  0.00  0.00    +0.000 C 
ATOM      2  C   UNL     1       7.391  16.272  19.969  0.00  0.00    +0.000 C 
ATOM      3  C   UNL     1       8.066  15.514  19.097  0.00  0.00    +0.000 C 
ATOM      4  C   UNL     1       7.303  15.235  17.818  0.00  0.00    +0.000 C 
ATOM      5  C   UNL     1       8.478  17.382  19.358  0.00  0.00    +0.000 C 
ATOM      6  C   UNL     1       7.762  17.766  21.183  0.00  0.00    +0.000 C 
ATOM      7  C   UNL     1       7.382  16.028  22.022  0.00  0.00    +0.000 C 
ATOM      8  I   UNL     1       5.388  16.065  22.957  0.00  0.00    +0.000 I 
ATOM      9  C   UNL     1       7.472  14.643  20.637  0.00  0.00    +0.000 C 
ATOM     10  C   UNL     1       9.958  17.425  18.996  0.00  0.00    +0.000 C 
ATOM     11  C   UNL     1      10.163  17.194  17.513  0.00  0.00    +0.000 C 
ATOM     12  C   UNL     1      10.641  16.060  16.971  0.00  0.00    +0.000 C 
ATOM     13  C   UNL     1      11.025  14.909  17.796  0.00  0.00    +0.000 A 
ATOM     14  C   UNL     1      11.442  13.696  17.217  0.00  0.00    +0.000 A 
ATOM     15  C   UNL     1      11.812  12.621  18.034  0.00  0.00    +0.000 A 
ATOM     16  C   UNL     1      11.795  12.752  19.414  0.00  0.00    +0.000 A 
ATOM     17  F   UNL     1      12.157  11.733  20.208  0.00  0.00    +0.000 F 
ATOM     18  C   UNL     1      11.387  13.943  19.993  0.00  0.00    +0.000 A 
ATOM     19  C   UNL     1      10.965  15.021  19.190  0.00  0.00    +0.000 A 
ATOM     20  C   UNL     1      10.483  16.302  19.836  0.00  0.00    +0.000 C 
ENDROOT
BRANCH   1  22
ATOM     21  C   UNL     1      10.992  16.681  22.542  0.00  0.00    +0.000 C 
ATOM     22  O   UNL     1       9.704  16.918  21.981  0.00  0.00    +0.000 OA
ENDBRANCH   1  22
BRANCH   9  23
ATOM     23  O   UNL     1       8.243  13.483  20.914  0.00  0.00    +0.000 OA
ATOM     24  H   UNL     1       9.169  13.779  21.004  0.00  0.00    +0.000 HD
ENDBRANCH   9  23
BRANCH  15  25
ATOM     25  O   UNL     1      12.203  11.425  17.499  0.00  0.00    +0.000 OA
ATOM     26  H   UNL     1      13.052  11.164  17.877  0.00  0.00    +0.000 HD
ENDBRANCH  15  25
TORSDOF 3
ENDMDL
MODEL 8
REMARK VINA RESULT:      -5.6     13.646     16.054
REMARK  Name = 
REMARK  5 active torsions:
REMARK  status: ('A' for Active; 'I' for Inactive)
REMARK    1  A    between atoms: C_1  and  O_2
REMARK    2  A    between atoms: O_2  and  C_3
REMARK    3  A    between atoms: C_5  and  C_6
REMARK    4  A    between atoms: C_11  and  O_12
REMARK    5  A    between atoms: C_18  and  O_19
REMARK                            x       y       z     vdW  Elec       q    Type
REMARK                         _______ _______ _______ _____ _____    ______ ____
ROOT
ATOM      1  C   UNL     1      -5.721  14.477  21.717  0.00  0.00    +0.000 C 
ATOM      2  C   UNL     1      -4.112  13.167  21.668  0.00  0.00    +0.000 C 
ATOM      3  C   UNL     1      -4.529  13.209  20.397  0.00  0.00    +0.000 C 
ATOM      4  C   UNL     1      -3.826  12.216  19.494  0.00  0.00    +0.000 C 
ATOM      5  C   UNL     1      -5.577  12.378  21.789  0.00  0.00    +0.000 C 
ATOM      6  C   UNL     1      -4.905  13.245  23.458  0.00  0.00    +0.000 C 
ATOM      7  C   UNL     1      -3.843  14.805  22.902  0.00  0.00    +0.000 C 
ATOM      8  I   UNL     1      -1.932  14.843  23.997  0.00  0.00    +0.000 I 
ATOM      9  C   UNL     1      -3.530  14.679  20.970  0.00  0.00    +0.000 C 
ATOM     10  C   UNL     1      -6.994  12.546  21.251  0.00  0.00    +0.000 C 
ATOM     11  C   UNL     1      -7.221  11.676  20.034  0.00  0.00    +0.000 C 
ATOM     12  C   UNL     1      -7.292  12.127  18.769  0.00  0.00    +0.000 C 
ATOM     13  C   UNL     1      -7.154  13.553  18.446  0.00  0.00    +0.000 A 
ATOM     14  C   UNL     1      -7.142  14.007  17.114  0.00  0.00    +0.000 A 
ATOM     15  C   UNL     1      -7.021  15.375  16.842  0.00  0.00    +0.000 A 
ATOM     16  C   UNL     1      -6.939  16.291  17.880  0.00  0.00    +0.000 A 
ATOM     17  F   UNL     1      -6.834  17.605  17.634  0.00  0.00    +0.000 F 
ATOM     18  C   UNL     1      -6.952  15.852  19.195  0.00  0.00    +0.000 A 
ATOM     19  C   UNL     1      -7.024  14.477  19.489  0.00  0.00    +0.000 A 
ATOM     20  C   UNL     1      -6.997  14.008  20.928  0.00  0.00    +0.000 C 
ENDROOT
BRANCH   1  22
ATOM     21  C   UNL     1      -7.396  15.884  22.931  0.00  0.00    +0.000 C 
ATOM     22  O   UNL     1      -6.325  14.946  22.992  0.00  0.00    +0.000 OA
ENDBRANCH   1  22
BRANCH   9  23
ATOM     23  O   UNL     1      -3.795  15.831  20.183  0.00  0.00    +0.000 OA
ATOM     24  H   UNL     1      -4.675  15.698  19.781  0.00  0.00    +0.000 HD
ENDBRANCH   9  23
BRANCH  15  25
ATOM     25  O   UNL     1      -6.986  15.843  15.558  0.00  0.00    +0.000 OA
ATOM     26  H   UNL     1      -6.110  16.202  15.369  0.00  0.00    +0.000 HD
ENDBRANCH  15  25
TORSDOF 3
ENDMDL
MODEL 9
REMARK VINA RESULT:      -5.5     13.055     15.831
REMARK  Name = 
REMARK  5 active torsions:
REMARK  status: ('A' for Active; 'I' for Inactive)
REMARK    1  A    between atoms: C_1  and  O_2
REMARK    2  A    between atoms: O_2  and  C_3
REMARK    3  A    between atoms: C_5  and  C_6
REMARK    4  A    between atoms: C_11  and  O_12
REMARK    5  A    between atoms: C_18  and  O_19
REMARK                            x       y       z     vdW  Elec       q    Type
REMARK                         _______ _______ _______ _____ _____    ______ ____
ROOT
ATOM      1  C   UNL     1      -5.977  13.369  19.635  0.00  0.00    +0.000 C 
ATOM      2  C   UNL     1      -7.594  14.659  19.798  0.00  0.00    +0.000 C 
ATOM      3  C   UNL     1      -6.996  14.744  20.992  0.00  0.00    +0.000 C 
ATOM      4  C   UNL     1      -7.773  15.561  22.004  0.00  0.00    +0.000 C 
ATOM      5  C   UNL     1      -7.916  13.145  20.423  0.00  0.00    +0.000 C 
ATOM      6  C   UNL     1      -7.915  13.292  18.431  0.00  0.00    +0.000 C 
ATOM      7  C   UNL     1      -6.638  14.714  17.965  0.00  0.00    +0.000 C 
ATOM      8  I   UNL     1      -7.537  16.076  16.486  0.00  0.00    +0.000 I 
ATOM      9  C   UNL     1      -6.172  15.683  19.605  0.00  0.00    +0.000 C 
ATOM     10  C   UNL     1      -7.169  12.066  21.198  0.00  0.00    +0.000 C 
ATOM     11  C   UNL     1      -7.458  12.163  22.681  0.00  0.00    +0.000 C 
ATOM     12  C   UNL     1      -6.596  12.629  23.603  0.00  0.00    +0.000 C 
ATOM     13  C   UNL     1      -5.253  13.096  23.242  0.00  0.00    +0.000 A 
ATOM     14  C   UNL     1      -4.390  13.663  24.198  0.00  0.00    +0.000 A 
ATOM     15  C   UNL     1      -3.111  14.088  23.822  0.00  0.00    +0.000 A 
ATOM     16  C   UNL     1      -2.676  13.930  22.514  0.00  0.00    +0.000 A 
ATOM     17  F   UNL     1      -1.449  14.323  22.143  0.00  0.00    +0.000 F 
ATOM     18  C   UNL     1      -3.519  13.372  21.566  0.00  0.00    +0.000 A 
ATOM     19  C   UNL     1      -4.827  12.982  21.914  0.00  0.00    +0.000 A 
ATOM     20  C   UNL     1      -5.751  12.410  20.860  0.00  0.00    +0.000 C 
ENDROOT
BRANCH   1  22
ATOM     21  C   UNL     1      -4.607  11.694  18.379  0.00  0.00    +0.000 C 
ATOM     22  O   UNL     1      -5.824  12.425  18.497  0.00  0.00    +0.000 OA
ENDBRANCH   1  22
BRANCH   9  23
ATOM     23  O   UNL     1      -4.795  15.908  19.869  0.00  0.00    +0.000 OA
ATOM     24  H   UNL     1      -4.734  16.776  20.312  0.00  0.00    +0.000 HD
ENDBRANCH   9  23
BRANCH  15  25
ATOM     25  O   UNL     1      -2.258  14.660  24.725  0.00  0.00    +0.000 OA
ATOM     26  H   UNL     1      -2.598  15.525  24.987  0.00  0.00    +0.000 HD
ENDBRANCH  15  25
TORSDOF 3
ENDMDL
