MODEL 1
REMARK VINA RESULT:      -6.7      0.000      0.000
REMARK  Name = 
REMARK  12 active torsions:
REMARK  status: ('A' for Active; 'I' for Inactive)
REMARK    1  A    between atoms: C_1  and  C_2
REMARK    2  A    between atoms: C_2  and  C_3
REMARK    3  A    between atoms: C_2  and  N_4
REMARK    4  A    between atoms: N_4  and  C_5
REMARK    5  A    between atoms: C_5  and  C_6
REMARK    6  A    between atoms: C_6  and  O_7
REMARK    7  A    between atoms: C_6  and  C_8
REMARK    8  A    between atoms: C_8  and  O_9
REMARK    9  A    between atoms: O_9  and  C_10
REMARK   10  A    between atoms: C_13  and  O_14
REMARK   11  A    between atoms: O_14  and  C_15
REMARK   12  A    between atoms: C_15  and  N_16
REMARK                            x       y       z     vdW  Elec       q    Type
REMARK                         _______ _______ _______ _____ _____    ______ ____
ROOT
ATOM      1  C   UNL     1       5.375   6.382  17.388  0.00  0.00    +0.000 A 
ATOM      2  C   UNL     1       4.076   6.865  17.237  0.00  0.00    +0.000 A 
ATOM      3  C   UNL     1       3.113   6.630  18.217  0.00  0.00    +0.000 A 
ATOM      4  C   UNL     1       3.425   5.887  19.351  0.00  0.00    +0.000 A 
ATOM      5  C   UNL     1       4.717   5.392  19.517  0.00  0.00    +0.000 A 
ATOM      6  C   UNL     1       5.690   5.643  18.537  0.00  0.00    +0.000 A 
ENDROOT
BRANCH   1   7
ATOM      7  O   UNL     1       6.398   6.588  16.498  0.00  0.00    +0.000 OA
BRANCH   7   8
ATOM      8  C   UNL     1       7.034   5.390  16.020  0.00  0.00    +0.000 C 
BRANCH   8   9
ATOM      9  C   UNL     1       6.042   4.519  15.243  0.00  0.00    +0.000 C 
BRANCH   9  10
ATOM     10  O   UNL     1       5.920   3.232  15.861  0.00  0.00    +0.000 OA
ATOM     11  H   UNL     1       5.729   3.397  16.803  0.00  0.00    +0.000 HD
ENDBRANCH   9  10
BRANCH   9  12
ATOM     12  C   UNL     1       6.476   4.361  13.776  0.00  0.00    +0.000 C 
BRANCH  12  13
ATOM     13  N   UNL     1       6.137   3.015  13.297  0.00  0.00    +0.000 NA
ATOM     14  H   UNL     1       6.910   2.390  13.540  0.00  0.00    +0.000 HD
BRANCH  13  16
ATOM     15  C   UNL     1       6.154   1.541  11.370  0.00  0.00    +0.000 C 
ATOM     16  C   UNL     1       5.869   2.964  11.857  0.00  0.00    +0.000 C 
ATOM     17  C   UNL     1       4.419   3.336  11.534  0.00  0.00    +0.000 C 
ENDBRANCH  13  16
ENDBRANCH  12  13
ENDBRANCH   9  12
ENDBRANCH   8   9
ENDBRANCH   7   8
ENDBRANCH   1   7
BRANCH   4  18
ATOM     18  O   UNL     1       2.408   5.781  20.252  0.00  0.00    +0.000 OA
BRANCH  18  19
ATOM     19  C   UNL     1       2.359   4.561  20.987  0.00  0.00    +0.000 C 
BRANCH  19  20
ATOM     20  N   UNL     1       1.956   3.490  20.075  0.00  0.00    +0.000 N 
ATOM     21  C   UNL     1       2.716   2.439  19.632  0.00  0.00    +0.000 A 
ATOM     22  C   UNL     1       1.912   1.711  18.788  0.00  0.00    +0.000 A 
ATOM     23  C   UNL     1       0.679   2.386  18.802  0.00  0.00    +0.000 A 
ATOM     24  N   UNL     1       0.691   3.460  19.595  0.00  0.00    +0.000 NA
ENDBRANCH  19  20
ENDBRANCH  18  19
ENDBRANCH   4  18
TORSDOF 10
ENDMDL
MODEL 2
REMARK VINA RESULT:      -6.6      4.494      7.885
REMARK  Name = 
REMARK  12 active torsions:
REMARK  status: ('A' for Active; 'I' for Inactive)
REMARK    1  A    between atoms: C_1  and  C_2
REMARK    2  A    between atoms: C_2  and  C_3
REMARK    3  A    between atoms: C_2  and  N_4
REMARK    4  A    between atoms: N_4  and  C_5
REMARK    5  A    between atoms: C_5  and  C_6
REMARK    6  A    between atoms: C_6  and  O_7
REMARK    7  A    between atoms: C_6  and  C_8
REMARK    8  A    between atoms: C_8  and  O_9
REMARK    9  A    between atoms: O_9  and  C_10
REMARK   10  A    between atoms: C_13  and  O_14
REMARK   11  A    between atoms: O_14  and  C_15
REMARK   12  A    between atoms: C_15  and  N_16
REMARK                            x       y       z     vdW  Elec       q    Type
REMARK                         _______ _______ _______ _____ _____    ______ ____
ROOT
ATOM      1  C   UNL     1       6.034   5.008  17.841  0.00  0.00    +0.000 A 
ATOM      2  C   UNL     1       7.071   4.978  18.771  0.00  0.00    +0.000 A 
ATOM      3  C   UNL     1       7.908   6.079  18.936  0.00  0.00    +0.000 A 
ATOM      4  C   UNL     1       7.741   7.219  18.155  0.00  0.00    +0.000 A 
ATOM      5  C   UNL     1       6.713   7.265  17.216  0.00  0.00    +0.000 A 
ATOM      6  C   UNL     1       5.860   6.161  17.062  0.00  0.00    +0.000 A 
ENDROOT
BRANCH   1   7
ATOM      7  O   UNL     1       5.138   3.990  17.628  0.00  0.00    +0.000 OA
BRANCH   7   8
ATOM      8  C   UNL     1       3.806   4.417  17.297  0.00  0.00    +0.000 C 
BRANCH   8   9
ATOM      9  C   UNL     1       2.805   3.271  17.477  0.00  0.00    +0.000 C 
BRANCH   9  10
ATOM     10  O   UNL     1       1.475   3.721  17.187  0.00  0.00    +0.000 OA
ATOM     11  H   UNL     1       1.334   3.561  16.236  0.00  0.00    +0.000 HD
ENDBRANCH   9  10
BRANCH   9  12
ATOM     12  C   UNL     1       2.869   2.701  18.904  0.00  0.00    +0.000 C 
BRANCH  12  13
ATOM     13  N   UNL     1       3.326   3.739  19.837  0.00  0.00    +0.000 NA
ATOM     14  H   UNL     1       4.219   3.436  20.234  0.00  0.00    +0.000 HD
BRANCH  13  16
ATOM     15  C   UNL     1       1.736   5.393  20.625  0.00  0.00    +0.000 C 
ATOM     16  C   UNL     1       2.362   4.025  20.903  0.00  0.00    +0.000 C 
ATOM     17  C   UNL     1       1.261   2.963  20.975  0.00  0.00    +0.000 C 
ENDBRANCH  13  16
ENDBRANCH  12  13
ENDBRANCH   9  12
ENDBRANCH   8   9
ENDBRANCH   7   8
ENDBRANCH   1   7
BRANCH   4  18
ATOM     18  O   UNL     1       8.593   8.239  18.458  0.00  0.00    +0.000 OA
BRANCH  18  19
ATOM     19  C   UNL     1       8.271   9.503  17.884  0.00  0.00    +0.000 C 
BRANCH  19  20
ATOM     20  N   UNL     1       8.957  10.544  18.650  0.00  0.00    +0.000 N 
ATOM     21  C   UNL     1       9.549  10.423  19.881  0.00  0.00    +0.000 A 
ATOM     22  C   UNL     1      10.047  11.666  20.192  0.00  0.00    +0.000 A 
ATOM     23  C   UNL     1       9.727  12.466  19.080  0.00  0.00    +0.000 A 
ATOM     24  N   UNL     1       9.078  11.788  18.130  0.00  0.00    +0.000 NA
ENDBRANCH  19  20
ENDBRANCH  18  19
ENDBRANCH   4  18
TORSDOF 10
ENDMDL
MODEL 3
REMARK VINA RESULT:      -6.5      1.404      6.357
REMARK  Name = 
REMARK  12 active torsions:
REMARK  status: ('A' for Active; 'I' for Inactive)
REMARK    1  A    between atoms: C_1  and  C_2
REMARK    2  A    between atoms: C_2  and  C_3
REMARK    3  A    between atoms: C_2  and  N_4
REMARK    4  A    between atoms: N_4  and  C_5
REMARK    5  A    between atoms: C_5  and  C_6
REMARK    6  A    between atoms: C_6  and  O_7
REMARK    7  A    between atoms: C_6  and  C_8
REMARK    8  A    between atoms: C_8  and  O_9
REMARK    9  A    between atoms: O_9  and  C_10
REMARK   10  A    between atoms: C_13  and  O_14
REMARK   11  A    between atoms: O_14  and  C_15
REMARK   12  A    between atoms: C_15  and  N_16
REMARK                            x       y       z     vdW  Elec       q    Type
REMARK                         _______ _______ _______ _____ _____    ______ ____
ROOT
ATOM      1  C   UNL     1       3.885   5.521  19.326  0.00  0.00    +0.000 A 
ATOM      2  C   UNL     1       3.463   6.302  18.251  0.00  0.00    +0.000 A 
ATOM      3  C   UNL     1       4.272   6.457  17.127  0.00  0.00    +0.000 A 
ATOM      4  C   UNL     1       5.527   5.859  17.069  0.00  0.00    +0.000 A 
ATOM      5  C   UNL     1       5.968   5.079  18.136  0.00  0.00    +0.000 A 
ATOM      6  C   UNL     1       5.146   4.910  19.261  0.00  0.00    +0.000 A 
ENDROOT
BRANCH   1   7
ATOM      7  O   UNL     1       3.150   5.281  20.459  0.00  0.00    +0.000 OA
BRANCH   7   8
ATOM      8  C   UNL     1       1.729   5.210  20.255  0.00  0.00    +0.000 C 
BRANCH   8   9
ATOM      9  C   UNL     1       1.217   3.783  20.475  0.00  0.00    +0.000 C 
BRANCH   9  10
ATOM     10  O   UNL     1       2.208   2.997  21.151  0.00  0.00    +0.000 OA
ATOM     11  H   UNL     1       2.785   2.629  20.458  0.00  0.00    +0.000 HD
ENDBRANCH   9  10
BRANCH   9  12
ATOM     12  C   UNL     1       0.838   3.119  19.141  0.00  0.00    +0.000 C 
BRANCH  12  13
ATOM     13  N   UNL     1       1.573   1.858  18.983  0.00  0.00    +0.000 NA
ATOM     14  H   UNL     1       2.107   1.695  19.841  0.00  0.00    +0.000 HD
BRANCH  13  16
ATOM     15  C   UNL     1       2.360   3.209  17.128  0.00  0.00    +0.000 C 
ATOM     16  C   UNL     1       2.460   1.846  17.816  0.00  0.00    +0.000 C 
ATOM     17  C   UNL     1       3.915   1.576  18.209  0.00  0.00    +0.000 C 
ENDBRANCH  13  16
ENDBRANCH  12  13
ENDBRANCH   9  12
ENDBRANCH   8   9
ENDBRANCH   7   8
ENDBRANCH   1   7
BRANCH   4  18
ATOM     18  O   UNL     1       6.188   6.048  15.892  0.00  0.00    +0.000 OA
BRANCH  18  19
ATOM     19  C   UNL     1       7.197   5.089  15.589  0.00  0.00    +0.000 C 
BRANCH  19  20
ATOM     20  N   UNL     1       7.010   4.646  14.207  0.00  0.00    +0.000 N 
ATOM     21  C   UNL     1       7.718   5.037  13.100  0.00  0.00    +0.000 A 
ATOM     22  C   UNL     1       7.171   4.363  12.035  0.00  0.00    +0.000 A 
ATOM     23  C   UNL     1       6.154   3.573  12.598  0.00  0.00    +0.000 A 
ATOM     24  N   UNL     1       6.059   3.726  13.921  0.00  0.00    +0.000 NA
ENDBRANCH  19  20
ENDBRANCH  18  19
ENDBRANCH   4  18
TORSDOF 10
ENDMDL
MODEL 4
REMARK VINA RESULT:      -6.5      4.297      6.070
REMARK  Name = 
REMARK  12 active torsions:
REMARK  status: ('A' for Active; 'I' for Inactive)
REMARK    1  A    between atoms: C_1  and  C_2
REMARK    2  A    between atoms: C_2  and  C_3
REMARK    3  A    between atoms: C_2  and  N_4
REMARK    4  A    between atoms: N_4  and  C_5
REMARK    5  A    between atoms: C_5  and  C_6
REMARK    6  A    between atoms: C_6  and  O_7
REMARK    7  A    between atoms: C_6  and  C_8
REMARK    8  A    between atoms: C_8  and  O_9
REMARK    9  A    between atoms: O_9  and  C_10
REMARK   10  A    between atoms: C_13  and  O_14
REMARK   11  A    between atoms: O_14  and  C_15
REMARK   12  A    between atoms: C_15  and  N_16
REMARK                            x       y       z     vdW  Elec       q    Type
REMARK                         _______ _______ _______ _____ _____    ______ ____
ROOT
ATOM      1  C   UNL     1       3.107   6.551  19.233  0.00  0.00    +0.000 A 
ATOM      2  C   UNL     1       3.186   7.196  17.999  0.00  0.00    +0.000 A 
ATOM      3  C   UNL     1       2.431   8.341  17.749  0.00  0.00    +0.000 A 
ATOM      4  C   UNL     1       1.566   8.844  18.716  0.00  0.00    +0.000 A 
ATOM      5  C   UNL     1       1.471   8.209  19.952  0.00  0.00    +0.000 A 
ATOM      6  C   UNL     1       2.243   7.065  20.209  0.00  0.00    +0.000 A 
ENDROOT
BRANCH   1   7
ATOM      7  O   UNL     1       3.832   5.441  19.586  0.00  0.00    +0.000 OA
BRANCH   7   8
ATOM      8  C   UNL     1       3.178   4.186  19.335  0.00  0.00    +0.000 C 
BRANCH   8   9
ATOM      9  C   UNL     1       4.133   3.198  18.659  0.00  0.00    +0.000 C 
BRANCH   9  10
ATOM     10  O   UNL     1       4.843   2.438  19.646  0.00  0.00    +0.000 OA
ATOM     11  H   UNL     1       5.353   3.080  20.172  0.00  0.00    +0.000 HD
ENDBRANCH   9  10
BRANCH   9  12
ATOM     12  C   UNL     1       5.128   3.930  17.742  0.00  0.00    +0.000 C 
BRANCH  12  13
ATOM     13  N   UNL     1       6.386   4.169  18.459  0.00  0.00    +0.000 NA
ATOM     14  H   UNL     1       6.174   4.721  19.295  0.00  0.00    +0.000 HD
BRANCH  13  16
ATOM     15  C   UNL     1       7.011   4.681  16.171  0.00  0.00    +0.000 C 
ATOM     16  C   UNL     1       7.399   4.844  17.643  0.00  0.00    +0.000 C 
ATOM     17  C   UNL     1       7.505   6.333  17.982  0.00  0.00    +0.000 C 
ENDBRANCH  13  16
ENDBRANCH  12  13
ENDBRANCH   9  12
ENDBRANCH   8   9
ENDBRANCH   7   8
ENDBRANCH   1   7
BRANCH   4  18
ATOM     18  O   UNL     1       0.932   9.996  18.359  0.00  0.00    +0.000 OA
BRANCH  18  19
ATOM     19  C   UNL     1      -0.167  10.378  19.183  0.00  0.00    +0.000 C 
BRANCH  19  20
ATOM     20  N   UNL     1      -1.327  10.610  18.323  0.00  0.00    +0.000 N 
ATOM     21  C   UNL     1      -2.312  11.550  18.484  0.00  0.00    +0.000 A 
ATOM     22  C   UNL     1      -3.187  11.374  17.438  0.00  0.00    +0.000 A 
ATOM     23  C   UNL     1      -2.636  10.321  16.687  0.00  0.00    +0.000 A 
ATOM     24  N   UNL     1      -1.496   9.861  17.209  0.00  0.00    +0.000 NA
ENDBRANCH  19  20
ENDBRANCH  18  19
ENDBRANCH   4  18
TORSDOF 10
ENDMDL
MODEL 5
REMARK VINA RESULT:      -6.4      2.009      7.174
REMARK  Name = 
REMARK  12 active torsions:
REMARK  status: ('A' for Active; 'I' for Inactive)
REMARK    1  A    between atoms: C_1  and  C_2
REMARK    2  A    between atoms: C_2  and  C_3
REMARK    3  A    between atoms: C_2  and  N_4
REMARK    4  A    between atoms: N_4  and  C_5
REMARK    5  A    between atoms: C_5  and  C_6
REMARK    6  A    between atoms: C_6  and  O_7
REMARK    7  A    between atoms: C_6  and  C_8
REMARK    8  A    between atoms: C_8  and  O_9
REMARK    9  A    between atoms: O_9  and  C_10
REMARK   10  A    between atoms: C_13  and  O_14
REMARK   11  A    between atoms: O_14  and  C_15
REMARK   12  A    between atoms: C_15  and  N_16
REMARK                            x       y       z     vdW  Elec       q    Type
REMARK                         _______ _______ _______ _____ _____    ______ ____
ROOT
ATOM      1  C   UNL     1       3.828   3.153  19.123  0.00  0.00    +0.000 A 
ATOM      2  C   UNL     1       3.582   3.057  17.754  0.00  0.00    +0.000 A 
ATOM      3  C   UNL     1       4.313   3.822  16.847  0.00  0.00    +0.000 A 
ATOM      4  C   UNL     1       5.282   4.715  17.294  0.00  0.00    +0.000 A 
ATOM      5  C   UNL     1       5.538   4.828  18.659  0.00  0.00    +0.000 A 
ATOM      6  C   UNL     1       4.812   4.045  19.570  0.00  0.00    +0.000 A 
ENDROOT
BRANCH   1   7
ATOM      7  O   UNL     1       3.187   2.420  20.090  0.00  0.00    +0.000 OA
BRANCH   7   8
ATOM      8  C   UNL     1       2.712   3.183  21.211  0.00  0.00    +0.000 C 
BRANCH   8   9
ATOM      9  C   UNL     1       1.257   3.614  21.002  0.00  0.00    +0.000 C 
BRANCH   9  10
ATOM     10  O   UNL     1       0.527   2.586  20.318  0.00  0.00    +0.000 OA
ATOM     11  H   UNL     1       1.091   2.296  19.578  0.00  0.00    +0.000 HD
ENDBRANCH   9  10
BRANCH   9  12
ATOM     12  C   UNL     1       1.179   4.931  20.212  0.00  0.00    +0.000 C 
BRANCH  12  13
ATOM     13  N   UNL     1       2.138   5.899  20.758  0.00  0.00    +0.000 NA
ATOM     14  H   UNL     1       1.746   6.277  21.624  0.00  0.00    +0.000 HD
BRANCH  13  16
ATOM     15  C   UNL     1       2.210   6.478  18.403  0.00  0.00    +0.000 C 
ATOM     16  C   UNL     1       2.462   6.983  19.826  0.00  0.00    +0.000 C 
ATOM     17  C   UNL     1       1.613   8.230  20.085  0.00  0.00    +0.000 C 
ENDBRANCH  13  16
ENDBRANCH  12  13
ENDBRANCH   9  12
ENDBRANCH   8   9
ENDBRANCH   7   8
ENDBRANCH   1   7
BRANCH   4  18
ATOM     18  O   UNL     1       5.957   5.358  16.300  0.00  0.00    +0.000 OA
BRANCH  18  19
ATOM     19  C   UNL     1       7.144   4.716  15.844  0.00  0.00    +0.000 C 
BRANCH  19  20
ATOM     20  N   UNL     1       7.071   4.595  14.387  0.00  0.00    +0.000 N 
ATOM     21  C   UNL     1       6.261   3.766  13.656  0.00  0.00    +0.000 A 
ATOM     22  C   UNL     1       6.560   4.001  12.335  0.00  0.00    +0.000 A 
ATOM     23  C   UNL     1       7.546   5.003  12.367  0.00  0.00    +0.000 A 
ATOM     24  N   UNL     1       7.852   5.382  13.610  0.00  0.00    +0.000 NA
ENDBRANCH  19  20
ENDBRANCH  18  19
ENDBRANCH   4  18
TORSDOF 10
ENDMDL
MODEL 6
REMARK VINA RESULT:      -6.4      4.538      6.818
REMARK  Name = 
REMARK  12 active torsions:
REMARK  status: ('A' for Active; 'I' for Inactive)
REMARK    1  A    between atoms: C_1  and  C_2
REMARK    2  A    between atoms: C_2  and  C_3
REMARK    3  A    between atoms: C_2  and  N_4
REMARK    4  A    between atoms: N_4  and  C_5
REMARK    5  A    between atoms: C_5  and  C_6
REMARK    6  A    between atoms: C_6  and  O_7
REMARK    7  A    between atoms: C_6  and  C_8
REMARK    8  A    between atoms: C_8  and  O_9
REMARK    9  A    between atoms: O_9  and  C_10
REMARK   10  A    between atoms: C_13  and  O_14
REMARK   11  A    between atoms: O_14  and  C_15
REMARK   12  A    between atoms: C_15  and  N_16
REMARK                            x       y       z     vdW  Elec       q    Type
REMARK                         _______ _______ _______ _____ _____    ______ ____
ROOT
ATOM      1  C   UNL     1       2.624   6.832  18.539  0.00  0.00    +0.000 A 
ATOM      2  C   UNL     1       2.346   7.964  17.774  0.00  0.00    +0.000 A 
ATOM      3  C   UNL     1       1.726   9.072  18.348  0.00  0.00    +0.000 A 
ATOM      4  C   UNL     1       1.349   9.058  19.687  0.00  0.00    +0.000 A 
ATOM      5  C   UNL     1       1.614   7.933  20.465  0.00  0.00    +0.000 A 
ATOM      6  C   UNL     1       2.253   6.823  19.891  0.00  0.00    +0.000 A 
ENDROOT
BRANCH   1   7
ATOM      7  O   UNL     1       3.258   5.706  18.076  0.00  0.00    +0.000 OA
BRANCH   7   8
ATOM      8  C   UNL     1       4.687   5.711  18.231  0.00  0.00    +0.000 C 
BRANCH   8   9
ATOM      9  C   UNL     1       5.165   4.428  18.919  0.00  0.00    +0.000 C 
BRANCH   9  10
ATOM     10  O   UNL     1       6.409   3.994  18.353  0.00  0.00    +0.000 OA
ATOM     11  H   UNL     1       6.730   3.269  18.920  0.00  0.00    +0.000 HD
ENDBRANCH   9  10
BRANCH   9  12
ATOM     12  C   UNL     1       4.113   3.313  18.800  0.00  0.00    +0.000 C 
BRANCH  12  13
ATOM     13  N   UNL     1       3.458   3.103  20.098  0.00  0.00    +0.000 NA
ATOM     14  H   UNL     1       3.770   2.201  20.466  0.00  0.00    +0.000 HD
BRANCH  13  16
ATOM     15  C   UNL     1       1.541   2.132  18.973  0.00  0.00    +0.000 C 
ATOM     16  C   UNL     1       1.996   3.149  20.022  0.00  0.00    +0.000 C 
ATOM     17  C   UNL     1       1.345   2.823  21.369  0.00  0.00    +0.000 C 
ENDBRANCH  13  16
ENDBRANCH  12  13
ENDBRANCH   9  12
ENDBRANCH   8   9
ENDBRANCH   7   8
ENDBRANCH   1   7
BRANCH   4  18
ATOM     18  O   UNL     1       0.803  10.225  20.131  0.00  0.00    +0.000 OA
BRANCH  18  19
ATOM     19  C   UNL     1       0.845  10.431  21.540  0.00  0.00    +0.000 C 
BRANCH  19  20
ATOM     20  N   UNL     1      -0.394  11.096  21.945  0.00  0.00    +0.000 N 
ATOM     21  C   UNL     1      -1.182  11.926  21.190  0.00  0.00    +0.000 A 
ATOM     22  C   UNL     1      -2.222  12.312  22.002  0.00  0.00    +0.000 A 
ATOM     23  C   UNL     1      -1.989  11.647  23.219  0.00  0.00    +0.000 A 
ATOM     24  N   UNL     1      -0.888  10.893  23.188  0.00  0.00    +0.000 NA
ENDBRANCH  19  20
ENDBRANCH  18  19
ENDBRANCH   4  18
TORSDOF 10
ENDMDL
MODEL 7
REMARK VINA RESULT:      -6.3      4.569      7.728
REMARK  Name = 
REMARK  12 active torsions:
REMARK  status: ('A' for Active; 'I' for Inactive)
REMARK    1  A    between atoms: C_1  and  C_2
REMARK    2  A    between atoms: C_2  and  C_3
REMARK    3  A    between atoms: C_2  and  N_4
REMARK    4  A    between atoms: N_4  and  C_5
REMARK    5  A    between atoms: C_5  and  C_6
REMARK    6  A    between atoms: C_6  and  O_7
REMARK    7  A    between atoms: C_6  and  C_8
REMARK    8  A    between atoms: C_8  and  O_9
REMARK    9  A    between atoms: O_9  and  C_10
REMARK   10  A    between atoms: C_13  and  O_14
REMARK   11  A    between atoms: O_14  and  C_15
REMARK   12  A    between atoms: C_15  and  N_16
REMARK                            x       y       z     vdW  Elec       q    Type
REMARK                         _______ _______ _______ _____ _____    ______ ____
ROOT
ATOM      1  C   UNL     1       6.546   5.021  17.375  0.00  0.00    +0.000 A 
ATOM      2  C   UNL     1       6.530   6.270  16.756  0.00  0.00    +0.000 A 
ATOM      3  C   UNL     1       7.264   7.332  17.281  0.00  0.00    +0.000 A 
ATOM      4  C   UNL     1       8.003   7.172  18.449  0.00  0.00    +0.000 A 
ATOM      5  C   UNL     1       8.027   5.932  19.085  0.00  0.00    +0.000 A 
ATOM      6  C   UNL     1       7.301   4.859  18.546  0.00  0.00    +0.000 A 
ENDROOT
BRANCH   1   7
ATOM      7  O   UNL     1       5.886   3.908  16.918  0.00  0.00    +0.000 OA
BRANCH   7   8
ATOM      8  C   UNL     1       4.654   4.177  16.227  0.00  0.00    +0.000 C 
BRANCH   8   9
ATOM      9  C   UNL     1       3.456   4.028  17.170  0.00  0.00    +0.000 C 
BRANCH   9  10
ATOM     10  O   UNL     1       3.151   5.284  17.790  0.00  0.00    +0.000 OA
ATOM     11  H   UNL     1       2.985   5.092  18.731  0.00  0.00    +0.000 HD
ENDBRANCH   9  10
BRANCH   9  12
ATOM     12  C   UNL     1       3.727   2.961  18.244  0.00  0.00    +0.000 C 
BRANCH  12  13
ATOM     13  N   UNL     1       3.156   3.388  19.527  0.00  0.00    +0.000 NA
ATOM     14  H   UNL     1       3.917   3.442  20.209  0.00  0.00    +0.000 HD
BRANCH  13  16
ATOM     15  C   UNL     1       1.814   2.849  21.476  0.00  0.00    +0.000 C 
ATOM     16  C   UNL     1       2.095   2.501  20.012  0.00  0.00    +0.000 C 
ATOM     17  C   UNL     1       0.809   2.651  19.194  0.00  0.00    +0.000 C 
ENDBRANCH  13  16
ENDBRANCH  12  13
ENDBRANCH   9  12
ENDBRANCH   8   9
ENDBRANCH   7   8
ENDBRANCH   1   7
BRANCH   4  18
ATOM     18  O   UNL     1       8.714   8.273  18.821  0.00  0.00    +0.000 OA
BRANCH  18  19
ATOM     19  C   UNL     1       8.407   9.474  18.117  0.00  0.00    +0.000 C 
BRANCH  19  20
ATOM     20  N   UNL     1       9.236  10.550  18.660  0.00  0.00    +0.000 N 
ATOM     21  C   UNL     1       9.825  11.580  17.973  0.00  0.00    +0.000 A 
ATOM     22  C   UNL     1      10.508  12.324  18.905  0.00  0.00    +0.000 A 
ATOM     23  C   UNL     1      10.255  11.680  20.129  0.00  0.00    +0.000 A 
ATOM     24  N   UNL     1       9.468  10.609  19.992  0.00  0.00    +0.000 NA
ENDBRANCH  19  20
ENDBRANCH  18  19
ENDBRANCH   4  18
TORSDOF 10
ENDMDL
MODEL 8
REMARK VINA RESULT:      -6.3      4.582      7.786
REMARK  Name = 
REMARK  12 active torsions:
REMARK  status: ('A' for Active; 'I' for Inactive)
REMARK    1  A    between atoms: C_1  and  C_2
REMARK    2  A    between atoms: C_2  and  C_3
REMARK    3  A    between atoms: C_2  and  N_4
REMARK    4  A    between atoms: N_4  and  C_5
REMARK    5  A    between atoms: C_5  and  C_6
REMARK    6  A    between atoms: C_6  and  O_7
REMARK    7  A    between atoms: C_6  and  C_8
REMARK    8  A    between atoms: C_8  and  O_9
REMARK    9  A    between atoms: O_9  and  C_10
REMARK   10  A    between atoms: C_13  and  O_14
REMARK   11  A    between atoms: O_14  and  C_15
REMARK   12  A    between atoms: C_15  and  N_16
REMARK                            x       y       z     vdW  Elec       q    Type
REMARK                         _______ _______ _______ _____ _____    ______ ____
ROOT
ATOM      1  C   UNL     1       6.333   4.958  17.372  0.00  0.00    +0.000 A 
ATOM      2  C   UNL     1       7.281   4.878  18.391  0.00  0.00    +0.000 A 
ATOM      3  C   UNL     1       7.994   6.009  18.787  0.00  0.00    +0.000 A 
ATOM      4  C   UNL     1       7.791   7.231  18.153  0.00  0.00    +0.000 A 
ATOM      5  C   UNL     1       6.851   7.329  17.130  0.00  0.00    +0.000 A 
ATOM      6  C   UNL     1       6.122   6.194  16.743  0.00  0.00    +0.000 A 
ENDROOT
BRANCH   1   7
ATOM      7  O   UNL     1       5.559   3.913  16.935  0.00  0.00    +0.000 OA
BRANCH   7   8
ATOM      8  C   UNL     1       4.147   4.182  16.895  0.00  0.00    +0.000 C 
BRANCH   8   9
ATOM      9  C   UNL     1       3.381   3.206  17.794  0.00  0.00    +0.000 C 
BRANCH   9  10
ATOM     10  O   UNL     1       2.242   2.680  17.100  0.00  0.00    +0.000 OA
ATOM     11  H   UNL     1       2.256   3.076  16.210  0.00  0.00    +0.000 HD
ENDBRANCH   9  10
BRANCH   9  12
ATOM     12  C   UNL     1       2.934   3.890  19.097  0.00  0.00    +0.000 C 
BRANCH  12  13
ATOM     13  N   UNL     1       3.741   5.094  19.332  0.00  0.00    +0.000 NA
ATOM     14  H   UNL     1       4.430   4.877  20.056  0.00  0.00    +0.000 HD
BRANCH  13  16
ATOM     15  C   UNL     1       2.529   6.999  18.441  0.00  0.00    +0.000 C 
ATOM     16  C   UNL     1       2.941   6.260  19.717  0.00  0.00    +0.000 C 
ATOM     17  C   UNL     1       1.690   5.858  20.503  0.00  0.00    +0.000 C 
ENDBRANCH  13  16
ENDBRANCH  12  13
ENDBRANCH   9  12
ENDBRANCH   8   9
ENDBRANCH   7   8
ENDBRANCH   1   7
BRANCH   4  18
ATOM     18  O   UNL     1       8.513   8.262  18.676  0.00  0.00    +0.000 OA
BRANCH  18  19
ATOM     19  C   UNL     1       8.357   9.519  18.022  0.00  0.00    +0.000 C 
BRANCH  19  20
ATOM     20  N   UNL     1       9.286  10.472  18.630  0.00  0.00    +0.000 N 
ATOM     21  C   UNL     1      10.142  11.330  17.989  0.00  0.00    +0.000 A 
ATOM     22  C   UNL     1      10.815  12.011  18.976  0.00  0.00    +0.000 A 
ATOM     23  C   UNL     1      10.283  11.512  20.178  0.00  0.00    +0.000 A 
ATOM     24  N   UNL     1       9.341  10.588  19.977  0.00  0.00    +0.000 NA
ENDBRANCH  19  20
ENDBRANCH  18  19
ENDBRANCH   4  18
TORSDOF 10
ENDMDL
MODEL 9
REMARK VINA RESULT:      -6.3      3.509      5.988
REMARK  Name = 
REMARK  12 active torsions:
REMARK  status: ('A' for Active; 'I' for Inactive)
REMARK    1  A    between atoms: C_1  and  C_2
REMARK    2  A    between atoms: C_2  and  C_3
REMARK    3  A    between atoms: C_2  and  N_4
REMARK    4  A    between atoms: N_4  and  C_5
REMARK    5  A    between atoms: C_5  and  C_6
REMARK    6  A    between atoms: C_6  and  O_7
REMARK    7  A    between atoms: C_6  and  C_8
REMARK    8  A    between atoms: C_8  and  O_9
REMARK    9  A    between atoms: O_9  and  C_10
REMARK   10  A    between atoms: C_13  and  O_14
REMARK   11  A    between atoms: O_14  and  C_15
REMARK   12  A    between atoms: C_15  and  N_16
REMARK                            x       y       z     vdW  Elec       q    Type
REMARK                         _______ _______ _______ _____ _____    ______ ____
ROOT
ATOM      1  C   UNL     1       1.472   4.016  18.671  0.00  0.00    +0.000 A 
ATOM      2  C   UNL     1       1.851   5.077  17.851  0.00  0.00    +0.000 A 
ATOM      3  C   UNL     1       2.071   6.345  18.387  0.00  0.00    +0.000 A 
ATOM      4  C   UNL     1       1.888   6.580  19.746  0.00  0.00    +0.000 A 
ATOM      5  C   UNL     1       1.504   5.533  20.581  0.00  0.00    +0.000 A 
ATOM      6  C   UNL     1       1.299   4.253  20.043  0.00  0.00    +0.000 A 
ENDROOT
BRANCH   1   7
ATOM      7  O   UNL     1       1.265   2.728  18.246  0.00  0.00    +0.000 OA
BRANCH   7   8
ATOM      8  C   UNL     1       2.037   1.732  18.938  0.00  0.00    +0.000 C 
BRANCH   8   9
ATOM      9  C   UNL     1       3.520   1.838  18.571  0.00  0.00    +0.000 C 
BRANCH   9  10
ATOM     10  O   UNL     1       4.025   0.559  18.163  0.00  0.00    +0.000 OA
ATOM     11  H   UNL     1       4.278   0.650  17.226  0.00  0.00    +0.000 HD
ENDBRANCH   9  10
BRANCH   9  12
ATOM     12  C   UNL     1       4.344   2.379  19.751  0.00  0.00    +0.000 C 
BRANCH  12  13
ATOM     13  N   UNL     1       5.502   3.130  19.249  0.00  0.00    +0.000 NA
ATOM     14  H   UNL     1       6.065   3.416  20.054  0.00  0.00    +0.000 HD
BRANCH  13  16
ATOM     15  C   UNL     1       5.449   5.555  19.250  0.00  0.00    +0.000 C 
ATOM     16  C   UNL     1       5.131   4.296  18.442  0.00  0.00    +0.000 C 
ATOM     17  C   UNL     1       5.890   4.333  17.113  0.00  0.00    +0.000 C 
ENDBRANCH  13  16
ENDBRANCH  12  13
ENDBRANCH   9  12
ENDBRANCH   8   9
ENDBRANCH   7   8
ENDBRANCH   1   7
BRANCH   4  18
ATOM     18  O   UNL     1       2.189   7.849  20.143  0.00  0.00    +0.000 OA
BRANCH  18  19
ATOM     19  C   UNL     1       1.323   8.410  21.125  0.00  0.00    +0.000 C 
BRANCH  19  20
ATOM     20  N   UNL     1       0.621   9.545  20.524  0.00  0.00    +0.000 N 
ATOM     21  C   UNL     1      -0.322  10.350  21.109  0.00  0.00    +0.000 A 
ATOM     22  C   UNL     1      -0.696  11.263  20.152  0.00  0.00    +0.000 A 
ATOM     23  C   UNL     1       0.090  10.944  19.030  0.00  0.00    +0.000 A 
ATOM     24  N   UNL     1       0.905   9.911  19.253  0.00  0.00    +0.000 NA
ENDBRANCH  19  20
ENDBRANCH  18  19
ENDBRANCH   4  18
TORSDOF 10
ENDMDL
