MODEL 1
REMARK VINA RESULT:      -8.3      0.000      0.000
REMARK  Name = 
REMARK  6 active torsions:
REMARK  status: ('A' for Active; 'I' for Inactive)
REMARK    1  A    between atoms: C_1  and  C_2
REMARK    2  A    between atoms: C_4  and  N_5
REMARK    3  A    between atoms: N_5  and  C_6
REMARK    4  A    between atoms: C_6  and  C_7
REMARK    5  A    between atoms: N_15  and  C_16
REMARK    6  A    between atoms: C_16  and  C_17
REMARK                            x       y       z     vdW  Elec       q    Type
REMARK                         _______ _______ _______ _____ _____    ______ ____
ROOT
ATOM      1  C   UNL     1       6.940   5.048  14.846  0.00  0.00    +0.000 C 
ATOM      2  C   UNL     1       6.925   5.387  16.304  0.00  0.00    +0.000 A 
ATOM      3  C   UNL     1       7.573   6.501  16.780  0.00  0.00    +0.000 A 
ATOM      4  C   UNL     1       7.623   6.662  18.150  0.00  0.00    +0.000 A 
ATOM      5  N   UNL     1       7.058   5.774  18.981  0.00  0.00    +0.000 NA
ATOM      6  C   UNL     1       6.353   4.770  18.437  0.00  0.00    +0.000 A 
ATOM      7  N   UNL     1       5.656   3.964  19.318  0.00  0.00    +0.000 N 
ATOM      8  N   UNL     1       6.277   4.538  17.120  0.00  0.00    +0.000 NA
ATOM      9  H   UNL     1       6.314   3.536  19.956  0.00  0.00    +0.000 HD
ENDROOT
BRANCH   4  10
ATOM     10  N   UNL     1       8.328   7.772  18.635  0.00  0.00    +0.000 N 
ATOM     11  H   UNL     1       9.316   7.550  18.714  0.00  0.00    +0.000 HD
BRANCH  10  12
ATOM     12  C   UNL     1       8.113   9.038  17.954  0.00  0.00    +0.000 C 
BRANCH  12  13
ATOM     13  C   UNL     1       9.052  10.054  18.572  0.00  0.00    +0.000 A 
ATOM     14  C   UNL     1       9.130  10.225  19.962  0.00  0.00    +0.000 A 
ATOM     15  C   UNL     1       9.972  11.198  20.509  0.00  0.00    +0.000 A 
ATOM     16  C   UNL     1      10.740  12.010  19.675  0.00  0.00    +0.000 A 
ATOM     17  C   UNL     1      10.664  11.857  18.293  0.00  0.00    +0.000 A 
ATOM     18  C   UNL     1       9.821  10.888  17.745  0.00  0.00    +0.000 A 
ENDBRANCH  12  13
ENDBRANCH  10  12
ENDBRANCH   4  10
BRANCH   7  19
ATOM     19  C   UNL     1       4.675   3.066  18.744  0.00  0.00    +0.000 C 
BRANCH  19  20
ATOM     20  C   UNL     1       3.312   3.396  19.319  0.00  0.00    +0.000 A 
ATOM     21  C   UNL     1       3.173   4.470  20.219  0.00  0.00    +0.000 A 
ATOM     22  C   UNL     1       1.924   4.798  20.747  0.00  0.00    +0.000 A 
ATOM     23  C   UNL     1       0.799   4.071  20.373  0.00  0.00    +0.000 A 
ATOM     24  C   UNL     1       0.920   3.014  19.469  0.00  0.00    +0.000 A 
ATOM     25  C   UNL     1       2.170   2.680  18.942  0.00  0.00    +0.000 A 
ENDBRANCH  19  20
ENDBRANCH   7  19
TORSDOF 5
ENDMDL
MODEL 2
REMARK VINA RESULT:      -8.0      6.054      9.513
REMARK  Name = 
REMARK  6 active torsions:
REMARK  status: ('A' for Active; 'I' for Inactive)
REMARK    1  A    between atoms: C_1  and  C_2
REMARK    2  A    between atoms: C_4  and  N_5
REMARK    3  A    between atoms: N_5  and  C_6
REMARK    4  A    between atoms: C_6  and  C_7
REMARK    5  A    between atoms: N_15  and  C_16
REMARK    6  A    between atoms: C_16  and  C_17
REMARK                            x       y       z     vdW  Elec       q    Type
REMARK                         _______ _______ _______ _____ _____    ______ ____
ROOT
ATOM      1  C   UNL     1       0.075   9.502  23.151  0.00  0.00    +0.000 C 
ATOM      2  C   UNL     1       0.494   9.207  21.746  0.00  0.00    +0.000 A 
ATOM      3  C   UNL     1       1.311   8.139  21.459  0.00  0.00    +0.000 A 
ATOM      4  C   UNL     1       1.758   8.021  20.158  0.00  0.00    +0.000 A 
ATOM      5  N   UNL     1       1.406   8.905  19.213  0.00  0.00    +0.000 NA
ATOM      6  C   UNL     1       0.521   9.857  19.547  0.00  0.00    +0.000 A 
ATOM      7  N   UNL     1       0.061  10.654  18.516  0.00  0.00    +0.000 N 
ATOM      8  N   UNL     1       0.060  10.046  20.791  0.00  0.00    +0.000 NA
ATOM      9  H   UNL     1       0.849  11.132  18.099  0.00  0.00    +0.000 HD
ENDROOT
BRANCH   4  10
ATOM     10  N   UNL     1       2.631   6.962  19.880  0.00  0.00    +0.000 N 
ATOM     11  H   UNL     1       2.651   6.312  20.661  0.00  0.00    +0.000 HD
BRANCH  10  12
ATOM     12  C   UNL     1       2.452   6.274  18.612  0.00  0.00    +0.000 C 
BRANCH  12  13
ATOM     13  C   UNL     1       2.039   4.850  18.919  0.00  0.00    +0.000 A 
ATOM     14  C   UNL     1       1.530   4.491  20.176  0.00  0.00    +0.000 A 
ATOM     15  C   UNL     1       1.195   3.162  20.451  0.00  0.00    +0.000 A 
ATOM     16  C   UNL     1       1.368   2.179  19.477  0.00  0.00    +0.000 A 
ATOM     17  C   UNL     1       1.883   2.520  18.229  0.00  0.00    +0.000 A 
ATOM     18  C   UNL     1       2.221   3.846  17.954  0.00  0.00    +0.000 A 
ENDBRANCH  12  13
ENDBRANCH  10  12
ENDBRANCH   4  10
BRANCH   7  19
ATOM     19  C   UNL     1      -1.090  11.486  18.797  0.00  0.00    +0.000 C 
BRANCH  19  20
ATOM     20  C   UNL     1      -2.166  11.199  17.770  0.00  0.00    +0.000 A 
ATOM     21  C   UNL     1      -1.920  10.274  16.737  0.00  0.00    +0.000 A 
ATOM     22  C   UNL     1      -2.904   9.986  15.791  0.00  0.00    +0.000 A 
ATOM     23  C   UNL     1      -4.147  10.603  15.872  0.00  0.00    +0.000 A 
ATOM     24  C   UNL     1      -4.411  11.511  16.899  0.00  0.00    +0.000 A 
ATOM     25  C   UNL     1      -3.426  11.806  17.845  0.00  0.00    +0.000 A 
ENDBRANCH  19  20
ENDBRANCH   7  19
TORSDOF 5
ENDMDL
MODEL 3
REMARK VINA RESULT:      -7.9      5.959      9.506
REMARK  Name = 
REMARK  6 active torsions:
REMARK  status: ('A' for Active; 'I' for Inactive)
REMARK    1  A    between atoms: C_1  and  C_2
REMARK    2  A    between atoms: C_4  and  N_5
REMARK    3  A    between atoms: N_5  and  C_6
REMARK    4  A    between atoms: C_6  and  C_7
REMARK    5  A    between atoms: N_15  and  C_16
REMARK    6  A    between atoms: C_16  and  C_17
REMARK                            x       y       z     vdW  Elec       q    Type
REMARK                         _______ _______ _______ _____ _____    ______ ____
ROOT
ATOM      1  C   UNL     1      -0.116   9.660  23.139  0.00  0.00    +0.000 C 
ATOM      2  C   UNL     1       0.392   9.327  21.771  0.00  0.00    +0.000 A 
ATOM      3  C   UNL     1       1.124   8.186  21.544  0.00  0.00    +0.000 A 
ATOM      4  C   UNL     1       1.668   8.029  20.286  0.00  0.00    +0.000 A 
ATOM      5  N   UNL     1       1.485   8.944  19.323  0.00  0.00    +0.000 NA
ATOM      6  C   UNL     1       0.670   9.976  19.589  0.00  0.00    +0.000 A 
ATOM      7  N   UNL     1       0.379  10.815  18.530  0.00  0.00    +0.000 N 
ATOM      8  N   UNL     1       0.124  10.207  20.791  0.00  0.00    +0.000 NA
ATOM      9  H   UNL     1       1.242  11.215  18.187  0.00  0.00    +0.000 HD
ENDROOT
BRANCH   4  10
ATOM     10  N   UNL     1       2.456   6.890  20.073  0.00  0.00    +0.000 N 
ATOM     11  H   UNL     1       2.230   6.176  20.759  0.00  0.00    +0.000 HD
BRANCH  10  12
ATOM     12  C   UNL     1       2.484   6.350  18.723  0.00  0.00    +0.000 C 
BRANCH  12  13
ATOM     13  C   UNL     1       2.129   4.880  18.812  0.00  0.00    +0.000 A 
ATOM     14  C   UNL     1       2.475   3.982  17.792  0.00  0.00    +0.000 A 
ATOM     15  C   UNL     1       2.099   2.637  17.876  0.00  0.00    +0.000 A 
ATOM     16  C   UNL     1       1.373   2.179  18.975  0.00  0.00    +0.000 A 
ATOM     17  C   UNL     1       1.014   3.064  19.989  0.00  0.00    +0.000 A 
ATOM     18  C   UNL     1       1.386   4.406  19.906  0.00  0.00    +0.000 A 
ENDBRANCH  12  13
ENDBRANCH  10  12
ENDBRANCH   4  10
BRANCH   7  19
ATOM     19  C   UNL     1      -0.707  11.754  18.721  0.00  0.00    +0.000 C 
BRANCH  19  20
ATOM     20  C   UNL     1      -1.915  11.273  17.942  0.00  0.00    +0.000 A 
ATOM     21  C   UNL     1      -1.763  10.272  16.962  0.00  0.00    +0.000 A 
ATOM     22  C   UNL     1      -2.866   9.806  16.246  0.00  0.00    +0.000 A 
ATOM     23  C   UNL     1      -4.132  10.318  16.508  0.00  0.00    +0.000 A 
ATOM     24  C   UNL     1      -4.299  11.299  17.486  0.00  0.00    +0.000 A 
ATOM     25  C   UNL     1      -3.197  11.772  18.203  0.00  0.00    +0.000 A 
ENDBRANCH  19  20
ENDBRANCH   7  19
TORSDOF 5
ENDMDL
MODEL 4
REMARK VINA RESULT:      -7.8      1.726      8.854
REMARK  Name = 
REMARK  6 active torsions:
REMARK  status: ('A' for Active; 'I' for Inactive)
REMARK    1  A    between atoms: C_1  and  C_2
REMARK    2  A    between atoms: C_4  and  N_5
REMARK    3  A    between atoms: N_5  and  C_6
REMARK    4  A    between atoms: C_6  and  C_7
REMARK    5  A    between atoms: N_15  and  C_16
REMARK    6  A    between atoms: C_16  and  C_17
REMARK                            x       y       z     vdW  Elec       q    Type
REMARK                         _______ _______ _______ _____ _____    ______ ____
ROOT
ATOM      1  C   UNL     1       8.490   5.184  20.068  0.00  0.00    +0.000 C 
ATOM      2  C   UNL     1       7.826   6.018  19.017  0.00  0.00    +0.000 A 
ATOM      3  C   UNL     1       6.800   5.513  18.254  0.00  0.00    +0.000 A 
ATOM      4  C   UNL     1       6.339   6.303  17.220  0.00  0.00    +0.000 A 
ATOM      5  N   UNL     1       6.864   7.511  16.973  0.00  0.00    +0.000 NA
ATOM      6  C   UNL     1       7.788   7.978  17.827  0.00  0.00    +0.000 A 
ATOM      7  N   UNL     1       8.195   9.285  17.635  0.00  0.00    +0.000 N 
ATOM      8  N   UNL     1       8.298   7.263  18.839  0.00  0.00    +0.000 NA
ATOM      9  H   UNL     1       8.595   9.367  16.710  0.00  0.00    +0.000 HD
ENDROOT
BRANCH   4  10
ATOM     10  N   UNL     1       5.328   5.765  16.413  0.00  0.00    +0.000 N 
ATOM     11  H   UNL     1       5.417   6.114  15.463  0.00  0.00    +0.000 HD
BRANCH  10  12
ATOM     12  C   UNL     1       5.159   4.321  16.441  0.00  0.00    +0.000 C 
BRANCH  12  13
ATOM     13  C   UNL     1       3.848   4.029  17.142  0.00  0.00    +0.000 A 
ATOM     14  C   UNL     1       3.011   5.063  17.587  0.00  0.00    +0.000 A 
ATOM     15  C   UNL     1       1.826   4.770  18.269  0.00  0.00    +0.000 A 
ATOM     16  C   UNL     1       1.468   3.445  18.517  0.00  0.00    +0.000 A 
ATOM     17  C   UNL     1       2.297   2.409  18.090  0.00  0.00    +0.000 A 
ATOM     18  C   UNL     1       3.481   2.700  17.411  0.00  0.00    +0.000 A 
ENDBRANCH  12  13
ENDBRANCH  10  12
ENDBRANCH   4  10
BRANCH   7  19
ATOM     19  C   UNL     1       8.966   9.891  18.700  0.00  0.00    +0.000 C 
BRANCH  19  20
ATOM     20  C   UNL     1       9.568  11.186  18.194  0.00  0.00    +0.000 A 
ATOM     21  C   UNL     1       8.733  12.288  17.921  0.00  0.00    +0.000 A 
ATOM     22  C   UNL     1       9.272  13.493  17.469  0.00  0.00    +0.000 A 
ATOM     23  C   UNL     1      10.646  13.619  17.298  0.00  0.00    +0.000 A 
ATOM     24  C   UNL     1      11.486  12.541  17.580  0.00  0.00    +0.000 A 
ATOM     25  C   UNL     1      10.951  11.331  18.028  0.00  0.00    +0.000 A 
ENDBRANCH  19  20
ENDBRANCH   7  19
TORSDOF 5
ENDMDL
MODEL 5
REMARK VINA RESULT:      -7.8      5.885      9.450
REMARK  Name = 
REMARK  6 active torsions:
REMARK  status: ('A' for Active; 'I' for Inactive)
REMARK    1  A    between atoms: C_1  and  C_2
REMARK    2  A    between atoms: C_4  and  N_5
REMARK    3  A    between atoms: N_5  and  C_6
REMARK    4  A    between atoms: C_6  and  C_7
REMARK    5  A    between atoms: N_15  and  C_16
REMARK    6  A    between atoms: C_16  and  C_17
REMARK                            x       y       z     vdW  Elec       q    Type
REMARK                         _______ _______ _______ _____ _____    ______ ____
ROOT
ATOM      1  C   UNL     1      -0.131   9.701  23.137  0.00  0.00    +0.000 C 
ATOM      2  C   UNL     1       0.392   9.353  21.779  0.00  0.00    +0.000 A 
ATOM      3  C   UNL     1       1.043   8.163  21.553  0.00  0.00    +0.000 A 
ATOM      4  C   UNL     1       1.611   7.985  20.308  0.00  0.00    +0.000 A 
ATOM      5  N   UNL     1       1.527   8.926  19.357  0.00  0.00    +0.000 NA
ATOM      6  C   UNL     1       0.784  10.013  19.618  0.00  0.00    +0.000 A 
ATOM      7  N   UNL     1       0.590  10.889  18.567  0.00  0.00    +0.000 N 
ATOM      8  N   UNL     1       0.222  10.266  20.808  0.00  0.00    +0.000 NA
ATOM      9  H   UNL     1       1.490  11.228  18.256  0.00  0.00    +0.000 HD
ENDROOT
BRANCH   4  10
ATOM     10  N   UNL     1       2.317   6.793  20.097  0.00  0.00    +0.000 N 
ATOM     11  H   UNL     1       3.296   6.921  20.333  0.00  0.00    +0.000 HD
BRANCH  10  12
ATOM     12  C   UNL     1       1.771   5.588  20.699  0.00  0.00    +0.000 C 
BRANCH  12  13
ATOM     13  C   UNL     1       1.854   4.483  19.665  0.00  0.00    +0.000 A 
ATOM     14  C   UNL     1       1.077   3.321  19.774  0.00  0.00    +0.000 A 
ATOM     15  C   UNL     1       1.200   2.296  18.831  0.00  0.00    +0.000 A 
ATOM     16  C   UNL     1       2.103   2.419  17.775  0.00  0.00    +0.000 A 
ATOM     17  C   UNL     1       2.889   3.564  17.662  0.00  0.00    +0.000 A 
ATOM     18  C   UNL     1       2.768   4.587  18.604  0.00  0.00    +0.000 A 
ENDBRANCH  12  13
ENDBRANCH  10  12
ENDBRANCH   4  10
BRANCH   7  19
ATOM     19  C   UNL     1      -0.427  11.905  18.743  0.00  0.00    +0.000 C 
BRANCH  19  20
ATOM     20  C   UNL     1      -1.737  11.391  18.179  0.00  0.00    +0.000 A 
ATOM     21  C   UNL     1      -1.729  10.367  17.212  0.00  0.00    +0.000 A 
ATOM     22  C   UNL     1      -2.925   9.872  16.691  0.00  0.00    +0.000 A 
ATOM     23  C   UNL     1      -4.141  10.379  17.139  0.00  0.00    +0.000 A 
ATOM     24  C   UNL     1      -4.163  11.383  18.108  0.00  0.00    +0.000 A 
ATOM     25  C   UNL     1      -2.968  11.885  18.628  0.00  0.00    +0.000 A 
ENDBRANCH  19  20
ENDBRANCH   7  19
TORSDOF 5
ENDMDL
MODEL 6
REMARK VINA RESULT:      -7.8      3.943      6.418
REMARK  Name = 
REMARK  6 active torsions:
REMARK  status: ('A' for Active; 'I' for Inactive)
REMARK    1  A    between atoms: C_1  and  C_2
REMARK    2  A    between atoms: C_4  and  N_5
REMARK    3  A    between atoms: N_5  and  C_6
REMARK    4  A    between atoms: C_6  and  C_7
REMARK    5  A    between atoms: N_15  and  C_16
REMARK    6  A    between atoms: C_16  and  C_17
REMARK                            x       y       z     vdW  Elec       q    Type
REMARK                         _______ _______ _______ _____ _____    ______ ____
ROOT
ATOM      1  C   UNL     1       1.863   3.132  21.368  0.00  0.00    +0.000 C 
ATOM      2  C   UNL     1       2.126   4.299  20.470  0.00  0.00    +0.000 A 
ATOM      3  C   UNL     1       2.707   4.128  19.235  0.00  0.00    +0.000 A 
ATOM      4  C   UNL     1       3.037   5.269  18.533  0.00  0.00    +0.000 A 
ATOM      5  N   UNL     1       2.798   6.491  19.028  0.00  0.00    +0.000 NA
ATOM      6  C   UNL     1       2.132   6.575  20.190  0.00  0.00    +0.000 A 
ATOM      7  N   UNL     1       1.765   7.844  20.596  0.00  0.00    +0.000 N 
ATOM      8  N   UNL     1       1.797   5.515  20.938  0.00  0.00    +0.000 NA
ATOM      9  H   UNL     1       2.600   8.404  20.705  0.00  0.00    +0.000 HD
ENDROOT
BRANCH   4  10
ATOM     10  N   UNL     1       3.675   5.091  17.298  0.00  0.00    +0.000 N 
ATOM     11  H   UNL     1       3.764   5.983  16.820  0.00  0.00    +0.000 HD
BRANCH  10  12
ATOM     12  C   UNL     1       4.929   4.356  17.302  0.00  0.00    +0.000 C 
BRANCH  12  13
ATOM     13  C   UNL     1       6.031   5.334  17.654  0.00  0.00    +0.000 A 
ATOM     14  C   UNL     1       6.929   5.078  18.700  0.00  0.00    +0.000 A 
ATOM     15  C   UNL     1       7.912   6.015  19.034  0.00  0.00    +0.000 A 
ATOM     16  C   UNL     1       8.004   7.216  18.332  0.00  0.00    +0.000 A 
ATOM     17  C   UNL     1       7.111   7.487  17.297  0.00  0.00    +0.000 A 
ATOM     18  C   UNL     1       6.128   6.554  16.964  0.00  0.00    +0.000 A 
ENDBRANCH  12  13
ENDBRANCH  10  12
ENDBRANCH   4  10
BRANCH   7  19
ATOM     19  C   UNL     1       0.812   7.932  21.683  0.00  0.00    +0.000 C 
BRANCH  19  20
ATOM     20  C   UNL     1       0.188   9.313  21.678  0.00  0.00    +0.000 A 
ATOM     21  C   UNL     1       0.129  10.052  20.479  0.00  0.00    +0.000 A 
ATOM     22  C   UNL     1      -0.455  11.318  20.453  0.00  0.00    +0.000 A 
ATOM     23  C   UNL     1      -1.000  11.857  21.613  0.00  0.00    +0.000 A 
ATOM     24  C   UNL     1      -0.963  11.130  22.804  0.00  0.00    +0.000 A 
ATOM     25  C   UNL     1      -0.374   9.863  22.836  0.00  0.00    +0.000 A 
ENDBRANCH  19  20
ENDBRANCH   7  19
TORSDOF 5
ENDMDL
MODEL 7
REMARK VINA RESULT:      -7.8      3.838      6.192
REMARK  Name = 
REMARK  6 active torsions:
REMARK  status: ('A' for Active; 'I' for Inactive)
REMARK    1  A    between atoms: C_1  and  C_2
REMARK    2  A    between atoms: C_4  and  N_5
REMARK    3  A    between atoms: N_5  and  C_6
REMARK    4  A    between atoms: C_6  and  C_7
REMARK    5  A    between atoms: N_15  and  C_16
REMARK    6  A    between atoms: C_16  and  C_17
REMARK                            x       y       z     vdW  Elec       q    Type
REMARK                         _______ _______ _______ _____ _____    ______ ____
ROOT
ATOM      1  C   UNL     1       0.909   3.044  19.979  0.00  0.00    +0.000 C 
ATOM      2  C   UNL     1       1.592   4.300  19.536  0.00  0.00    +0.000 A 
ATOM      3  C   UNL     1       2.370   4.322  18.403  0.00  0.00    +0.000 A 
ATOM      4  C   UNL     1       3.070   5.483  18.146  0.00  0.00    +0.000 A 
ATOM      5  N   UNL     1       2.991   6.546  18.959  0.00  0.00    +0.000 NA
ATOM      6  C   UNL     1       2.127   6.484  19.985  0.00  0.00    +0.000 A 
ATOM      7  N   UNL     1       1.954   7.647  20.711  0.00  0.00    +0.000 N 
ATOM      8  N   UNL     1       1.431   5.386  20.310  0.00  0.00    +0.000 NA
ATOM      9  H   UNL     1       2.845   7.919  21.105  0.00  0.00    +0.000 HD
ENDROOT
BRANCH   4  10
ATOM     10  N   UNL     1       3.903   5.486  17.018  0.00  0.00    +0.000 N 
ATOM     11  H   UNL     1       4.108   6.440  16.739  0.00  0.00    +0.000 HD
BRANCH  10  12
ATOM     12  C   UNL     1       5.106   4.673  17.085  0.00  0.00    +0.000 C 
BRANCH  12  13
ATOM     13  C   UNL     1       6.225   5.557  17.596  0.00  0.00    +0.000 A 
ATOM     14  C   UNL     1       7.009   5.180  18.697  0.00  0.00    +0.000 A 
ATOM     15  C   UNL     1       8.009   6.030  19.178  0.00  0.00    +0.000 A 
ATOM     16  C   UNL     1       8.233   7.265  18.569  0.00  0.00    +0.000 A 
ATOM     17  C   UNL     1       7.454   7.655  17.482  0.00  0.00    +0.000 A 
ATOM     18  C   UNL     1       6.454   6.808  17.002  0.00  0.00    +0.000 A 
ENDBRANCH  12  13
ENDBRANCH  10  12
ENDBRANCH   4  10
BRANCH   7  19
ATOM     19  C   UNL     1       0.833   7.683  21.627  0.00  0.00    +0.000 C 
BRANCH  19  20
ATOM     20  C   UNL     1       0.283   9.095  21.673  0.00  0.00    +0.000 A 
ATOM     21  C   UNL     1      -0.332   9.569  22.849  0.00  0.00    +0.000 A 
ATOM     22  C   UNL     1      -0.832  10.870  22.914  0.00  0.00    +0.000 A 
ATOM     23  C   UNL     1      -0.711  11.717  21.817  0.00  0.00    +0.000 A 
ATOM     24  C   UNL     1      -0.091  11.265  20.652  0.00  0.00    +0.000 A 
ATOM     25  C   UNL     1       0.406   9.961  20.580  0.00  0.00    +0.000 A 
ENDBRANCH  19  20
ENDBRANCH   7  19
TORSDOF 5
ENDMDL
MODEL 8
REMARK VINA RESULT:      -7.8      3.261      7.391
REMARK  Name = 
REMARK  6 active torsions:
REMARK  status: ('A' for Active; 'I' for Inactive)
REMARK    1  A    between atoms: C_1  and  C_2
REMARK    2  A    between atoms: C_4  and  N_5
REMARK    3  A    between atoms: N_5  and  C_6
REMARK    4  A    between atoms: C_6  and  C_7
REMARK    5  A    between atoms: N_15  and  C_16
REMARK    6  A    between atoms: C_16  and  C_17
REMARK                            x       y       z     vdW  Elec       q    Type
REMARK                         _______ _______ _______ _____ _____    ______ ____
ROOT
ATOM      1  C   UNL     1       7.224   6.926  17.261  0.00  0.00    +0.000 C 
ATOM      2  C   UNL     1       5.942   6.195  17.509  0.00  0.00    +0.000 A 
ATOM      3  C   UNL     1       5.926   4.832  17.687  0.00  0.00    +0.000 A 
ATOM      4  C   UNL     1       4.690   4.225  17.774  0.00  0.00    +0.000 A 
ATOM      5  N   UNL     1       3.554   4.932  17.696  0.00  0.00    +0.000 NA
ATOM      6  C   UNL     1       3.654   6.269  17.631  0.00  0.00    +0.000 A 
ATOM      7  N   UNL     1       2.469   6.977  17.709  0.00  0.00    +0.000 N 
ATOM      8  N   UNL     1       4.816   6.927  17.522  0.00  0.00    +0.000 NA
ATOM      9  H   UNL     1       1.874   6.698  16.940  0.00  0.00    +0.000 HD
ENDROOT
BRANCH   4  10
ATOM     10  N   UNL     1       4.675   2.830  17.904  0.00  0.00    +0.000 N 
ATOM     11  H   UNL     1       5.171   2.553  18.745  0.00  0.00    +0.000 HD
BRANCH  10  12
ATOM     12  C   UNL     1       3.384   2.171  17.798  0.00  0.00    +0.000 C 
BRANCH  12  13
ATOM     13  C   UNL     1       2.637   2.420  19.092  0.00  0.00    +0.000 A 
ATOM     14  C   UNL     1       1.278   2.766  19.097  0.00  0.00    +0.000 A 
ATOM     15  C   UNL     1       0.620   3.032  20.301  0.00  0.00    +0.000 A 
ATOM     16  C   UNL     1       1.312   2.960  21.510  0.00  0.00    +0.000 A 
ATOM     17  C   UNL     1       2.665   2.628  21.518  0.00  0.00    +0.000 A 
ATOM     18  C   UNL     1       3.324   2.364  20.316  0.00  0.00    +0.000 A 
ENDBRANCH  12  13
ENDBRANCH  10  12
ENDBRANCH   4  10
BRANCH   7  19
ATOM     19  C   UNL     1       2.574   8.405  17.925  0.00  0.00    +0.000 C 
BRANCH  19  20
ATOM     20  C   UNL     1       1.643   8.800  19.053  0.00  0.00    +0.000 A 
ATOM     21  C   UNL     1       0.703   9.831  18.858  0.00  0.00    +0.000 A 
ATOM     22  C   UNL     1      -0.172  10.199  19.880  0.00  0.00    +0.000 A 
ATOM     23  C   UNL     1      -0.133   9.534  21.101  0.00  0.00    +0.000 A 
ATOM     24  C   UNL     1       0.783   8.501  21.304  0.00  0.00    +0.000 A 
ATOM     25  C   UNL     1       1.665   8.133  20.284  0.00  0.00    +0.000 A 
ENDBRANCH  19  20
ENDBRANCH   7  19
TORSDOF 5
ENDMDL
MODEL 9
REMARK VINA RESULT:      -7.7      0.832      1.309
REMARK  Name = 
REMARK  6 active torsions:
REMARK  status: ('A' for Active; 'I' for Inactive)
REMARK    1  A    between atoms: C_1  and  C_2
REMARK    2  A    between atoms: C_4  and  N_5
REMARK    3  A    between atoms: N_5  and  C_6
REMARK    4  A    between atoms: C_6  and  C_7
REMARK    5  A    between atoms: N_15  and  C_16
REMARK    6  A    between atoms: C_16  and  C_17
REMARK                            x       y       z     vdW  Elec       q    Type
REMARK                         _______ _______ _______ _____ _____    ______ ____
ROOT
ATOM      1  C   UNL     1       6.379   4.510  14.567  0.00  0.00    +0.000 C 
ATOM      2  C   UNL     1       6.440   5.168  15.910  0.00  0.00    +0.000 A 
ATOM      3  C   UNL     1       6.953   6.434  16.058  0.00  0.00    +0.000 A 
ATOM      4  C   UNL     1       7.096   6.908  17.346  0.00  0.00    +0.000 A 
ATOM      5  N   UNL     1       6.744   6.170  18.408  0.00  0.00    +0.000 NA
ATOM      6  C   UNL     1       6.151   4.987  18.178  0.00  0.00    +0.000 A 
ATOM      7  N   UNL     1       5.661   4.322  19.286  0.00  0.00    +0.000 N 
ATOM      8  N   UNL     1       5.998   4.453  16.959  0.00  0.00    +0.000 NA
ATOM      9  H   UNL     1       6.428   4.138  19.919  0.00  0.00    +0.000 HD
ENDROOT
BRANCH   4  10
ATOM     10  N   UNL     1       7.666   8.179  17.495  0.00  0.00    +0.000 N 
ATOM     11  H   UNL     1       6.941   8.890  17.490  0.00  0.00    +0.000 HD
BRANCH  10  12
ATOM     12  C   UNL     1       8.591   8.361  18.602  0.00  0.00    +0.000 C 
BRANCH  12  13
ATOM     13  C   UNL     1       8.880   9.844  18.716  0.00  0.00    +0.000 A 
ATOM     14  C   UNL     1       9.452  10.390  19.874  0.00  0.00    +0.000 A 
ATOM     15  C   UNL     1       9.671  11.768  19.973  0.00  0.00    +0.000 A 
ATOM     16  C   UNL     1       9.318  12.612  18.921  0.00  0.00    +0.000 A 
ATOM     17  C   UNL     1       8.739  12.083  17.769  0.00  0.00    +0.000 A 
ATOM     18  C   UNL     1       8.517  10.709  17.670  0.00  0.00    +0.000 A 
ENDBRANCH  12  13
ENDBRANCH  10  12
ENDBRANCH   4  10
BRANCH   7  19
ATOM     19  C   UNL     1       4.780   3.201  19.037  0.00  0.00    +0.000 C 
BRANCH  19  20
ATOM     20  C   UNL     1       3.389   3.551  19.528  0.00  0.00    +0.000 A 
ATOM     21  C   UNL     1       2.382   2.566  19.541  0.00  0.00    +0.000 A 
ATOM     22  C   UNL     1       1.101   2.866  20.004  0.00  0.00    +0.000 A 
ATOM     23  C   UNL     1       0.812   4.143  20.472  0.00  0.00    +0.000 A 
ATOM     24  C   UNL     1       1.805   5.125  20.479  0.00  0.00    +0.000 A 
ATOM     25  C   UNL     1       3.088   4.830  20.012  0.00  0.00    +0.000 A 
ENDBRANCH  19  20
ENDBRANCH   7  19
TORSDOF 5
ENDMDL
