MODEL 1
REMARK VINA RESULT:      -7.6      0.000      0.000
REMARK  Name = 
REMARK  9 active torsions:
REMARK  status: ('A' for Active; 'I' for Inactive)
REMARK    1  A    between atoms: C_1  and  O_2
REMARK    2  A    between atoms: O_2  and  C_3
REMARK    3  A    between atoms: C_6  and  N_7
REMARK    4  A    between atoms: N_10  and  C_11
REMARK    5  A    between atoms: C_11  and  C_12
REMARK    6  A    between atoms: C_11  and  C_25
REMARK    7  A    between atoms: C_12  and  N_13
REMARK    8  A    between atoms: N_13  and  S_14
REMARK    9  A    between atoms: S_14  and  C_17
REMARK                            x       y       z     vdW  Elec       q    Type
REMARK                         _______ _______ _______ _____ _____    ______ ____
ROOT
ATOM      1  C   UNL     1       4.301   5.706  18.349  0.00  0.00    +0.000 C 
ENDROOT
BRANCH   1   5
ATOM      2  N   UNL     1       2.090   8.387  19.341  0.00  0.00    +0.000 N 
ATOM      3  C   UNL     1       2.191   7.134  20.108  0.00  0.00    +0.000 C 
ATOM      4  C   UNL     1       1.944   5.899  19.208  0.00  0.00    +0.000 C 
ATOM      5  N   UNL     1       2.831   5.837  18.001  0.00  0.00    +0.000 NA
ATOM      6  C   UNL     1       2.464   7.070  17.249  0.00  0.00    +0.000 C 
ATOM      7  C   UNL     1       2.716   8.402  18.006  0.00  0.00    +0.000 C 
BRANCH   2  11
ATOM      8  C   UNL     1      -0.978  11.202  20.038  0.00  0.00    +0.000 A 
ATOM      9  C   UNL     1      -0.583  10.884  18.742  0.00  0.00    +0.000 A 
ATOM     10  C   UNL     1       0.424   9.937  18.523  0.00  0.00    +0.000 A 
ATOM     11  C   UNL     1       1.079   9.302  19.588  0.00  0.00    +0.000 A 
ATOM     12  C   UNL     1       0.680   9.656  20.883  0.00  0.00    +0.000 A 
ATOM     13  C   UNL     1      -0.334  10.594  21.111  0.00  0.00    +0.000 A 
BRANCH   8  15
ATOM     14  C   UNL     1      -1.531  13.491  20.124  0.00  0.00    +0.000 C 
ATOM     15  O   UNL     1      -1.970  12.137  20.142  0.00  0.00    +0.000 OA
ENDBRANCH   8  15
ENDBRANCH   2  11
ENDBRANCH   1   5
BRANCH   1  16
ATOM     16  C   UNL     1       5.221   5.402  17.141  0.00  0.00    +0.000 A 
ATOM     17  C   UNL     1       4.841   4.525  16.111  0.00  0.00    +0.000 A 
ATOM     18  C   UNL     1       5.671   4.278  15.017  0.00  0.00    +0.000 A 
ATOM     19  C   UNL     1       6.851   4.983  14.921  0.00  0.00    +0.000 A 
ATOM     20  N   UNL     1       7.250   5.872  15.846  0.00  0.00    +0.000 NA
ATOM     21  C   UNL     1       6.442   6.043  16.925  0.00  0.00    +0.000 A 
ENDBRANCH   1  16
BRANCH   1  22
ATOM     22  C   UNL     1       4.479   4.653  19.522  0.00  0.00    +0.000 C 
BRANCH  22  23
ATOM     23  N   UNL     1       5.335   3.499  19.161  0.00  0.00    +0.000 NA
ATOM     24  H   UNL     1       6.293   3.490  19.516  0.00  0.00    +0.000 HD
BRANCH  23  25
ATOM     25  S   UNL     1       4.652   1.957  19.272  0.00  0.00    +0.000 S 
ATOM     26  O   UNL     1       4.714   1.427  17.928  0.00  0.00    +0.000 OA
ATOM     27  O   UNL     1       5.272   1.259  20.374  0.00  0.00    +0.000 OA
BRANCH  25  28
ATOM     28  C   UNL     1       2.955   2.273  19.636  0.00  0.00    +0.000 A 
ATOM     29  C   UNL     1       2.554   2.466  20.961  0.00  0.00    +0.000 A 
ATOM     30  C   UNL     1       1.219   2.759  21.228  0.00  0.00    +0.000 A 
ATOM     31  F   UNL     1       0.822   2.945  22.491  0.00  0.00    +0.000 F 
ATOM     32  C   UNL     1       0.285   2.872  20.199  0.00  0.00    +0.000 A 
ATOM     33  C   UNL     1       0.696   2.692  18.877  0.00  0.00    +0.000 A 
ATOM     34  C   UNL     1       2.031   2.399  18.601  0.00  0.00    +0.000 A 
ATOM     35  F   UNL     1       2.383   2.211  17.322  0.00  0.00    +0.000 F 
ENDBRANCH  25  28
ENDBRANCH  23  25
ENDBRANCH  22  23
ENDBRANCH   1  22
TORSDOF 8
ENDMDL
MODEL 2
REMARK VINA RESULT:      -7.5      0.740      1.725
REMARK  Name = 
REMARK  9 active torsions:
REMARK  status: ('A' for Active; 'I' for Inactive)
REMARK    1  A    between atoms: C_1  and  O_2
REMARK    2  A    between atoms: O_2  and  C_3
REMARK    3  A    between atoms: C_6  and  N_7
REMARK    4  A    between atoms: N_10  and  C_11
REMARK    5  A    between atoms: C_11  and  C_12
REMARK    6  A    between atoms: C_11  and  C_25
REMARK    7  A    between atoms: C_12  and  N_13
REMARK    8  A    between atoms: N_13  and  S_14
REMARK    9  A    between atoms: S_14  and  C_17
REMARK                            x       y       z     vdW  Elec       q    Type
REMARK                         _______ _______ _______ _____ _____    ______ ____
ROOT
ATOM      1  C   UNL     1       4.528   5.600  18.440  0.00  0.00    +0.000 C 
ENDROOT
BRANCH   1   5
ATOM      2  N   UNL     1       2.235   8.299  19.159  0.00  0.00    +0.000 N 
ATOM      3  C   UNL     1       2.452   7.188  20.100  0.00  0.00    +0.000 C 
ATOM      4  C   UNL     1       2.221   5.817  19.420  0.00  0.00    +0.000 C 
ATOM      5  N   UNL     1       3.034   5.608  18.178  0.00  0.00    +0.000 NA
ATOM      6  C   UNL     1       2.554   6.689  17.273  0.00  0.00    +0.000 C 
ATOM      7  C   UNL     1       2.777   8.133  17.797  0.00  0.00    +0.000 C 
BRANCH   2  11
ATOM      8  C   UNL     1      -0.959  10.998  19.741  0.00  0.00    +0.000 A 
ATOM      9  C   UNL     1      -0.356  10.362  20.823  0.00  0.00    +0.000 A 
ATOM     10  C   UNL     1       0.713   9.483  20.618  0.00  0.00    +0.000 A 
ATOM     11  C   UNL     1       1.191   9.195  19.332  0.00  0.00    +0.000 A 
ATOM     12  C   UNL     1       0.553   9.828  18.258  0.00  0.00    +0.000 A 
ATOM     13  C   UNL     1      -0.510  10.718  18.454  0.00  0.00    +0.000 A 
BRANCH   8  15
ATOM     14  C   UNL     1      -1.863  12.529  21.288  0.00  0.00    +0.000 C 
ATOM     15  O   UNL     1      -1.992  11.838  20.049  0.00  0.00    +0.000 OA
ENDBRANCH   8  15
ENDBRANCH   2  11
ENDBRANCH   1   5
BRANCH   1  16
ATOM     16  C   UNL     1       5.397   5.322  17.190  0.00  0.00    +0.000 A 
ATOM     17  C   UNL     1       4.969   4.475  16.152  0.00  0.00    +0.000 A 
ATOM     18  C   UNL     1       5.754   4.251  15.020  0.00  0.00    +0.000 A 
ATOM     19  C   UNL     1       6.935   4.950  14.896  0.00  0.00    +0.000 A 
ATOM     20  N   UNL     1       7.377   5.811  15.828  0.00  0.00    +0.000 NA
ATOM     21  C   UNL     1       6.615   5.959  16.943  0.00  0.00    +0.000 A 
ENDBRANCH   1  16
BRANCH   1  22
ATOM     22  C   UNL     1       4.854   4.607  19.634  0.00  0.00    +0.000 C 
BRANCH  22  23
ATOM     23  N   UNL     1       5.352   3.284  19.188  0.00  0.00    +0.000 NA
ATOM     24  H   UNL     1       6.363   3.161  19.104  0.00  0.00    +0.000 HD
BRANCH  23  25
ATOM     25  S   UNL     1       4.648   1.913  19.882  0.00  0.00    +0.000 S 
ATOM     26  O   UNL     1       4.797   0.876  18.886  0.00  0.00    +0.000 OA
ATOM     27  O   UNL     1       5.183   1.746  21.213  0.00  0.00    +0.000 OA
BRANCH  25  28
ATOM     28  C   UNL     1       2.933   2.317  19.968  0.00  0.00    +0.000 A 
ATOM     29  C   UNL     1       2.131   2.184  18.831  0.00  0.00    +0.000 A 
ATOM     30  C   UNL     1       0.769   2.463  18.927  0.00  0.00    +0.000 A 
ATOM     31  F   UNL     1      -0.009   2.342  17.846  0.00  0.00    +0.000 F 
ATOM     32  C   UNL     1       0.197   2.861  20.135  0.00  0.00    +0.000 A 
ATOM     33  C   UNL     1       1.002   2.975  21.270  0.00  0.00    +0.000 A 
ATOM     34  C   UNL     1       2.365   2.698  21.183  0.00  0.00    +0.000 A 
ATOM     35  F   UNL     1       3.109   2.842  22.287  0.00  0.00    +0.000 F 
ENDBRANCH  25  28
ENDBRANCH  23  25
ENDBRANCH  22  23
ENDBRANCH   1  22
TORSDOF 8
ENDMDL
MODEL 3
REMARK VINA RESULT:      -7.5      2.824      5.256
REMARK  Name = 
REMARK  9 active torsions:
REMARK  status: ('A' for Active; 'I' for Inactive)
REMARK    1  A    between atoms: C_1  and  O_2
REMARK    2  A    between atoms: O_2  and  C_3
REMARK    3  A    between atoms: C_6  and  N_7
REMARK    4  A    between atoms: N_10  and  C_11
REMARK    5  A    between atoms: C_11  and  C_12
REMARK    6  A    between atoms: C_11  and  C_25
REMARK    7  A    between atoms: C_12  and  N_13
REMARK    8  A    between atoms: N_13  and  S_14
REMARK    9  A    between atoms: S_14  and  C_17
REMARK                            x       y       z     vdW  Elec       q    Type
REMARK                         _______ _______ _______ _____ _____    ______ ____
ROOT
ATOM      1  C   UNL     1       2.751   5.106  18.140  0.00  0.00    +0.000 C 
ENDROOT
BRANCH   1   5
ATOM      2  N   UNL     1       1.545   8.416  18.944  0.00  0.00    +0.000 N 
ATOM      3  C   UNL     1       1.967   8.049  17.582  0.00  0.00    +0.000 C 
ATOM      4  C   UNL     1       3.402   7.469  17.572  0.00  0.00    +0.000 C 
ATOM      5  N   UNL     1       3.598   6.310  18.503  0.00  0.00    +0.000 NA
ATOM      6  C   UNL     1       3.319   6.901  19.841  0.00  0.00    +0.000 C 
ATOM      7  C   UNL     1       1.887   7.472  20.024  0.00  0.00    +0.000 C 
BRANCH   2  11
ATOM      8  C   UNL     1       0.884  12.458  19.968  0.00  0.00    +0.000 A 
ATOM      9  C   UNL     1       1.495  12.118  18.765  0.00  0.00    +0.000 A 
ATOM     10  C   UNL     1       1.693  10.774  18.429  0.00  0.00    +0.000 A 
ATOM     11  C   UNL     1       1.312   9.737  19.293  0.00  0.00    +0.000 A 
ATOM     12  C   UNL     1       0.721  10.105  20.508  0.00  0.00    +0.000 A 
ATOM     13  C   UNL     1       0.508  11.447  20.846  0.00  0.00    +0.000 A 
BRANCH   8  15
ATOM     14  C   UNL     1       0.954  14.208  21.544  0.00  0.00    +0.000 C 
ATOM     15  O   UNL     1       0.735  13.797  20.199  0.00  0.00    +0.000 OA
ENDBRANCH   8  15
ENDBRANCH   2  11
ENDBRANCH   1   5
BRANCH   1  16
ATOM     16  C   UNL     1       2.445   4.157  19.324  0.00  0.00    +0.000 A 
ATOM     17  C   UNL     1       1.133   3.891  19.752  0.00  0.00    +0.000 A 
ATOM     18  C   UNL     1       0.870   3.015  20.806  0.00  0.00    +0.000 A 
ATOM     19  C   UNL     1       1.930   2.341  21.374  0.00  0.00    +0.000 A 
ATOM     20  N   UNL     1       3.203   2.512  20.978  0.00  0.00    +0.000 NA
ATOM     21  C   UNL     1       3.424   3.416  19.989  0.00  0.00    +0.000 A 
ENDBRANCH   1  16
BRANCH   1  22
ATOM     22  C   UNL     1       3.407   4.345  16.912  0.00  0.00    +0.000 C 
BRANCH  22  23
ATOM     23  N   UNL     1       4.864   4.118  17.061  0.00  0.00    +0.000 NA
ATOM     24  H   UNL     1       5.183   3.157  17.198  0.00  0.00    +0.000 HD
BRANCH  23  25
ATOM     25  S   UNL     1       5.892   4.934  15.997  0.00  0.00    +0.000 S 
ATOM     26  O   UNL     1       6.760   3.909  15.462  0.00  0.00    +0.000 OA
ATOM     27  O   UNL     1       5.089   5.757  15.123  0.00  0.00    +0.000 OA
BRANCH  25  28
ATOM     28  C   UNL     1       6.871   5.953  17.053  0.00  0.00    +0.000 A 
ATOM     29  C   UNL     1       6.957   7.326  16.807  0.00  0.00    +0.000 A 
ATOM     30  C   UNL     1       7.697   8.125  17.676  0.00  0.00    +0.000 A 
ATOM     31  F   UNL     1       7.789   9.439  17.451  0.00  0.00    +0.000 F 
ATOM     32  C   UNL     1       8.340   7.579  18.787  0.00  0.00    +0.000 A 
ATOM     33  C   UNL     1       8.236   6.209  19.034  0.00  0.00    +0.000 A 
ATOM     34  C   UNL     1       7.498   5.403  18.169  0.00  0.00    +0.000 A 
ATOM     35  F   UNL     1       7.441   4.090  18.427  0.00  0.00    +0.000 F 
ENDBRANCH  25  28
ENDBRANCH  23  25
ENDBRANCH  22  23
ENDBRANCH   1  22
TORSDOF 8
ENDMDL
MODEL 4
REMARK VINA RESULT:      -7.2      2.489      5.191
REMARK  Name = 
REMARK  9 active torsions:
REMARK  status: ('A' for Active; 'I' for Inactive)
REMARK    1  A    between atoms: C_1  and  O_2
REMARK    2  A    between atoms: O_2  and  C_3
REMARK    3  A    between atoms: C_6  and  N_7
REMARK    4  A    between atoms: N_10  and  C_11
REMARK    5  A    between atoms: C_11  and  C_12
REMARK    6  A    between atoms: C_11  and  C_25
REMARK    7  A    between atoms: C_12  and  N_13
REMARK    8  A    between atoms: N_13  and  S_14
REMARK    9  A    between atoms: S_14  and  C_17
REMARK                            x       y       z     vdW  Elec       q    Type
REMARK                         _______ _______ _______ _____ _____    ______ ____
ROOT
ATOM      1  C   UNL     1       1.785   6.125  19.122  0.00  0.00    +0.000 C 
ENDROOT
BRANCH   1   5
ATOM      2  N   UNL     1       0.465   9.489  19.071  0.00  0.00    +0.000 N 
ATOM      3  C   UNL     1       1.457   9.025  18.087  0.00  0.00    +0.000 C 
ATOM      4  C   UNL     1       2.711   8.440  18.781  0.00  0.00    +0.000 C 
ATOM      5  N   UNL     1       2.410   7.349  19.764  0.00  0.00    +0.000 NA
ATOM      6  C   UNL     1       1.565   8.034  20.780  0.00  0.00    +0.000 C 
ATOM      7  C   UNL     1       0.233   8.622  20.241  0.00  0.00    +0.000 C 
BRANCH   2  11
ATOM      8  C   UNL     1      -0.445  13.596  19.433  0.00  0.00    +0.000 A 
ATOM      9  C   UNL     1       0.738  13.178  18.831  0.00  0.00    +0.000 A 
ATOM     10  C   UNL     1       1.021  11.814  18.702  0.00  0.00    +0.000 A 
ATOM     11  C   UNL     1       0.146  10.833  19.191  0.00  0.00    +0.000 A 
ATOM     12  C   UNL     1      -1.027  11.278  19.813  0.00  0.00    +0.000 A 
ATOM     13  C   UNL     1      -1.323  12.641  19.937  0.00  0.00    +0.000 A 
BRANCH   8  15
ATOM     14  C   UNL     1       0.498  15.733  19.121  0.00  0.00    +0.000 C 
ATOM     15  O   UNL     1      -0.626  14.949  19.508  0.00  0.00    +0.000 OA
ENDBRANCH   8  15
ENDBRANCH   2  11
ENDBRANCH   1   5
BRANCH   1  16
ATOM     16  C   UNL     1       1.659   4.902  20.062  0.00  0.00    +0.000 A 
ATOM     17  C   UNL     1       0.846   3.798  19.752  0.00  0.00    +0.000 A 
ATOM     18  C   UNL     1       0.760   2.691  20.597  0.00  0.00    +0.000 A 
ATOM     19  C   UNL     1       1.563   2.662  21.717  0.00  0.00    +0.000 A 
ATOM     20  N   UNL     1       2.399   3.662  22.045  0.00  0.00    +0.000 NA
ATOM     21  C   UNL     1       2.411   4.748  21.228  0.00  0.00    +0.000 A 
ENDBRANCH   1  16
BRANCH   1  22
ATOM     22  C   UNL     1       2.554   5.777  17.779  0.00  0.00    +0.000 C 
BRANCH  22  23
ATOM     23  N   UNL     1       3.292   4.493  17.831  0.00  0.00    +0.000 NA
ATOM     24  H   UNL     1       3.112   3.812  17.091  0.00  0.00    +0.000 HD
BRANCH  23  25
ATOM     25  S   UNL     1       4.943   4.558  18.184  0.00  0.00    +0.000 S 
ATOM     26  O   UNL     1       5.150   5.872  18.750  0.00  0.00    +0.000 OA
ATOM     27  O   UNL     1       5.303   3.368  18.919  0.00  0.00    +0.000 OA
BRANCH  25  28
ATOM     28  C   UNL     1       5.715   4.542  16.597  0.00  0.00    +0.000 A 
ATOM     29  C   UNL     1       4.966   4.207  15.465  0.00  0.00    +0.000 A 
ATOM     30  C   UNL     1       5.578   4.243  14.214  0.00  0.00    +0.000 A 
ATOM     31  F   UNL     1       4.874   3.923  13.124  0.00  0.00    +0.000 F 
ATOM     32  C   UNL     1       6.914   4.616  14.075  0.00  0.00    +0.000 A 
ATOM     33  C   UNL     1       7.650   4.965  15.208  0.00  0.00    +0.000 A 
ATOM     34  C   UNL     1       7.046   4.931  16.464  0.00  0.00    +0.000 A 
ATOM     35  F   UNL     1       7.791   5.251  17.530  0.00  0.00    +0.000 F 
ENDBRANCH  25  28
ENDBRANCH  23  25
ENDBRANCH  22  23
ENDBRANCH   1  22
TORSDOF 8
ENDMDL
MODEL 5
REMARK VINA RESULT:      -7.2      2.432      5.255
REMARK  Name = 
REMARK  9 active torsions:
REMARK  status: ('A' for Active; 'I' for Inactive)
REMARK    1  A    between atoms: C_1  and  O_2
REMARK    2  A    between atoms: O_2  and  C_3
REMARK    3  A    between atoms: C_6  and  N_7
REMARK    4  A    between atoms: N_10  and  C_11
REMARK    5  A    between atoms: C_11  and  C_12
REMARK    6  A    between atoms: C_11  and  C_25
REMARK    7  A    between atoms: C_12  and  N_13
REMARK    8  A    between atoms: N_13  and  S_14
REMARK    9  A    between atoms: S_14  and  C_17
REMARK                            x       y       z     vdW  Elec       q    Type
REMARK                         _______ _______ _______ _____ _____    ______ ____
ROOT
ATOM      1  C   UNL     1       1.905   6.246  19.144  0.00  0.00    +0.000 C 
ENDROOT
BRANCH   1   5
ATOM      2  N   UNL     1       0.044   9.238  19.946  0.00  0.00    +0.000 N 
ATOM      3  C   UNL     1       0.894   9.145  18.747  0.00  0.00    +0.000 C 
ATOM      4  C   UNL     1       2.338   8.724  19.108  0.00  0.00    +0.000 C 
ATOM      5  N   UNL     1       2.423   7.454  19.899  0.00  0.00    +0.000 NA
ATOM      6  C   UNL     1       1.684   7.785  21.149  0.00  0.00    +0.000 C 
ATOM      7  C   UNL     1       0.193   8.169  20.950  0.00  0.00    +0.000 C 
BRANCH   2  11
ATOM      8  C   UNL     1      -1.533  12.915  21.294  0.00  0.00    +0.000 A 
ATOM      9  C   UNL     1      -0.943  12.023  22.184  0.00  0.00    +0.000 A 
ATOM     10  C   UNL     1      -0.408  10.815  21.723  0.00  0.00    +0.000 A 
ATOM     11  C   UNL     1      -0.471  10.453  20.369  0.00  0.00    +0.000 A 
ATOM     12  C   UNL     1      -1.091  11.356  19.497  0.00  0.00    +0.000 A 
ATOM     13  C   UNL     1      -1.618  12.572  19.948  0.00  0.00    +0.000 A 
BRANCH   8  15
ATOM     14  C   UNL     1      -3.078  14.685  21.120  0.00  0.00    +0.000 C 
ATOM     15  O   UNL     1      -2.022  14.066  21.846  0.00  0.00    +0.000 OA
ENDBRANCH   8  15
ENDBRANCH   2  11
ENDBRANCH   1   5
BRANCH   1  16
ATOM     16  C   UNL     1       1.736   4.972  20.007  0.00  0.00    +0.000 A 
ATOM     17  C   UNL     1       0.977   3.870  19.578  0.00  0.00    +0.000 A 
ATOM     18  C   UNL     1       0.852   2.719  20.357  0.00  0.00    +0.000 A 
ATOM     19  C   UNL     1       1.564   2.648  21.535  0.00  0.00    +0.000 A 
ATOM     20  N   UNL     1       2.346   3.647  21.979  0.00  0.00    +0.000 NA
ATOM     21  C   UNL     1       2.396   4.774  21.221  0.00  0.00    +0.000 A 
ENDBRANCH   1  16
BRANCH   1  22
ATOM     22  C   UNL     1       2.808   5.990  17.865  0.00  0.00    +0.000 C 
BRANCH  22  23
ATOM     23  N   UNL     1       4.240   5.776  18.181  0.00  0.00    +0.000 NA
ATOM     24  H   UNL     1       4.592   6.152  19.063  0.00  0.00    +0.000 HD
BRANCH  23  25
ATOM     25  S   UNL     1       4.877   4.235  17.902  0.00  0.00    +0.000 S 
ATOM     26  O   UNL     1       5.863   4.048  18.942  0.00  0.00    +0.000 OA
ATOM     27  O   UNL     1       3.781   3.307  17.744  0.00  0.00    +0.000 OA
BRANCH  25  28
ATOM     28  C   UNL     1       5.746   4.407  16.377  0.00  0.00    +0.000 A 
ATOM     29  C   UNL     1       5.222   3.840  15.212  0.00  0.00    +0.000 A 
ATOM     30  C   UNL     1       5.896   4.023  14.007  0.00  0.00    +0.000 A 
ATOM     31  F   UNL     1       5.407   3.483  12.886  0.00  0.00    +0.000 F 
ATOM     32  C   UNL     1       7.074   4.768  13.945  0.00  0.00    +0.000 A 
ATOM     33  C   UNL     1       7.582   5.344  15.110  0.00  0.00    +0.000 A 
ATOM     34  C   UNL     1       6.914   5.166  16.320  0.00  0.00    +0.000 A 
ATOM     35  F   UNL     1       7.444   5.715  17.420  0.00  0.00    +0.000 F 
ENDBRANCH  25  28
ENDBRANCH  23  25
ENDBRANCH  22  23
ENDBRANCH   1  22
TORSDOF 8
ENDMDL
MODEL 6
REMARK VINA RESULT:      -7.2      3.623      8.489
REMARK  Name = 
REMARK  9 active torsions:
REMARK  status: ('A' for Active; 'I' for Inactive)
REMARK    1  A    between atoms: C_1  and  O_2
REMARK    2  A    between atoms: O_2  and  C_3
REMARK    3  A    between atoms: C_6  and  N_7
REMARK    4  A    between atoms: N_10  and  C_11
REMARK    5  A    between atoms: C_11  and  C_12
REMARK    6  A    between atoms: C_11  and  C_25
REMARK    7  A    between atoms: C_12  and  N_13
REMARK    8  A    between atoms: N_13  and  S_14
REMARK    9  A    between atoms: S_14  and  C_17
REMARK                            x       y       z     vdW  Elec       q    Type
REMARK                         _______ _______ _______ _____ _____    ______ ____
ROOT
ATOM      1  C   UNL     1       2.458   6.499  20.023  0.00  0.00    +0.000 C 
ENDROOT
BRANCH   1   5
ATOM      2  N   UNL     1       4.648   5.416  17.360  0.00  0.00    +0.000 N 
ATOM      3  C   UNL     1       4.768   6.747  17.977  0.00  0.00    +0.000 C 
ATOM      4  C   UNL     1       3.425   7.514  17.934  0.00  0.00    +0.000 C 
ATOM      5  N   UNL     1       2.277   6.767  18.542  0.00  0.00    +0.000 NA
ATOM      6  C   UNL     1       2.173   5.552  17.686  0.00  0.00    +0.000 C 
ATOM      7  C   UNL     1       3.432   4.644  17.677  0.00  0.00    +0.000 C 
BRANCH   2  11
ATOM      8  C   UNL     1       6.675   4.401  13.799  0.00  0.00    +0.000 A 
ATOM      9  C   UNL     1       5.372   3.970  14.025  0.00  0.00    +0.000 A 
ATOM     10  C   UNL     1       4.704   4.327  15.202  0.00  0.00    +0.000 A 
ATOM     11  C   UNL     1       5.326   5.100  16.193  0.00  0.00    +0.000 A 
ATOM     12  C   UNL     1       6.646   5.502  15.954  0.00  0.00    +0.000 A 
ATOM     13  C   UNL     1       7.317   5.159  14.774  0.00  0.00    +0.000 A 
BRANCH   8  15
ATOM     14  C   UNL     1       6.449   3.094  11.851  0.00  0.00    +0.000 C 
ATOM     15  O   UNL     1       7.236   4.000  12.618  0.00  0.00    +0.000 OA
ENDBRANCH   8  15
ENDBRANCH   2  11
ENDBRANCH   1   5
BRANCH   1  16
ATOM     16  C   UNL     1       2.224   5.027  20.442  0.00  0.00    +0.000 A 
ATOM     17  C   UNL     1       0.960   4.418  20.368  0.00  0.00    +0.000 A 
ATOM     18  C   UNL     1       0.768   3.084  20.728  0.00  0.00    +0.000 A 
ATOM     19  C   UNL     1       1.871   2.339  21.083  0.00  0.00    +0.000 A 
ATOM     20  N   UNL     1       3.115   2.847  21.128  0.00  0.00    +0.000 NA
ATOM     21  C   UNL     1       3.253   4.165  20.827  0.00  0.00    +0.000 A 
ENDBRANCH   1  16
BRANCH   1  22
ATOM     22  C   UNL     1       1.570   7.513  20.860  0.00  0.00    +0.000 C 
BRANCH  22  23
ATOM     23  N   UNL     1       1.256   8.767  20.135  0.00  0.00    +0.000 NA
ATOM     24  H   UNL     1       0.911   8.687  19.177  0.00  0.00    +0.000 HD
BRANCH  23  25
ATOM     25  S   UNL     1       0.395   9.955  20.973  0.00  0.00    +0.000 S 
ATOM     26  O   UNL     1      -0.379   9.229  21.955  0.00  0.00    +0.000 OA
ATOM     27  O   UNL     1       1.316  10.993  21.375  0.00  0.00    +0.000 OA
BRANCH  25  28
ATOM     28  C   UNL     1      -0.735  10.584  19.773  0.00  0.00    +0.000 A 
ATOM     29  C   UNL     1      -0.833   9.967  18.523  0.00  0.00    +0.000 A 
ATOM     30  C   UNL     1      -1.762  10.446  17.602  0.00  0.00    +0.000 A 
ATOM     31  F   UNL     1      -1.864   9.867  16.402  0.00  0.00    +0.000 F 
ATOM     32  C   UNL     1      -2.597  11.520  17.912  0.00  0.00    +0.000 A 
ATOM     33  C   UNL     1      -2.504  12.120  19.168  0.00  0.00    +0.000 A 
ATOM     34  C   UNL     1      -1.577  11.646  20.096  0.00  0.00    +0.000 A 
ATOM     35  F   UNL     1      -1.502  12.263  21.282  0.00  0.00    +0.000 F 
ENDBRANCH  25  28
ENDBRANCH  23  25
ENDBRANCH  22  23
ENDBRANCH   1  22
TORSDOF 8
ENDMDL
MODEL 7
REMARK VINA RESULT:      -7.2      3.092      5.770
REMARK  Name = 
REMARK  9 active torsions:
REMARK  status: ('A' for Active; 'I' for Inactive)
REMARK    1  A    between atoms: C_1  and  O_2
REMARK    2  A    between atoms: O_2  and  C_3
REMARK    3  A    between atoms: C_6  and  N_7
REMARK    4  A    between atoms: N_10  and  C_11
REMARK    5  A    between atoms: C_11  and  C_12
REMARK    6  A    between atoms: C_11  and  C_25
REMARK    7  A    between atoms: C_12  and  N_13
REMARK    8  A    between atoms: N_13  and  S_14
REMARK    9  A    between atoms: S_14  and  C_17
REMARK                            x       y       z     vdW  Elec       q    Type
REMARK                         _______ _______ _______ _____ _____    ______ ____
ROOT
ATOM      1  C   UNL     1       3.528   4.799  18.162  0.00  0.00    +0.000 C 
ENDROOT
BRANCH   1   5
ATOM      2  N   UNL     1       1.902   7.985  18.670  0.00  0.00    +0.000 N 
ATOM      3  C   UNL     1       2.620   7.665  17.426  0.00  0.00    +0.000 C 
ATOM      4  C   UNL     1       4.072   7.213  17.711  0.00  0.00    +0.000 C 
ATOM      5  N   UNL     1       4.177   6.070  18.674  0.00  0.00    +0.000 NA
ATOM      6  C   UNL     1       3.584   6.626  19.923  0.00  0.00    +0.000 C 
ATOM      7  C   UNL     1       2.101   7.068  19.808  0.00  0.00    +0.000 C 
BRANCH   2  11
ATOM      8  C   UNL     1       0.700  11.947  19.498  0.00  0.00    +0.000 A 
ATOM      9  C   UNL     1       1.606  11.675  18.477  0.00  0.00    +0.000 A 
ATOM     10  C   UNL     1       1.984  10.356  18.201  0.00  0.00    +0.000 A 
ATOM     11  C   UNL     1       1.489   9.279  18.951  0.00  0.00    +0.000 A 
ATOM     12  C   UNL     1       0.598   9.579  19.988  0.00  0.00    +0.000 A 
ATOM     13  C   UNL     1       0.206  10.895  20.263  0.00  0.00    +0.000 A 
BRANCH   8  15
ATOM     14  C   UNL     1      -0.339  13.874  18.627  0.00  0.00    +0.000 C 
ATOM     15  O   UNL     1       0.396  13.267  19.684  0.00  0.00    +0.000 OA
ENDBRANCH   8  15
ENDBRANCH   2  11
ENDBRANCH   1   5
BRANCH   1  16
ATOM     16  C   UNL     1       2.732   4.010  19.230  0.00  0.00    +0.000 A 
ATOM     17  C   UNL     1       1.349   3.786  19.121  0.00  0.00    +0.000 A 
ATOM     18  C   UNL     1       0.648   3.053  20.079  0.00  0.00    +0.000 A 
ATOM     19  C   UNL     1       1.360   2.472  21.106  0.00  0.00    +0.000 A 
ATOM     20  N   UNL     1       2.691   2.606  21.241  0.00  0.00    +0.000 NA
ATOM     21  C   UNL     1       3.330   3.375  20.321  0.00  0.00    +0.000 A 
ENDBRANCH   1  16
BRANCH   1  22
ATOM     22  C   UNL     1       4.617   3.901  17.437  0.00  0.00    +0.000 C 
BRANCH  22  23
ATOM     23  N   UNL     1       4.781   4.211  15.997  0.00  0.00    +0.000 NA
ATOM     24  H   UNL     1       3.986   4.629  15.509  0.00  0.00    +0.000 HD
BRANCH  23  25
ATOM     25  S   UNL     1       6.222   4.952  15.519  0.00  0.00    +0.000 S 
ATOM     26  O   UNL     1       5.907   6.361  15.444  0.00  0.00    +0.000 OA
ATOM     27  O   UNL     1       7.288   4.473  16.368  0.00  0.00    +0.000 OA
BRANCH  25  28
ATOM     28  C   UNL     1       6.464   4.379  13.868  0.00  0.00    +0.000 A 
ATOM     29  C   UNL     1       5.562   3.468  13.311  0.00  0.00    +0.000 A 
ATOM     30  C   UNL     1       5.740   3.060  11.991  0.00  0.00    +0.000 A 
ATOM     31  F   UNL     1       4.886   2.187  11.447  0.00  0.00    +0.000 F 
ATOM     32  C   UNL     1       6.792   3.552  11.219  0.00  0.00    +0.000 A 
ATOM     33  C   UNL     1       7.679   4.474  11.777  0.00  0.00    +0.000 A 
ATOM     34  C   UNL     1       7.508   4.888  13.098  0.00  0.00    +0.000 A 
ATOM     35  F   UNL     1       8.392   5.756  13.606  0.00  0.00    +0.000 F 
ENDBRANCH  25  28
ENDBRANCH  23  25
ENDBRANCH  22  23
ENDBRANCH   1  22
TORSDOF 8
ENDMDL
MODEL 8
REMARK VINA RESULT:      -7.2      5.387     10.789
REMARK  Name = 
REMARK  9 active torsions:
REMARK  status: ('A' for Active; 'I' for Inactive)
REMARK    1  A    between atoms: C_1  and  O_2
REMARK    2  A    between atoms: O_2  and  C_3
REMARK    3  A    between atoms: C_6  and  N_7
REMARK    4  A    between atoms: N_10  and  C_11
REMARK    5  A    between atoms: C_11  and  C_12
REMARK    6  A    between atoms: C_11  and  C_25
REMARK    7  A    between atoms: C_12  and  N_13
REMARK    8  A    between atoms: N_13  and  S_14
REMARK    9  A    between atoms: S_14  and  C_17
REMARK                            x       y       z     vdW  Elec       q    Type
REMARK                         _______ _______ _______ _____ _____    ______ ____
ROOT
ATOM      1  C   UNL     1      -0.703  13.587  20.204  0.00  0.00    +0.000 C 
ENDROOT
BRANCH   1   5
ATOM      2  N   UNL     1       0.737  10.406  19.273  0.00  0.00    +0.000 N 
ATOM      3  C   UNL     1      -0.361  10.510  20.249  0.00  0.00    +0.000 C 
ATOM      4  C   UNL     1      -0.006  11.485  21.397  0.00  0.00    +0.000 C 
ATOM      5  N   UNL     1       0.403  12.850  20.934  0.00  0.00    +0.000 NA
ATOM      6  C   UNL     1       1.626  12.581  20.127  0.00  0.00    +0.000 C 
ATOM      7  C   UNL     1       1.412  11.661  18.895  0.00  0.00    +0.000 C 
BRANCH   2  11
ATOM      8  C   UNL     1       2.873   6.793  18.814  0.00  0.00    +0.000 A 
ATOM      9  C   UNL     1       2.198   7.077  19.997  0.00  0.00    +0.000 A 
ATOM     10  C   UNL     1       1.479   8.270  20.131  0.00  0.00    +0.000 A 
ATOM     11  C   UNL     1       1.436   9.221  19.102  0.00  0.00    +0.000 A 
ATOM     12  C   UNL     1       2.143   8.924  17.930  0.00  0.00    +0.000 A 
ATOM     13  C   UNL     1       2.855   7.728  17.783  0.00  0.00    +0.000 A 
BRANCH   8  15
ATOM     14  C   UNL     1       3.338   4.821  17.612  0.00  0.00    +0.000 C 
ATOM     15  O   UNL     1       3.542   5.602  18.785  0.00  0.00    +0.000 OA
ENDBRANCH   8  15
ENDBRANCH   2  11
ENDBRANCH   1   5
BRANCH   1  16
ATOM     16  C   UNL     1      -0.402  15.079  19.920  0.00  0.00    +0.000 A 
ATOM     17  C   UNL     1      -0.318  15.592  18.615  0.00  0.00    +0.000 A 
ATOM     18  C   UNL     1      -0.069  16.944  18.374  0.00  0.00    +0.000 A 
ATOM     19  C   UNL     1       0.012  17.795  19.455  0.00  0.00    +0.000 A 
ATOM     20  N   UNL     1      -0.108  17.377  20.726  0.00  0.00    +0.000 NA
ATOM     21  C   UNL     1      -0.293  16.045  20.923  0.00  0.00    +0.000 A 
ENDBRANCH   1  16
BRANCH   1  22
ATOM     22  C   UNL     1      -2.075  13.385  20.974  0.00  0.00    +0.000 C 
BRANCH  22  23
ATOM     23  N   UNL     1      -3.233  14.022  20.304  0.00  0.00    +0.000 NA
ATOM     24  H   UNL     1      -3.322  13.900  19.293  0.00  0.00    +0.000 HD
BRANCH  23  25
ATOM     25  S   UNL     1      -4.742  13.875  21.050  0.00  0.00    +0.000 S 
ATOM     26  O   UNL     1      -4.454  13.366  22.371  0.00  0.00    +0.000 OA
ATOM     27  O   UNL     1      -5.464  15.114  20.873  0.00  0.00    +0.000 OA
BRANCH  25  28
ATOM     28  C   UNL     1      -5.535  12.583  20.148  0.00  0.00    +0.000 A 
ATOM     29  C   UNL     1      -5.056  12.223  18.885  0.00  0.00    +0.000 A 
ATOM     30  C   UNL     1      -5.664  11.171  18.205  0.00  0.00    +0.000 A 
ATOM     31  F   UNL     1      -5.217  10.818  16.995  0.00  0.00    +0.000 F 
ATOM     32  C   UNL     1      -6.729  10.467  18.767  0.00  0.00    +0.000 A 
ATOM     33  C   UNL     1      -7.191  10.822  20.036  0.00  0.00    +0.000 A 
ATOM     34  C   UNL     1      -6.589  11.875  20.723  0.00  0.00    +0.000 A 
ATOM     35  F   UNL     1      -7.074  12.200  21.928  0.00  0.00    +0.000 F 
ENDBRANCH  25  28
ENDBRANCH  23  25
ENDBRANCH  22  23
ENDBRANCH   1  22
TORSDOF 8
ENDMDL
MODEL 9
REMARK VINA RESULT:      -7.1      5.368     10.699
REMARK  Name = 
REMARK  9 active torsions:
REMARK  status: ('A' for Active; 'I' for Inactive)
REMARK    1  A    between atoms: C_1  and  O_2
REMARK    2  A    between atoms: O_2  and  C_3
REMARK    3  A    between atoms: C_6  and  N_7
REMARK    4  A    between atoms: N_10  and  C_11
REMARK    5  A    between atoms: C_11  and  C_12
REMARK    6  A    between atoms: C_11  and  C_25
REMARK    7  A    between atoms: C_12  and  N_13
REMARK    8  A    between atoms: N_13  and  S_14
REMARK    9  A    between atoms: S_14  and  C_17
REMARK                            x       y       z     vdW  Elec       q    Type
REMARK                         _______ _______ _______ _____ _____    ______ ____
ROOT
ATOM      1  C   UNL     1      -0.690  13.740  20.478  0.00  0.00    +0.000 C 
ENDROOT
BRANCH   1   5
ATOM      2  N   UNL     1       0.696  10.584  19.393  0.00  0.00    +0.000 N 
ATOM      3  C   UNL     1      -0.402  10.659  20.371  0.00  0.00    +0.000 C 
ATOM      4  C   UNL     1      -0.033  11.569  21.567  0.00  0.00    +0.000 C 
ATOM      5  N   UNL     1       0.401  12.949  21.173  0.00  0.00    +0.000 NA
ATOM      6  C   UNL     1       1.621  12.698  20.356  0.00  0.00    +0.000 C 
ATOM      7  C   UNL     1       1.394  11.845  19.079  0.00  0.00    +0.000 C 
BRANCH   2  11
ATOM      8  C   UNL     1       2.754   6.977  18.633  0.00  0.00    +0.000 A 
ATOM      9  C   UNL     1       2.659   7.963  17.656  0.00  0.00    +0.000 A 
ATOM     10  C   UNL     1       1.989   9.162  17.926  0.00  0.00    +0.000 A 
ATOM     11  C   UNL     1       1.375   9.397  19.164  0.00  0.00    +0.000 A 
ATOM     12  C   UNL     1       1.464   8.381  20.123  0.00  0.00    +0.000 A 
ATOM     13  C   UNL     1       2.142   7.183  19.866  0.00  0.00    +0.000 A 
BRANCH   8  15
ATOM     14  C   UNL     1       2.819   4.621  18.661  0.00  0.00    +0.000 C 
ATOM     15  O   UNL     1       3.431   5.846  18.269  0.00  0.00    +0.000 OA
ENDBRANCH   8  15
ENDBRANCH   2  11
ENDBRANCH   1   5
BRANCH   1  16
ATOM     16  C   UNL     1      -0.282  15.178  20.076  0.00  0.00    +0.000 A 
ATOM     17  C   UNL     1       0.105  16.141  21.024  0.00  0.00    +0.000 A 
ATOM     18  C   UNL     1       0.492  17.427  20.645  0.00  0.00    +0.000 A 
ATOM     19  C   UNL     1       0.570  17.715  19.299  0.00  0.00    +0.000 A 
ATOM     20  N   UNL     1       0.261  16.826  18.341  0.00  0.00    +0.000 NA
ATOM     21  C   UNL     1      -0.168  15.603  18.750  0.00  0.00    +0.000 A 
ENDBRANCH   1  16
BRANCH   1  22
ATOM     22  C   UNL     1      -2.010  13.712  21.357  0.00  0.00    +0.000 C 
BRANCH  22  23
ATOM     23  N   UNL     1      -3.253  13.901  20.571  0.00  0.00    +0.000 NA
ATOM     24  H   UNL     1      -3.268  13.540  19.615  0.00  0.00    +0.000 HD
BRANCH  23  25
ATOM     25  S   UNL     1      -4.720  13.581  21.346  0.00  0.00    +0.000 S 
ATOM     26  O   UNL     1      -4.356  12.873  22.552  0.00  0.00    +0.000 OA
ATOM     27  O   UNL     1      -5.483  14.806  21.406  0.00  0.00    +0.000 OA
BRANCH  25  28
ATOM     28  C   UNL     1      -5.518  12.426  20.278  0.00  0.00    +0.000 A 
ATOM     29  C   UNL     1      -4.956  12.128  19.034  0.00  0.00    +0.000 A 
ATOM     30  C   UNL     1      -5.574  11.180  18.222  0.00  0.00    +0.000 A 
ATOM     31  F   UNL     1      -5.047  10.887  17.028  0.00  0.00    +0.000 F 
ATOM     32  C   UNL     1      -6.731  10.520  18.634  0.00  0.00    +0.000 A 
ATOM     33  C   UNL     1      -7.277  10.811  19.885  0.00  0.00    +0.000 A 
ATOM     34  C   UNL     1      -6.666  11.759  20.704  0.00  0.00    +0.000 A 
ATOM     35  F   UNL     1      -7.232  12.028  21.888  0.00  0.00    +0.000 F 
ENDBRANCH  25  28
ENDBRANCH  23  25
ENDBRANCH  22  23
ENDBRANCH   1  22
TORSDOF 8
ENDMDL
