MODEL 1
REMARK VINA RESULT:      -7.9      0.000      0.000
REMARK  Name = 
REMARK  7 active torsions:
REMARK  status: ('A' for Active; 'I' for Inactive)
REMARK    1  A    between atoms: C_1  and  O_2
REMARK    2  A    between atoms: O_2  and  C_3
REMARK    3  A    between atoms: C_6  and  C_7
REMARK    4  A    between atoms: C_12  and  C_13
REMARK    5  A    between atoms: C_18  and  C_19
REMARK    6  A    between atoms: C_22  and  O_23
REMARK    7  A    between atoms: O_23  and  C_24
REMARK                            x       y       z     vdW  Elec       q    Type
REMARK                         _______ _______ _______ _____ _____    ______ ____
ROOT
ATOM      1  C   UNL     1       1.072   8.814  20.633  0.00  0.00    +0.000 A 
ATOM      2  C   UNL     1       1.255   8.891  22.027  0.00  0.00    +0.000 A 
ATOM      3  C   UNL     1       0.547   9.793  22.826  0.00  0.00    +0.000 A 
ATOM      4  C   UNL     1      -0.339  10.635  22.165  0.00  0.00    +0.000 A 
ATOM      5  O   UNL     1      -1.084  11.585  22.755  0.00  0.00    +0.000 OA
ATOM      6  C   UNL     1      -1.860  12.208  21.803  0.00  0.00    +0.000 A 
ATOM      7  C   UNL     1      -1.622  11.601  20.566  0.00  0.00    +0.000 A 
ATOM      8  C   UNL     1      -0.590  10.612  20.814  0.00  0.00    +0.000 A 
ATOM      9  C   UNL     1       0.126   9.673  20.037  0.00  0.00    +0.000 A 
ENDROOT
BRANCH   1  13
ATOM     10  C   UNL     1       3.313   6.018  18.242  0.00  0.00    +0.000 A 
ATOM     11  C   UNL     1       3.002   7.283  17.749  0.00  0.00    +0.000 A 
ATOM     12  C   UNL     1       2.283   8.191  18.528  0.00  0.00    +0.000 A 
ATOM     13  C   UNL     1       1.824   7.846  19.810  0.00  0.00    +0.000 A 
ATOM     14  C   UNL     1       2.119   6.551  20.275  0.00  0.00    +0.000 A 
ATOM     15  C   UNL     1       2.860   5.648  19.505  0.00  0.00    +0.000 A 
BRANCH  10  17
ATOM     16  C   UNL     1       3.544   3.883  17.271  0.00  0.00    +0.000 C 
ATOM     17  O   UNL     1       4.019   5.219  17.388  0.00  0.00    +0.000 OA
ENDBRANCH  10  17
ENDBRANCH   1  13
BRANCH   7  18
ATOM     18  C   UNL     1      -2.276  11.763  19.262  0.00  0.00    +0.000 A 
ATOM     19  C   UNL     1      -1.544  11.475  18.094  0.00  0.00    +0.000 A 
ATOM     20  C   UNL     1      -2.189  11.198  16.883  0.00  0.00    +0.000 A 
ATOM     21  C   UNL     1      -3.577  11.252  16.795  0.00  0.00    +0.000 A 
ATOM     22  C   UNL     1      -4.308  11.652  17.913  0.00  0.00    +0.000 A 
ATOM     23  C   UNL     1      -3.664  11.889  19.144  0.00  0.00    +0.000 A 
BRANCH  21  24
ATOM     24  O   UNL     1      -4.095  10.920  15.573  0.00  0.00    +0.000 OA
ATOM     25  C   UNL     1      -3.212  10.257  14.674  0.00  0.00    +0.000 C 
ENDBRANCH  21  24
ENDBRANCH   7  18
BRANCH   6  26
ATOM     26  C   UNL     1      -2.724  13.344  22.269  0.00  0.00    +0.000 A 
ATOM     27  C   UNL     1      -2.643  14.735  22.005  0.00  0.00    +0.000 A 
ATOM     28  C   UNL     1      -3.639  15.449  22.650  0.00  0.00    +0.000 A 
ATOM     29  S   UNL     1      -4.649  14.451  23.600  0.00  0.00    +0.000 S 
ATOM     30  C   UNL     1      -3.773  13.062  23.132  0.00  0.00    +0.000 A 
ENDBRANCH   6  26
TORSDOF 5
ENDMDL
MODEL 2
REMARK VINA RESULT:      -7.9      0.539      1.186
REMARK  Name = 
REMARK  7 active torsions:
REMARK  status: ('A' for Active; 'I' for Inactive)
REMARK    1  A    between atoms: C_1  and  O_2
REMARK    2  A    between atoms: O_2  and  C_3
REMARK    3  A    between atoms: C_6  and  C_7
REMARK    4  A    between atoms: C_12  and  C_13
REMARK    5  A    between atoms: C_18  and  C_19
REMARK    6  A    between atoms: C_22  and  O_23
REMARK    7  A    between atoms: O_23  and  C_24
REMARK                            x       y       z     vdW  Elec       q    Type
REMARK                         _______ _______ _______ _____ _____    ______ ____
ROOT
ATOM      1  C   UNL     1       1.037   8.798  20.733  0.00  0.00    +0.000 A 
ATOM      2  C   UNL     1       1.188   8.841  22.132  0.00  0.00    +0.000 A 
ATOM      3  C   UNL     1       0.467   9.728  22.936  0.00  0.00    +0.000 A 
ATOM      4  C   UNL     1      -0.399  10.591  22.276  0.00  0.00    +0.000 A 
ATOM      5  O   UNL     1      -1.151  11.532  22.870  0.00  0.00    +0.000 OA
ATOM      6  C   UNL     1      -1.902  12.181  21.916  0.00  0.00    +0.000 A 
ATOM      7  C   UNL     1      -1.640  11.602  20.671  0.00  0.00    +0.000 A 
ATOM      8  C   UNL     1      -0.619  10.602  20.919  0.00  0.00    +0.000 A 
ATOM      9  C   UNL     1       0.108   9.677  20.136  0.00  0.00    +0.000 A 
ENDROOT
BRANCH   1  13
ATOM     10  C   UNL     1       3.217   5.988  18.303  0.00  0.00    +0.000 A 
ATOM     11  C   UNL     1       2.785   5.636  19.579  0.00  0.00    +0.000 A 
ATOM     12  C   UNL     1       2.071   6.545  20.362  0.00  0.00    +0.000 A 
ATOM     13  C   UNL     1       1.801   7.845  19.904  0.00  0.00    +0.000 A 
ATOM     14  C   UNL     1       2.277   8.192  18.626  0.00  0.00    +0.000 A 
ATOM     15  C   UNL     1       2.972   7.275  17.829  0.00  0.00    +0.000 A 
BRANCH  10  17
ATOM     16  C   UNL     1       4.393   3.949  18.439  0.00  0.00    +0.000 C 
ATOM     17  O   UNL     1       3.905   5.017  17.633  0.00  0.00    +0.000 OA
ENDBRANCH  10  17
ENDBRANCH   1  13
BRANCH   7  18
ATOM     18  C   UNL     1      -2.264  11.799  19.357  0.00  0.00    +0.000 A 
ATOM     19  C   UNL     1      -1.493  11.577  18.199  0.00  0.00    +0.000 A 
ATOM     20  C   UNL     1      -2.098  11.331  16.961  0.00  0.00    +0.000 A 
ATOM     21  C   UNL     1      -3.484  11.353  16.837  0.00  0.00    +0.000 A 
ATOM     22  C   UNL     1      -4.255  11.689  17.949  0.00  0.00    +0.000 A 
ATOM     23  C   UNL     1      -3.650  11.893  19.205  0.00  0.00    +0.000 A 
BRANCH  21  24
ATOM     24  O   UNL     1      -3.960  11.056  15.589  0.00  0.00    +0.000 OA
ATOM     25  C   UNL     1      -3.155  10.189  14.797  0.00  0.00    +0.000 C 
ENDBRANCH  21  24
ENDBRANCH   7  18
BRANCH   6  26
ATOM     26  C   UNL     1      -2.770  13.312  22.389  0.00  0.00    +0.000 A 
ATOM     27  C   UNL     1      -3.894  13.315  23.254  0.00  0.00    +0.000 A 
ATOM     28  C   UNL     1      -4.423  14.584  23.420  0.00  0.00    +0.000 A 
ATOM     29  S   UNL     1      -3.588  15.765  22.510  0.00  0.00    +0.000 S 
ATOM     30  C   UNL     1      -2.506  14.588  21.912  0.00  0.00    +0.000 A 
ENDBRANCH   6  26
TORSDOF 5
ENDMDL
MODEL 3
REMARK VINA RESULT:      -7.6      2.850      3.570
REMARK  Name = 
REMARK  7 active torsions:
REMARK  status: ('A' for Active; 'I' for Inactive)
REMARK    1  A    between atoms: C_1  and  O_2
REMARK    2  A    between atoms: O_2  and  C_3
REMARK    3  A    between atoms: C_6  and  C_7
REMARK    4  A    between atoms: C_12  and  C_13
REMARK    5  A    between atoms: C_18  and  C_19
REMARK    6  A    between atoms: C_22  and  O_23
REMARK    7  A    between atoms: O_23  and  C_24
REMARK                            x       y       z     vdW  Elec       q    Type
REMARK                         _______ _______ _______ _____ _____    ______ ____
ROOT
ATOM      1  C   UNL     1       0.984   8.997  20.762  0.00  0.00    +0.000 A 
ATOM      2  C   UNL     1       0.275   8.486  21.864  0.00  0.00    +0.000 A 
ATOM      3  C   UNL     1      -0.448   9.307  22.736  0.00  0.00    +0.000 A 
ATOM      4  C   UNL     1      -0.411  10.669  22.468  0.00  0.00    +0.000 A 
ATOM      5  O   UNL     1      -1.015  11.616  23.205  0.00  0.00    +0.000 OA
ATOM      6  C   UNL     1      -0.788  12.848  22.635  0.00  0.00    +0.000 A 
ATOM      7  C   UNL     1      -0.040  12.669  21.467  0.00  0.00    +0.000 A 
ATOM      8  C   UNL     1       0.240  11.247  21.403  0.00  0.00    +0.000 A 
ATOM      9  C   UNL     1       0.942  10.388  20.528  0.00  0.00    +0.000 A 
ENDROOT
BRANCH   1  13
ATOM     10  C   UNL     1       3.118   6.380  18.085  0.00  0.00    +0.000 A 
ATOM     11  C   UNL     1       2.749   5.948  19.357  0.00  0.00    +0.000 A 
ATOM     12  C   UNL     1       2.051   6.794  20.219  0.00  0.00    +0.000 A 
ATOM     13  C   UNL     1       1.732   8.110  19.848  0.00  0.00    +0.000 A 
ATOM     14  C   UNL     1       2.145   8.539  18.572  0.00  0.00    +0.000 A 
ATOM     15  C   UNL     1       2.823   7.685  17.697  0.00  0.00    +0.000 A 
BRANCH  10  17
ATOM     16  C   UNL     1       4.719   4.651  18.050  0.00  0.00    +0.000 C 
ATOM     17  O   UNL     1       3.797   5.465  17.334  0.00  0.00    +0.000 OA
ENDBRANCH  10  17
ENDBRANCH   1  13
BRANCH   7  18
ATOM     18  C   UNL     1       0.350  13.608  20.408  0.00  0.00    +0.000 A 
ATOM     19  C   UNL     1      -0.637  14.079  19.521  0.00  0.00    +0.000 A 
ATOM     20  C   UNL     1      -0.451  15.256  18.786  0.00  0.00    +0.000 A 
ATOM     21  C   UNL     1       0.745  15.962  18.878  0.00  0.00    +0.000 A 
ATOM     22  C   UNL     1       1.776  15.443  19.661  0.00  0.00    +0.000 A 
ATOM     23  C   UNL     1       1.574  14.283  20.435  0.00  0.00    +0.000 A 
BRANCH  21  24
ATOM     24  O   UNL     1       0.795  17.118  18.148  0.00  0.00    +0.000 OA
ATOM     25  C   UNL     1      -0.454  17.632  17.697  0.00  0.00    +0.000 C 
ENDBRANCH  21  24
ENDBRANCH   7  18
BRANCH   6  26
ATOM     26  C   UNL     1      -1.342  14.043  23.356  0.00  0.00    +0.000 A 
ATOM     27  C   UNL     1      -0.776  15.320  23.602  0.00  0.00    +0.000 A 
ATOM     28  C   UNL     1      -1.624  16.138  24.328  0.00  0.00    +0.000 A 
ATOM     29  S   UNL     1      -3.087  15.360  24.743  0.00  0.00    +0.000 S 
ATOM     30  C   UNL     1      -2.600  13.938  23.934  0.00  0.00    +0.000 A 
ENDBRANCH   6  26
TORSDOF 5
ENDMDL
MODEL 4
REMARK VINA RESULT:      -7.5      2.910      3.572
REMARK  Name = 
REMARK  7 active torsions:
REMARK  status: ('A' for Active; 'I' for Inactive)
REMARK    1  A    between atoms: C_1  and  O_2
REMARK    2  A    between atoms: O_2  and  C_3
REMARK    3  A    between atoms: C_6  and  C_7
REMARK    4  A    between atoms: C_12  and  C_13
REMARK    5  A    between atoms: C_18  and  C_19
REMARK    6  A    between atoms: C_22  and  O_23
REMARK    7  A    between atoms: O_23  and  C_24
REMARK                            x       y       z     vdW  Elec       q    Type
REMARK                         _______ _______ _______ _____ _____    ______ ____
ROOT
ATOM      1  C   UNL     1       1.067   8.860  20.706  0.00  0.00    +0.000 A 
ATOM      2  C   UNL     1       0.364   8.353  21.814  0.00  0.00    +0.000 A 
ATOM      3  C   UNL     1      -0.367   9.175  22.678  0.00  0.00    +0.000 A 
ATOM      4  C   UNL     1      -0.344  10.535  22.396  0.00  0.00    +0.000 A 
ATOM      5  O   UNL     1      -0.956  11.483  23.125  0.00  0.00    +0.000 OA
ATOM      6  C   UNL     1      -0.742  12.712  22.542  0.00  0.00    +0.000 A 
ATOM      7  C   UNL     1       0.007  12.528  21.376  0.00  0.00    +0.000 A 
ATOM      8  C   UNL     1       0.300  11.109  21.326  0.00  0.00    +0.000 A 
ATOM      9  C   UNL     1       1.010  10.248  20.459  0.00  0.00    +0.000 A 
ENDROOT
BRANCH   1  13
ATOM     10  C   UNL     1       3.321   6.297  18.077  0.00  0.00    +0.000 A 
ATOM     11  C   UNL     1       2.971   7.587  17.682  0.00  0.00    +0.000 A 
ATOM     12  C   UNL     1       2.248   8.418  18.539  0.00  0.00    +0.000 A 
ATOM     13  C   UNL     1       1.823   7.972  19.800  0.00  0.00    +0.000 A 
ATOM     14  C   UNL     1       2.156   6.654  20.165  0.00  0.00    +0.000 A 
ATOM     15  C   UNL     1       2.902   5.826  19.318  0.00  0.00    +0.000 A 
BRANCH  10  17
ATOM     16  C   UNL     1       5.010   6.312  16.432  0.00  0.00    +0.000 C 
ATOM     17  O   UNL     1       4.027   5.579  17.155  0.00  0.00    +0.000 OA
ENDBRANCH  10  17
ENDBRANCH   1  13
BRANCH   7  18
ATOM     18  C   UNL     1       0.386  13.461  20.307  0.00  0.00    +0.000 A 
ATOM     19  C   UNL     1      -0.623  14.203  19.664  0.00  0.00    +0.000 A 
ATOM     20  C   UNL     1      -0.325  15.379  18.965  0.00  0.00    +0.000 A 
ATOM     21  C   UNL     1       0.992  15.814  18.846  0.00  0.00    +0.000 A 
ATOM     22  C   UNL     1       2.013  15.024  19.376  0.00  0.00    +0.000 A 
ATOM     23  C   UNL     1       1.711  13.865  20.117  0.00  0.00    +0.000 A 
BRANCH  21  24
ATOM     24  O   UNL     1       1.155  16.996  18.179  0.00  0.00    +0.000 OA
ATOM     25  C   UNL     1       2.409  17.187  17.533  0.00  0.00    +0.000 C 
ENDBRANCH  21  24
ENDBRANCH   7  18
BRANCH   6  26
ATOM     26  C   UNL     1      -1.308  13.908  23.252  0.00  0.00    +0.000 A 
ATOM     27  C   UNL     1      -0.755  15.194  23.482  0.00  0.00    +0.000 A 
ATOM     28  C   UNL     1      -1.611  16.010  24.202  0.00  0.00    +0.000 A 
ATOM     29  S   UNL     1      -3.064  15.220  24.630  0.00  0.00    +0.000 S 
ATOM     30  C   UNL     1      -2.562  13.795  23.835  0.00  0.00    +0.000 A 
ENDBRANCH   6  26
TORSDOF 5
ENDMDL
MODEL 5
REMARK VINA RESULT:      -7.5      4.214      9.709
REMARK  Name = 
REMARK  7 active torsions:
REMARK  status: ('A' for Active; 'I' for Inactive)
REMARK    1  A    between atoms: C_1  and  O_2
REMARK    2  A    between atoms: O_2  and  C_3
REMARK    3  A    between atoms: C_6  and  C_7
REMARK    4  A    between atoms: C_12  and  C_13
REMARK    5  A    between atoms: C_18  and  C_19
REMARK    6  A    between atoms: C_22  and  O_23
REMARK    7  A    between atoms: O_23  and  C_24
REMARK                            x       y       z     vdW  Elec       q    Type
REMARK                         _______ _______ _______ _____ _____    ______ ____
ROOT
ATOM      1  C   UNL     1       1.129   9.417  19.756  0.00  0.00    +0.000 A 
ATOM      2  C   UNL     1       1.303  10.051  18.511  0.00  0.00    +0.000 A 
ATOM      3  C   UNL     1       2.068   9.489  17.485  0.00  0.00    +0.000 A 
ATOM      4  C   UNL     1       2.674   8.271  17.768  0.00  0.00    +0.000 A 
ATOM      5  O   UNL     1       3.470   7.592  16.924  0.00  0.00    +0.000 OA
ATOM      6  C   UNL     1       3.872   6.421  17.525  0.00  0.00    +0.000 A 
ATOM      7  C   UNL     1       3.276   6.338  18.787  0.00  0.00    +0.000 A 
ATOM      8  C   UNL     1       2.541   7.578  18.948  0.00  0.00    +0.000 A 
ATOM      9  C   UNL     1       1.741   8.162  19.956  0.00  0.00    +0.000 A 
ENDROOT
BRANCH   1  13
ATOM     10  C   UNL     1      -1.317  11.175  22.836  0.00  0.00    +0.000 A 
ATOM     11  C   UNL     1      -1.089  11.850  21.639  0.00  0.00    +0.000 A 
ATOM     12  C   UNL     1      -0.303  11.275  20.639  0.00  0.00    +0.000 A 
ATOM     13  C   UNL     1       0.307  10.024  20.822  0.00  0.00    +0.000 A 
ATOM     14  C   UNL     1       0.092   9.374  22.052  0.00  0.00    +0.000 A 
ATOM     15  C   UNL     1      -0.715   9.937  23.046  0.00  0.00    +0.000 A 
BRANCH  10  17
ATOM     16  C   UNL     1      -3.309  12.378  23.213  0.00  0.00    +0.000 C 
ATOM     17  O   UNL     1      -2.101  11.837  23.737  0.00  0.00    +0.000 OA
ENDBRANCH  10  17
ENDBRANCH   1  13
BRANCH   7  18
ATOM     18  C   UNL     1       3.240   5.253  19.776  0.00  0.00    +0.000 A 
ATOM     19  C   UNL     1       2.214   5.247  20.739  0.00  0.00    +0.000 A 
ATOM     20  C   UNL     1       1.863   4.074  21.419  0.00  0.00    +0.000 A 
ATOM     21  C   UNL     1       2.562   2.893  21.192  0.00  0.00    +0.000 A 
ATOM     22  C   UNL     1       3.658   2.913  20.328  0.00  0.00    +0.000 A 
ATOM     23  C   UNL     1       3.984   4.081  19.611  0.00  0.00    +0.000 A 
BRANCH  21  24
ATOM     24  O   UNL     1       2.102   1.804  21.880  0.00  0.00    +0.000 OA
ATOM     25  C   UNL     1       0.915   1.996  22.643  0.00  0.00    +0.000 C 
ENDBRANCH  21  24
ENDBRANCH   7  18
BRANCH   6  26
ATOM     26  C   UNL     1       4.819   5.550  16.749  0.00  0.00    +0.000 A 
ATOM     27  C   UNL     1       4.681   4.217  16.286  0.00  0.00    +0.000 A 
ATOM     28  C   UNL     1       5.810   3.776  15.616  0.00  0.00    +0.000 A 
ATOM     29  S   UNL     1       7.048   4.952  15.575  0.00  0.00    +0.000 S 
ATOM     30  C   UNL     1       6.070   6.060  16.430  0.00  0.00    +0.000 A 
ENDBRANCH   6  26
TORSDOF 5
ENDMDL
MODEL 6
REMARK VINA RESULT:      -7.4      2.991      3.795
REMARK  Name = 
REMARK  7 active torsions:
REMARK  status: ('A' for Active; 'I' for Inactive)
REMARK    1  A    between atoms: C_1  and  O_2
REMARK    2  A    between atoms: O_2  and  C_3
REMARK    3  A    between atoms: C_6  and  C_7
REMARK    4  A    between atoms: C_12  and  C_13
REMARK    5  A    between atoms: C_18  and  C_19
REMARK    6  A    between atoms: C_22  and  O_23
REMARK    7  A    between atoms: O_23  and  C_24
REMARK                            x       y       z     vdW  Elec       q    Type
REMARK                         _______ _______ _______ _____ _____    ______ ____
ROOT
ATOM      1  C   UNL     1       0.719   9.395  20.914  0.00  0.00    +0.000 A 
ATOM      2  C   UNL     1      -0.085   8.823  21.918  0.00  0.00    +0.000 A 
ATOM      3  C   UNL     1      -0.832   9.598  22.811  0.00  0.00    +0.000 A 
ATOM      4  C   UNL     1      -0.720  10.975  22.670  0.00  0.00    +0.000 A 
ATOM      5  O   UNL     1      -1.333  11.881  23.450  0.00  0.00    +0.000 OA
ATOM      6  C   UNL     1      -1.016  13.147  23.010  0.00  0.00    +0.000 A 
ATOM      7  C   UNL     1      -0.198  13.035  21.881  0.00  0.00    +0.000 A 
ATOM      8  C   UNL     1       0.026  11.612  21.707  0.00  0.00    +0.000 A 
ATOM      9  C   UNL     1       0.751  10.801  20.805  0.00  0.00    +0.000 A 
ENDROOT
BRANCH   1  13
ATOM     10  C   UNL     1       2.924   6.916  18.166  0.00  0.00    +0.000 A 
ATOM     11  C   UNL     1       2.684   6.490  19.470  0.00  0.00    +0.000 A 
ATOM     12  C   UNL     1       1.963   7.291  20.356  0.00  0.00    +0.000 A 
ATOM     13  C   UNL     1       1.490   8.557  19.975  0.00  0.00    +0.000 A 
ATOM     14  C   UNL     1       1.774   8.983  18.663  0.00  0.00    +0.000 A 
ATOM     15  C   UNL     1       2.476   8.172  17.765  0.00  0.00    +0.000 A 
BRANCH  10  17
ATOM     16  C   UNL     1       3.740   4.721  17.898  0.00  0.00    +0.000 C 
ATOM     17  O   UNL     1       3.640   6.048  17.393  0.00  0.00    +0.000 OA
ENDBRANCH  10  17
ENDBRANCH   1  13
BRANCH   7  18
ATOM     18  C   UNL     1       0.302  14.044  20.939  0.00  0.00    +0.000 A 
ATOM     19  C   UNL     1       1.558  14.633  21.179  0.00  0.00    +0.000 A 
ATOM     20  C   UNL     1       2.275  15.257  20.151  0.00  0.00    +0.000 A 
ATOM     21  C   UNL     1       1.733  15.355  18.873  0.00  0.00    +0.000 A 
ATOM     22  C   UNL     1       0.440  14.881  18.650  0.00  0.00    +0.000 A 
ATOM     23  C   UNL     1      -0.264  14.214  19.673  0.00  0.00    +0.000 A 
BRANCH  21  24
ATOM     24  O   UNL     1       2.543  15.946  17.942  0.00  0.00    +0.000 OA
ATOM     25  C   UNL     1       2.181  17.262  17.538  0.00  0.00    +0.000 C 
ENDBRANCH  21  24
ENDBRANCH   7  18
BRANCH   6  26
ATOM     26  C   UNL     1      -1.569  14.299  23.799  0.00  0.00    +0.000 A 
ATOM     27  C   UNL     1      -0.928  15.444  24.336  0.00  0.00    +0.000 A 
ATOM     28  C   UNL     1      -1.809  16.265  25.019  0.00  0.00    +0.000 A 
ATOM     29  S   UNL     1      -3.399  15.642  25.044  0.00  0.00    +0.000 S 
ATOM     30  C   UNL     1      -2.919  14.288  24.122  0.00  0.00    +0.000 A 
ENDBRANCH   6  26
TORSDOF 5
ENDMDL
MODEL 7
REMARK VINA RESULT:      -7.4      2.873      3.655
REMARK  Name = 
REMARK  7 active torsions:
REMARK  status: ('A' for Active; 'I' for Inactive)
REMARK    1  A    between atoms: C_1  and  O_2
REMARK    2  A    between atoms: O_2  and  C_3
REMARK    3  A    between atoms: C_6  and  C_7
REMARK    4  A    between atoms: C_12  and  C_13
REMARK    5  A    between atoms: C_18  and  C_19
REMARK    6  A    between atoms: C_22  and  O_23
REMARK    7  A    between atoms: O_23  and  C_24
REMARK                            x       y       z     vdW  Elec       q    Type
REMARK                         _______ _______ _______ _____ _____    ______ ____
ROOT
ATOM      1  C   UNL     1       0.930   8.942  20.702  0.00  0.00    +0.000 A 
ATOM      2  C   UNL     1       0.136   8.284  21.660  0.00  0.00    +0.000 A 
ATOM      3  C   UNL     1      -0.689   8.977  22.552  0.00  0.00    +0.000 A 
ATOM      4  C   UNL     1      -0.668  10.363  22.458  0.00  0.00    +0.000 A 
ATOM      5  O   UNL     1      -1.365  11.199  23.244  0.00  0.00    +0.000 OA
ATOM      6  C   UNL     1      -1.123  12.497  22.854  0.00  0.00    +0.000 A 
ATOM      7  C   UNL     1      -0.264  12.478  21.751  0.00  0.00    +0.000 A 
ATOM      8  C   UNL     1       0.062  11.080  21.540  0.00  0.00    +0.000 A 
ATOM      9  C   UNL     1       0.868  10.350  20.638  0.00  0.00    +0.000 A 
ENDROOT
BRANCH   1  13
ATOM     10  C   UNL     1       3.382   6.712  17.950  0.00  0.00    +0.000 A 
ATOM     11  C   UNL     1       3.068   6.191  19.203  0.00  0.00    +0.000 A 
ATOM     12  C   UNL     1       2.266   6.911  20.090  0.00  0.00    +0.000 A 
ATOM     13  C   UNL     1       1.785   8.189  19.763  0.00  0.00    +0.000 A 
ATOM     14  C   UNL     1       2.144   8.712  18.506  0.00  0.00    +0.000 A 
ATOM     15  C   UNL     1       2.927   7.982  17.606  0.00  0.00    +0.000 A 
BRANCH  10  17
ATOM     16  C   UNL     1       4.031   4.517  17.387  0.00  0.00    +0.000 C 
ATOM     17  O   UNL     1       4.173   5.917  17.171  0.00  0.00    +0.000 OA
ENDBRANCH  10  17
ENDBRANCH   1  13
BRANCH   7  18
ATOM     18  C   UNL     1       0.195  13.549  20.857  0.00  0.00    +0.000 A 
ATOM     19  C   UNL     1       1.376  14.243  21.180  0.00  0.00    +0.000 A 
ATOM     20  C   UNL     1       2.091  14.952  20.207  0.00  0.00    +0.000 A 
ATOM     21  C   UNL     1       1.615  15.030  18.901  0.00  0.00    +0.000 A 
ATOM     22  C   UNL     1       0.385  14.447  18.596  0.00  0.00    +0.000 A 
ATOM     23  C   UNL     1      -0.312  13.696  19.563  0.00  0.00    +0.000 A 
BRANCH  21  24
ATOM     24  O   UNL     1       2.419  15.713  18.030  0.00  0.00    +0.000 OA
ATOM     25  C   UNL     1       3.724  15.181  17.828  0.00  0.00    +0.000 C 
ENDBRANCH  21  24
ENDBRANCH   7  18
BRANCH   6  26
ATOM     26  C   UNL     1      -1.777  13.582  23.660  0.00  0.00    +0.000 A 
ATOM     27  C   UNL     1      -3.112  13.715  24.120  0.00  0.00    +0.000 A 
ATOM     28  C   UNL     1      -3.308  14.890  24.825  0.00  0.00    +0.000 A 
ATOM     29  S   UNL     1      -1.897  15.849  24.904  0.00  0.00    +0.000 S 
ATOM     30  C   UNL     1      -1.016  14.686  24.018  0.00  0.00    +0.000 A 
ENDBRANCH   6  26
TORSDOF 5
ENDMDL
MODEL 8
REMARK VINA RESULT:      -7.3      2.978      3.641
REMARK  Name = 
REMARK  7 active torsions:
REMARK  status: ('A' for Active; 'I' for Inactive)
REMARK    1  A    between atoms: C_1  and  O_2
REMARK    2  A    between atoms: O_2  and  C_3
REMARK    3  A    between atoms: C_6  and  C_7
REMARK    4  A    between atoms: C_12  and  C_13
REMARK    5  A    between atoms: C_18  and  C_19
REMARK    6  A    between atoms: C_22  and  O_23
REMARK    7  A    between atoms: O_23  and  C_24
REMARK                            x       y       z     vdW  Elec       q    Type
REMARK                         _______ _______ _______ _____ _____    ______ ____
ROOT
ATOM      1  C   UNL     1       0.703   9.350  20.933  0.00  0.00    +0.000 A 
ATOM      2  C   UNL     1      -0.041   8.727  21.953  0.00  0.00    +0.000 A 
ATOM      3  C   UNL     1      -0.812   9.451  22.867  0.00  0.00    +0.000 A 
ATOM      4  C   UNL     1      -0.787  10.834  22.731  0.00  0.00    +0.000 A 
ATOM      5  O   UNL     1      -1.435  11.698  23.530  0.00  0.00    +0.000 OA
ATOM      6  C   UNL     1      -1.207  12.982  23.089  0.00  0.00    +0.000 A 
ATOM      7  C   UNL     1      -0.410  12.924  21.941  0.00  0.00    +0.000 A 
ATOM      8  C   UNL     1      -0.104  11.519  21.754  0.00  0.00    +0.000 A 
ATOM      9  C   UNL     1       0.646  10.756  20.831  0.00  0.00    +0.000 A 
ENDROOT
BRANCH   1  13
ATOM     10  C   UNL     1       3.077   7.092  18.136  0.00  0.00    +0.000 A 
ATOM     11  C   UNL     1       2.545   8.329  17.779  0.00  0.00    +0.000 A 
ATOM     12  C   UNL     1       1.783   9.062  18.689  0.00  0.00    +0.000 A 
ATOM     13  C   UNL     1       1.501   8.564  19.971  0.00  0.00    +0.000 A 
ATOM     14  C   UNL     1       2.019   7.297  20.300  0.00  0.00    +0.000 A 
ATOM     15  C   UNL     1       2.804   6.571  19.398  0.00  0.00    +0.000 A 
BRANCH  10  17
ATOM     16  C   UNL     1       4.116   5.103  17.415  0.00  0.00    +0.000 C 
ATOM     17  O   UNL     1       3.804   6.469  17.163  0.00  0.00    +0.000 OA
ENDBRANCH  10  17
ENDBRANCH   1  13
BRANCH   7  18
ATOM     18  C   UNL     1       0.005  13.965  20.993  0.00  0.00    +0.000 A 
ATOM     19  C   UNL     1       1.165  14.713  21.270  0.00  0.00    +0.000 A 
ATOM     20  C   UNL     1       1.847  15.398  20.257  0.00  0.00    +0.000 A 
ATOM     21  C   UNL     1       1.359  15.396  18.953  0.00  0.00    +0.000 A 
ATOM     22  C   UNL     1       0.147  14.758  18.688  0.00  0.00    +0.000 A 
ATOM     23  C   UNL     1      -0.517  14.033  19.697  0.00  0.00    +0.000 A 
BRANCH  21  24
ATOM     24  O   UNL     1       2.132  16.062  18.043  0.00  0.00    +0.000 OA
ATOM     25  C   UNL     1       3.373  15.453  17.704  0.00  0.00    +0.000 C 
ENDBRANCH  21  24
ENDBRANCH   7  18
BRANCH   6  26
ATOM     26  C   UNL     1      -1.810  14.095  23.897  0.00  0.00    +0.000 A 
ATOM     27  C   UNL     1      -3.152  14.333  24.286  0.00  0.00    +0.000 A 
ATOM     28  C   UNL     1      -3.286  15.498  25.022  0.00  0.00    +0.000 A 
ATOM     29  S   UNL     1      -1.802  16.322  25.216  0.00  0.00    +0.000 S 
ATOM     30  C   UNL     1      -0.977  15.113  24.338  0.00  0.00    +0.000 A 
ENDBRANCH   6  26
TORSDOF 5
ENDMDL
MODEL 9
REMARK VINA RESULT:      -7.2      1.055      1.420
REMARK  Name = 
REMARK  7 active torsions:
REMARK  status: ('A' for Active; 'I' for Inactive)
REMARK    1  A    between atoms: C_1  and  O_2
REMARK    2  A    between atoms: O_2  and  C_3
REMARK    3  A    between atoms: C_6  and  C_7
REMARK    4  A    between atoms: C_12  and  C_13
REMARK    5  A    between atoms: C_18  and  C_19
REMARK    6  A    between atoms: C_22  and  O_23
REMARK    7  A    between atoms: O_23  and  C_24
REMARK                            x       y       z     vdW  Elec       q    Type
REMARK                         _______ _______ _______ _____ _____    ______ ____
ROOT
ATOM      1  C   UNL     1       1.261   8.313  20.615  0.00  0.00    +0.000 A 
ATOM      2  C   UNL     1       1.444   8.633  21.973  0.00  0.00    +0.000 A 
ATOM      3  C   UNL     1       0.745   9.670  22.599  0.00  0.00    +0.000 A 
ATOM      4  C   UNL     1      -0.130  10.391  21.797  0.00  0.00    +0.000 A 
ATOM      5  O   UNL     1      -0.865  11.439  22.207  0.00  0.00    +0.000 OA
ATOM      6  C   UNL     1      -1.633  11.892  21.158  0.00  0.00    +0.000 A 
ATOM      7  C   UNL     1      -1.402  11.073  20.049  0.00  0.00    +0.000 A 
ATOM      8  C   UNL     1      -0.380  10.133  20.470  0.00  0.00    +0.000 A 
ATOM      9  C   UNL     1       0.325   9.063  19.873  0.00  0.00    +0.000 A 
ENDROOT
BRANCH   1  13
ATOM     10  C   UNL     1       3.373   5.059  18.739  0.00  0.00    +0.000 A 
ATOM     11  C   UNL     1       2.749   4.883  19.972  0.00  0.00    +0.000 A 
ATOM     12  C   UNL     1       2.058   5.937  20.574  0.00  0.00    +0.000 A 
ATOM     13  C   UNL     1       2.002   7.206  19.977  0.00  0.00    +0.000 A 
ATOM     14  C   UNL     1       2.669   7.372  18.749  0.00  0.00    +0.000 A 
ATOM     15  C   UNL     1       3.341   6.312  18.131  0.00  0.00    +0.000 A 
BRANCH  10  17
ATOM     16  C   UNL     1       4.601   4.116  16.963  0.00  0.00    +0.000 C 
ATOM     17  O   UNL     1       4.016   3.959  18.251  0.00  0.00    +0.000 OA
ENDBRANCH  10  17
ENDBRANCH   1  13
BRANCH   7  18
ATOM     18  C   UNL     1      -2.053  11.009  18.734  0.00  0.00    +0.000 A 
ATOM     19  C   UNL     1      -1.744  11.992  17.775  0.00  0.00    +0.000 A 
ATOM     20  C   UNL     1      -1.975  11.774  16.411  0.00  0.00    +0.000 A 
ATOM     21  C   UNL     1      -2.569  10.592  15.978  0.00  0.00    +0.000 A 
ATOM     22  C   UNL     1      -2.989   9.661  16.928  0.00  0.00    +0.000 A 
ATOM     23  C   UNL     1      -2.717   9.860  18.296  0.00  0.00    +0.000 A 
BRANCH  21  24
ATOM     24  O   UNL     1      -2.705  10.474  14.622  0.00  0.00    +0.000 OA
ATOM     25  C   UNL     1      -3.974  10.031  14.153  0.00  0.00    +0.000 C 
ENDBRANCH  21  24
ENDBRANCH   7  18
BRANCH   6  26
ATOM     26  C   UNL     1      -2.485  13.102  21.413  0.00  0.00    +0.000 A 
ATOM     27  C   UNL     1      -2.350  14.439  20.960  0.00  0.00    +0.000 A 
ATOM     28  C   UNL     1      -3.354  15.260  21.445  0.00  0.00    +0.000 A 
ATOM     29  S   UNL     1      -4.438  14.430  22.473  0.00  0.00    +0.000 S 
ATOM     30  C   UNL     1      -3.582  12.970  22.252  0.00  0.00    +0.000 A 
ENDBRANCH   6  26
TORSDOF 5
ENDMDL
