MODEL 1
REMARK VINA RESULT:      -6.9      0.000      0.000
REMARK  Name = 
REMARK  8 active torsions:
REMARK  status: ('A' for Active; 'I' for Inactive)
REMARK    1  A    between atoms: C_1  and  O_2
REMARK    2  A    between atoms: O_2  and  C_3
REMARK    3  A    between atoms: C_3  and  C_5
REMARK    4  A    between atoms: C_9  and  N_10
REMARK    5  A    between atoms: N_10  and  C_11
REMARK    6  A    between atoms: C_14  and  O_15
REMARK    7  A    between atoms: O_15  and  C_16
REMARK    8  A    between atoms: C_21  and  C_22
REMARK                            x       y       z     vdW  Elec       q    Type
REMARK                         _______ _______ _______ _____ _____    ______ ____
ROOT
ATOM      1  C   UNL     1       1.071   9.889  19.835  0.00  0.00    +0.000 C 
ATOM      2  C   UNL     1       1.680   9.281  18.591  0.00  0.00    +0.000 C 
ATOM      3  O   UNL     1       1.800   9.909  17.540  0.00  0.00    +0.000 OA
ATOM      4  C   UNL     1       2.243   7.913  18.658  0.00  0.00    +0.000 C 
ATOM      5  C   UNL     1       2.244   7.194  19.791  0.00  0.00    +0.000 C 
ATOM      6  C   UNL     1       1.667   7.758  21.071  0.00  0.00    +0.000 C 
ATOM      7  C   UNL     1       0.581   8.816  20.823  0.00  0.00    +0.000 C 
ATOM      8  C   UNL     1       0.153   9.427  22.163  0.00  0.00    +0.000 C 
ENDROOT
BRANCH   1   9
ATOM      9  C   UNL     1      -0.079  10.791  19.454  0.00  0.00    +0.000 C 
ATOM     10  O   UNL     1      -0.031  12.015  19.448  0.00  0.00    +0.000 OA
BRANCH   9  12
ATOM     11  C   UNL     1      -1.738  10.488  17.829  0.00  0.00    +0.000 C 
ATOM     12  O   UNL     1      -1.153  10.051  19.055  0.00  0.00    +0.000 OA
ENDBRANCH   9  12
ENDBRANCH   1   9
BRANCH   5  13
ATOM     13  N   UNL     1       2.800   5.924  19.887  0.00  0.00    +0.000 N 
ATOM     14  H   UNL     1       2.146   5.228  20.246  0.00  0.00    +0.000 HD
BRANCH  13  15
ATOM     15  C   UNL     1       3.644   5.330  18.915  0.00  0.00    +0.000 A 
ATOM     16  C   UNL     1       3.171   4.623  17.810  0.00  0.00    +0.000 A 
ATOM     17  C   UNL     1       4.060   4.087  16.873  0.00  0.00    +0.000 A 
ATOM     18  C   UNL     1       5.448   4.247  16.991  0.00  0.00    +0.000 A 
ATOM     19  C   UNL     1       5.931   4.981  18.080  0.00  0.00    +0.000 A 
ATOM     20 CL   UNL     1       7.598   5.296  18.414  0.00  0.00    +0.000 Cl
ATOM     21  C   UNL     1       5.028   5.525  19.015  0.00  0.00    +0.000 A 
BRANCH  18  22
ATOM     22  O   UNL     1       6.098   3.625  15.964  0.00  0.00    +0.000 OA
ATOM     23  C   UNL     1       6.680   4.370  14.912  0.00  0.00    +0.000 C 
ENDBRANCH  18  22
ENDBRANCH  13  15
ENDBRANCH   5  13
TORSDOF 5
ENDMDL
MODEL 2
REMARK VINA RESULT:      -6.8      0.590      1.074
REMARK  Name = 
REMARK  8 active torsions:
REMARK  status: ('A' for Active; 'I' for Inactive)
REMARK    1  A    between atoms: C_1  and  O_2
REMARK    2  A    between atoms: O_2  and  C_3
REMARK    3  A    between atoms: C_3  and  C_5
REMARK    4  A    between atoms: C_9  and  N_10
REMARK    5  A    between atoms: N_10  and  C_11
REMARK    6  A    between atoms: C_14  and  O_15
REMARK    7  A    between atoms: O_15  and  C_16
REMARK    8  A    between atoms: C_21  and  C_22
REMARK                            x       y       z     vdW  Elec       q    Type
REMARK                         _______ _______ _______ _____ _____    ______ ____
ROOT
ATOM      1  C   UNL     1       0.914   9.761  19.787  0.00  0.00    +0.000 C 
ATOM      2  C   UNL     1       1.638   9.232  18.569  0.00  0.00    +0.000 C 
ATOM      3  O   UNL     1       1.782   9.898  17.545  0.00  0.00    +0.000 OA
ATOM      4  C   UNL     1       2.284   7.902  18.636  0.00  0.00    +0.000 C 
ATOM      5  C   UNL     1       2.262   7.149  19.747  0.00  0.00    +0.000 C 
ATOM      6  C   UNL     1       1.570   7.635  21.001  0.00  0.00    +0.000 C 
ATOM      7  C   UNL     1       0.435   8.629  20.713  0.00  0.00    +0.000 C 
ATOM      8  C   UNL     1      -0.115   9.170  22.038  0.00  0.00    +0.000 C 
ENDROOT
BRANCH   1   9
ATOM      9  C   UNL     1      -0.267  10.599  19.357  0.00  0.00    +0.000 C 
ATOM     10  O   UNL     1      -1.310  10.148  18.899  0.00  0.00    +0.000 OA
BRANCH   9  12
ATOM     11  C   UNL     1      -0.924  12.494  20.565  0.00  0.00    +0.000 C 
ATOM     12  O   UNL     1      -0.033  11.918  19.611  0.00  0.00    +0.000 OA
ENDBRANCH   9  12
ENDBRANCH   1   9
BRANCH   5  13
ATOM     13  N   UNL     1       2.893   5.915  19.845  0.00  0.00    +0.000 N 
ATOM     14  H   UNL     1       2.259   5.163  20.119  0.00  0.00    +0.000 HD
BRANCH  13  15
ATOM     15  C   UNL     1       3.855   5.419  18.928  0.00  0.00    +0.000 A 
ATOM     16  C   UNL     1       3.527   4.783  17.732  0.00  0.00    +0.000 A 
ATOM     17  C   UNL     1       4.527   4.343  16.860  0.00  0.00    +0.000 A 
ATOM     18  C   UNL     1       5.888   4.533  17.138  0.00  0.00    +0.000 A 
ATOM     19  C   UNL     1       6.228   5.197  18.321  0.00  0.00    +0.000 A 
ATOM     20 CL   UNL     1       7.839   5.532  18.854  0.00  0.00    +0.000 Cl
ATOM     21  C   UNL     1       5.213   5.644  19.190  0.00  0.00    +0.000 A 
BRANCH  18  22
ATOM     22  O   UNL     1       6.665   4.007  16.145  0.00  0.00    +0.000 OA
ATOM     23  C   UNL     1       6.190   3.922  14.816  0.00  0.00    +0.000 C 
ENDBRANCH  18  22
ENDBRANCH  13  15
ENDBRANCH   5  13
TORSDOF 5
ENDMDL
MODEL 3
REMARK VINA RESULT:      -6.7      3.165      4.054
REMARK  Name = 
REMARK  8 active torsions:
REMARK  status: ('A' for Active; 'I' for Inactive)
REMARK    1  A    between atoms: C_1  and  O_2
REMARK    2  A    between atoms: O_2  and  C_3
REMARK    3  A    between atoms: C_3  and  C_5
REMARK    4  A    between atoms: C_9  and  N_10
REMARK    5  A    between atoms: N_10  and  C_11
REMARK    6  A    between atoms: C_14  and  O_15
REMARK    7  A    between atoms: O_15  and  C_16
REMARK    8  A    between atoms: C_21  and  C_22
REMARK                            x       y       z     vdW  Elec       q    Type
REMARK                         _______ _______ _______ _____ _____    ______ ____
ROOT
ATOM      1  C   UNL     1      -0.684  10.584  21.326  0.00  0.00    +0.000 C 
ATOM      2  C   UNL     1       0.092   9.929  22.447  0.00  0.00    +0.000 C 
ATOM      3  O   UNL     1      -0.183  10.109  23.632  0.00  0.00    +0.000 OA
ATOM      4  C   UNL     1       1.160   8.959  22.113  0.00  0.00    +0.000 C 
ATOM      5  C   UNL     1       1.459   8.629  20.848  0.00  0.00    +0.000 C 
ATOM      6  C   UNL     1       0.704   9.238  19.686  0.00  0.00    +0.000 C 
ATOM      7  C   UNL     1       0.117  10.620  20.012  0.00  0.00    +0.000 C 
ATOM      8  C   UNL     1      -0.741  11.096  18.834  0.00  0.00    +0.000 C 
ENDROOT
BRANCH   1   9
ATOM      9  C   UNL     1      -1.069  11.990  21.723  0.00  0.00    +0.000 C 
ATOM     10  O   UNL     1      -2.207  12.347  21.999  0.00  0.00    +0.000 OA
BRANCH   9  12
ATOM     11  C   UNL     1      -0.199  14.057  22.397  0.00  0.00    +0.000 C 
ATOM     12  O   UNL     1       0.037  12.785  21.794  0.00  0.00    +0.000 OA
ENDBRANCH   9  12
ENDBRANCH   1   9
BRANCH   5  13
ATOM     13  N   UNL     1       2.431   7.695  20.513  0.00  0.00    +0.000 N 
ATOM     14  H   UNL     1       3.134   7.572  21.242  0.00  0.00    +0.000 HD
BRANCH  13  15
ATOM     15  C   UNL     1       2.179   6.452  19.877  0.00  0.00    +0.000 A 
ATOM     16  C   UNL     1       2.389   6.224  18.518  0.00  0.00    +0.000 A 
ATOM     17  C   UNL     1       2.146   4.964  17.961  0.00  0.00    +0.000 A 
ATOM     18  C   UNL     1       1.703   3.884  18.737  0.00  0.00    +0.000 A 
ATOM     19  C   UNL     1       1.519   4.094  20.107  0.00  0.00    +0.000 A 
ATOM     20 CL   UNL     1       0.979   2.904  21.240  0.00  0.00    +0.000 Cl
ATOM     21  C   UNL     1       1.774   5.365  20.662  0.00  0.00    +0.000 A 
BRANCH  18  22
ATOM     22  O   UNL     1       1.528   2.770  17.965  0.00  0.00    +0.000 OA
ATOM     23  C   UNL     1       2.637   2.038  17.480  0.00  0.00    +0.000 C 
ENDBRANCH  18  22
ENDBRANCH  13  15
ENDBRANCH   5  13
TORSDOF 5
ENDMDL
MODEL 4
REMARK VINA RESULT:      -6.6      2.992      7.431
REMARK  Name = 
REMARK  8 active torsions:
REMARK  status: ('A' for Active; 'I' for Inactive)
REMARK    1  A    between atoms: C_1  and  O_2
REMARK    2  A    between atoms: O_2  and  C_3
REMARK    3  A    between atoms: C_3  and  C_5
REMARK    4  A    between atoms: C_9  and  N_10
REMARK    5  A    between atoms: N_10  and  C_11
REMARK    6  A    between atoms: C_14  and  O_15
REMARK    7  A    between atoms: O_15  and  C_16
REMARK    8  A    between atoms: C_21  and  C_22
REMARK                            x       y       z     vdW  Elec       q    Type
REMARK                         _______ _______ _______ _____ _____    ______ ____
ROOT
ATOM      1  C   UNL     1       3.649   3.550  18.627  0.00  0.00    +0.000 C 
ATOM      2  C   UNL     1       4.744   4.571  18.844  0.00  0.00    +0.000 C 
ATOM      3  O   UNL     1       5.888   4.254  19.167  0.00  0.00    +0.000 OA
ATOM      4  C   UNL     1       4.463   5.998  18.565  0.00  0.00    +0.000 C 
ATOM      5  C   UNL     1       3.272   6.420  18.114  0.00  0.00    +0.000 C 
ATOM      6  C   UNL     1       2.146   5.441  17.860  0.00  0.00    +0.000 C 
ATOM      7  C   UNL     1       2.247   4.175  18.725  0.00  0.00    +0.000 C 
ATOM      8  C   UNL     1       1.151   3.187  18.306  0.00  0.00    +0.000 C 
ENDROOT
BRANCH   1   9
ATOM      9  C   UNL     1       3.780   2.437  19.640  0.00  0.00    +0.000 C 
ATOM     10  O   UNL     1       4.112   1.289  19.373  0.00  0.00    +0.000 OA
BRANCH   9  12
ATOM     11  C   UNL     1       2.455   2.264  21.563  0.00  0.00    +0.000 C 
ATOM     12  O   UNL     1       3.541   2.907  20.898  0.00  0.00    +0.000 OA
ENDBRANCH   9  12
ENDBRANCH   1   9
BRANCH   5  13
ATOM     13  N   UNL     1       2.998   7.748  17.810  0.00  0.00    +0.000 N 
ATOM     14  H   UNL     1       2.991   7.934  16.807  0.00  0.00    +0.000 HD
BRANCH  13  15
ATOM     15  C   UNL     1       2.014   8.542  18.451  0.00  0.00    +0.000 A 
ATOM     16  C   UNL     1       1.140   9.388  17.771  0.00  0.00    +0.000 A 
ATOM     17  C   UNL     1       0.173  10.122  18.464  0.00  0.00    +0.000 A 
ATOM     18  C   UNL     1       0.030  10.030  19.856  0.00  0.00    +0.000 A 
ATOM     19  C   UNL     1       0.882   9.161  20.545  0.00  0.00    +0.000 A 
ATOM     20 CL   UNL     1       0.875   8.899  22.254  0.00  0.00    +0.000 Cl
ATOM     21  C   UNL     1       1.848   8.418  19.837  0.00  0.00    +0.000 A 
BRANCH  18  22
ATOM     22  O   UNL     1      -0.970  10.849  20.297  0.00  0.00    +0.000 OA
ATOM     23  C   UNL     1      -1.633  11.732  19.412  0.00  0.00    +0.000 C 
ENDBRANCH  18  22
ENDBRANCH  13  15
ENDBRANCH   5  13
TORSDOF 5
ENDMDL
MODEL 5
REMARK VINA RESULT:      -6.5      1.141      1.452
REMARK  Name = 
REMARK  8 active torsions:
REMARK  status: ('A' for Active; 'I' for Inactive)
REMARK    1  A    between atoms: C_1  and  O_2
REMARK    2  A    between atoms: O_2  and  C_3
REMARK    3  A    between atoms: C_3  and  C_5
REMARK    4  A    between atoms: C_9  and  N_10
REMARK    5  A    between atoms: N_10  and  C_11
REMARK    6  A    between atoms: C_14  and  O_15
REMARK    7  A    between atoms: O_15  and  C_16
REMARK    8  A    between atoms: C_21  and  C_22
REMARK                            x       y       z     vdW  Elec       q    Type
REMARK                         _______ _______ _______ _____ _____    ______ ____
ROOT
ATOM      1  C   UNL     1       1.345   9.676  19.672  0.00  0.00    +0.000 C 
ATOM      2  C   UNL     1       1.816   9.319  18.280  0.00  0.00    +0.000 C 
ATOM      3  O   UNL     1       1.835  10.135  17.360  0.00  0.00    +0.000 OA
ATOM      4  C   UNL     1       2.367   7.967  18.030  0.00  0.00    +0.000 C 
ATOM      5  C   UNL     1       2.475   7.047  19.000  0.00  0.00    +0.000 C 
ATOM      6  C   UNL     1       2.038   7.354  20.416  0.00  0.00    +0.000 C 
ATOM      7  C   UNL     1       0.946   8.432  20.485  0.00  0.00    +0.000 C 
ATOM      8  C   UNL     1       0.664   8.776  21.952  0.00  0.00    +0.000 C 
ENDROOT
BRANCH   1   9
ATOM      9  C   UNL     1       0.172  10.625  19.588  0.00  0.00    +0.000 C 
ATOM     10  O   UNL     1      -0.959  10.304  19.245  0.00  0.00    +0.000 OA
BRANCH   9  12
ATOM     11  C   UNL     1       0.004  12.931  19.217  0.00  0.00    +0.000 C 
ATOM     12  O   UNL     1       0.536  11.870  20.009  0.00  0.00    +0.000 OA
ENDBRANCH   9  12
ENDBRANCH   1   9
BRANCH   5  13
ATOM     13  N   UNL     1       3.023   5.786  18.798  0.00  0.00    +0.000 N 
ATOM     14  H   UNL     1       2.317   5.057  18.689  0.00  0.00    +0.000 HD
BRANCH  13  15
ATOM     15  C   UNL     1       4.132   5.507  17.959  0.00  0.00    +0.000 A 
ATOM     16  C   UNL     1       4.145   4.485  17.011  0.00  0.00    +0.000 A 
ATOM     17  C   UNL     1       5.264   4.283  16.196  0.00  0.00    +0.000 A 
ATOM     18  C   UNL     1       6.402   5.097  16.285  0.00  0.00    +0.000 A 
ATOM     19  C   UNL     1       6.386   6.144  17.212  0.00  0.00    +0.000 A 
ATOM     20 CL   UNL     1       7.679   7.261  17.482  0.00  0.00    +0.000 Cl
ATOM     21  C   UNL     1       5.252   6.346  18.023  0.00  0.00    +0.000 A 
BRANCH  18  22
ATOM     22  O   UNL     1       7.359   4.693  15.398  0.00  0.00    +0.000 OA
ATOM     23  C   UNL     1       7.146   4.786  14.003  0.00  0.00    +0.000 C 
ENDBRANCH  18  22
ENDBRANCH  13  15
ENDBRANCH   5  13
TORSDOF 5
ENDMDL
MODEL 6
REMARK VINA RESULT:      -6.5      2.520      7.630
REMARK  Name = 
REMARK  8 active torsions:
REMARK  status: ('A' for Active; 'I' for Inactive)
REMARK    1  A    between atoms: C_1  and  O_2
REMARK    2  A    between atoms: O_2  and  C_3
REMARK    3  A    between atoms: C_3  and  C_5
REMARK    4  A    between atoms: C_9  and  N_10
REMARK    5  A    between atoms: N_10  and  C_11
REMARK    6  A    between atoms: C_14  and  O_15
REMARK    7  A    between atoms: O_15  and  C_16
REMARK    8  A    between atoms: C_21  and  C_22
REMARK                            x       y       z     vdW  Elec       q    Type
REMARK                         _______ _______ _______ _____ _____    ______ ____
ROOT
ATOM      1  C   UNL     1       4.768   4.734  16.576  0.00  0.00    +0.000 C 
ATOM      2  C   UNL     1       4.916   6.227  16.767  0.00  0.00    +0.000 C 
ATOM      3  O   UNL     1       5.568   6.929  15.996  0.00  0.00    +0.000 OA
ATOM      4  C   UNL     1       4.172   6.890  17.862  0.00  0.00    +0.000 C 
ATOM      5  C   UNL     1       3.359   6.215  18.689  0.00  0.00    +0.000 C 
ATOM      6  C   UNL     1       3.158   4.723  18.534  0.00  0.00    +0.000 C 
ATOM      7  C   UNL     1       4.356   4.022  17.877  0.00  0.00    +0.000 C 
ATOM      8  C   UNL     1       4.011   2.548  17.636  0.00  0.00    +0.000 C 
ENDROOT
BRANCH   1   9
ATOM      9  C   UNL     1       6.066   4.151  16.069  0.00  0.00    +0.000 C 
ATOM     10  O   UNL     1       7.121   4.157  16.691  0.00  0.00    +0.000 OA
BRANCH   9  12
ATOM     11  C   UNL     1       6.547   4.225  13.778  0.00  0.00    +0.000 C 
ATOM     12  O   UNL     1       5.881   3.562  14.853  0.00  0.00    +0.000 OA
ENDBRANCH   9  12
ENDBRANCH   1   9
BRANCH   5  13
ATOM     13  N   UNL     1       2.624   6.822  19.699  0.00  0.00    +0.000 N 
ATOM     14  H   UNL     1       3.103   6.817  20.600  0.00  0.00    +0.000 HD
BRANCH  13  15
ATOM     15  C   UNL     1       1.886   8.024  19.557  0.00  0.00    +0.000 A 
ATOM     16  C   UNL     1       1.681   8.666  18.337  0.00  0.00    +0.000 A 
ATOM     17  C   UNL     1       0.918   9.835  18.265  0.00  0.00    +0.000 A 
ATOM     18  C   UNL     1       0.319  10.400  19.399  0.00  0.00    +0.000 A 
ATOM     19  C   UNL     1       0.492   9.748  20.624  0.00  0.00    +0.000 A 
ATOM     20 CL   UNL     1      -0.156  10.272  22.139  0.00  0.00    +0.000 Cl
ATOM     21  C   UNL     1       1.256   8.565  20.686  0.00  0.00    +0.000 A 
BRANCH  18  22
ATOM     22  O   UNL     1      -0.359  11.540  19.074  0.00  0.00    +0.000 OA
ATOM     23  C   UNL     1       0.093  12.808  19.512  0.00  0.00    +0.000 C 
ENDBRANCH  18  22
ENDBRANCH  13  15
ENDBRANCH   5  13
TORSDOF 5
ENDMDL
MODEL 7
REMARK VINA RESULT:      -6.5      3.176      7.684
REMARK  Name = 
REMARK  8 active torsions:
REMARK  status: ('A' for Active; 'I' for Inactive)
REMARK    1  A    between atoms: C_1  and  O_2
REMARK    2  A    between atoms: O_2  and  C_3
REMARK    3  A    between atoms: C_3  and  C_5
REMARK    4  A    between atoms: C_9  and  N_10
REMARK    5  A    between atoms: N_10  and  C_11
REMARK    6  A    between atoms: C_14  and  O_15
REMARK    7  A    between atoms: O_15  and  C_16
REMARK    8  A    between atoms: C_21  and  C_22
REMARK                            x       y       z     vdW  Elec       q    Type
REMARK                         _______ _______ _______ _____ _____    ______ ____
ROOT
ATOM      1  C   UNL     1       3.602   3.410  18.424  0.00  0.00    +0.000 C 
ATOM      2  C   UNL     1       4.692   4.427  18.681  0.00  0.00    +0.000 C 
ATOM      3  O   UNL     1       5.863   4.105  18.876  0.00  0.00    +0.000 OA
ATOM      4  C   UNL     1       4.365   5.869  18.602  0.00  0.00    +0.000 C 
ATOM      5  C   UNL     1       3.135   6.310  18.297  0.00  0.00    +0.000 C 
ATOM      6  C   UNL     1       2.010   5.339  18.012  0.00  0.00    +0.000 C 
ATOM      7  C   UNL     1       2.201   3.981  18.704  0.00  0.00    +0.000 C 
ATOM      8  C   UNL     1       1.094   3.021  18.251  0.00  0.00    +0.000 C 
ENDROOT
BRANCH   1   9
ATOM      9  C   UNL     1       3.832   2.186  19.280  0.00  0.00    +0.000 C 
ATOM     10  O   UNL     1       3.901   1.041  18.851  0.00  0.00    +0.000 OA
BRANCH   9  12
ATOM     11  C   UNL     1       2.863   2.362  21.405  0.00  0.00    +0.000 C 
ATOM     12  O   UNL     1       4.016   2.544  20.583  0.00  0.00    +0.000 OA
ENDBRANCH   9  12
ENDBRANCH   1   9
BRANCH   5  13
ATOM     13  N   UNL     1       2.815   7.657  18.181  0.00  0.00    +0.000 N 
ATOM     14  H   UNL     1       2.687   7.954  17.213  0.00  0.00    +0.000 HD
BRANCH  13  15
ATOM     15  C   UNL     1       1.905   8.351  19.018  0.00  0.00    +0.000 A 
ATOM     16  C   UNL     1       1.722   8.060  20.369  0.00  0.00    +0.000 A 
ATOM     17  C   UNL     1       0.828   8.804  21.145  0.00  0.00    +0.000 A 
ATOM     18  C   UNL     1       0.096   9.874  20.610  0.00  0.00    +0.000 A 
ATOM     19  C   UNL     1       0.295  10.194  19.263  0.00  0.00    +0.000 A 
ATOM     20 CL   UNL     1      -0.503  11.468  18.408  0.00  0.00    +0.000 Cl
ATOM     21  C   UNL     1       1.204   9.444  18.491  0.00  0.00    +0.000 A 
BRANCH  18  22
ATOM     22  O   UNL     1      -0.714  10.431  21.558  0.00  0.00    +0.000 OA
ATOM     23  C   UNL     1      -0.471  11.736  22.048  0.00  0.00    +0.000 C 
ENDBRANCH  18  22
ENDBRANCH  13  15
ENDBRANCH   5  13
TORSDOF 5
ENDMDL
MODEL 8
REMARK VINA RESULT:      -6.5      2.527      7.685
REMARK  Name = 
REMARK  8 active torsions:
REMARK  status: ('A' for Active; 'I' for Inactive)
REMARK    1  A    between atoms: C_1  and  O_2
REMARK    2  A    between atoms: O_2  and  C_3
REMARK    3  A    between atoms: C_3  and  C_5
REMARK    4  A    between atoms: C_9  and  N_10
REMARK    5  A    between atoms: N_10  and  C_11
REMARK    6  A    between atoms: C_14  and  O_15
REMARK    7  A    between atoms: O_15  and  C_16
REMARK    8  A    between atoms: C_21  and  C_22
REMARK                            x       y       z     vdW  Elec       q    Type
REMARK                         _______ _______ _______ _____ _____    ______ ____
ROOT
ATOM      1  C   UNL     1       5.861   5.457  16.280  0.00  0.00    +0.000 C 
ATOM      2  C   UNL     1       5.883   6.773  17.026  0.00  0.00    +0.000 C 
ATOM      3  O   UNL     1       6.730   7.639  16.811  0.00  0.00    +0.000 OA
ATOM      4  C   UNL     1       4.794   7.078  17.981  0.00  0.00    +0.000 C 
ATOM      5  C   UNL     1       3.776   6.232  18.202  0.00  0.00    +0.000 C 
ATOM      6  C   UNL     1       3.691   4.910  17.470  0.00  0.00    +0.000 C 
ATOM      7  C   UNL     1       5.064   4.378  17.034  0.00  0.00    +0.000 C 
ATOM      8  C   UNL     1       4.872   3.114  16.187  0.00  0.00    +0.000 C 
ENDROOT
BRANCH   1   9
ATOM      9  C   UNL     1       7.274   4.975  16.049  0.00  0.00    +0.000 C 
ATOM     10  O   UNL     1       7.938   4.351  16.867  0.00  0.00    +0.000 OA
BRANCH   9  12
ATOM     11  C   UNL     1       6.918   4.633  13.760  0.00  0.00    +0.000 C 
ATOM     12  O   UNL     1       7.679   5.276  14.782  0.00  0.00    +0.000 OA
ENDBRANCH   9  12
ENDBRANCH   1   9
BRANCH   5  13
ATOM     13  N   UNL     1       2.724   6.514  19.065  0.00  0.00    +0.000 N 
ATOM     14  H   UNL     1       2.852   6.113  19.994  0.00  0.00    +0.000 HD
BRANCH  13  15
ATOM     15  C   UNL     1       2.074   7.770  19.172  0.00  0.00    +0.000 A 
ATOM     16  C   UNL     1       1.821   8.603  18.084  0.00  0.00    +0.000 A 
ATOM     17  C   UNL     1       1.149   9.818  18.257  0.00  0.00    +0.000 A 
ATOM     18  C   UNL     1       0.692  10.239  19.513  0.00  0.00    +0.000 A 
ATOM     19  C   UNL     1       0.914   9.395  20.607  0.00  0.00    +0.000 A 
ATOM     20 CL   UNL     1       0.435   9.722  22.236  0.00  0.00    +0.000 Cl
ATOM     21  C   UNL     1       1.584   8.170  20.422  0.00  0.00    +0.000 A 
BRANCH  18  22
ATOM     22  O   UNL     1       0.081  11.457  19.425  0.00  0.00    +0.000 OA
ATOM     23  C   UNL     1       0.839  12.645  19.292  0.00  0.00    +0.000 C 
ENDBRANCH  18  22
ENDBRANCH  13  15
ENDBRANCH   5  13
TORSDOF 5
ENDMDL
MODEL 9
REMARK VINA RESULT:      -6.5      1.508      1.910
REMARK  Name = 
REMARK  8 active torsions:
REMARK  status: ('A' for Active; 'I' for Inactive)
REMARK    1  A    between atoms: C_1  and  O_2
REMARK    2  A    between atoms: O_2  and  C_3
REMARK    3  A    between atoms: C_3  and  C_5
REMARK    4  A    between atoms: C_9  and  N_10
REMARK    5  A    between atoms: N_10  and  C_11
REMARK    6  A    between atoms: C_14  and  O_15
REMARK    7  A    between atoms: O_15  and  C_16
REMARK    8  A    between atoms: C_21  and  C_22
REMARK                            x       y       z     vdW  Elec       q    Type
REMARK                         _______ _______ _______ _____ _____    ______ ____
ROOT
ATOM      1  C   UNL     1       0.649  10.084  19.785  0.00  0.00    +0.000 C 
ATOM      2  C   UNL     1       1.370   9.478  18.602  0.00  0.00    +0.000 C 
ATOM      3  O   UNL     1       1.467  10.058  17.521  0.00  0.00    +0.000 OA
ATOM      4  C   UNL     1       2.069   8.184  18.770  0.00  0.00    +0.000 C 
ATOM      5  C   UNL     1       2.098   7.531  19.942  0.00  0.00    +0.000 C 
ATOM      6  C   UNL     1       1.411   8.099  21.165  0.00  0.00    +0.000 C 
ATOM      7  C   UNL     1       0.232   9.020  20.816  0.00  0.00    +0.000 C 
ATOM      8  C   UNL     1      -0.313   9.654  22.101  0.00  0.00    +0.000 C 
ENDROOT
BRANCH   1   9
ATOM      9  C   UNL     1      -0.573  10.836  19.311  0.00  0.00    +0.000 C 
ATOM     10  O   UNL     1      -1.573  10.311  18.838  0.00  0.00    +0.000 OA
BRANCH   9  12
ATOM     11  C   UNL     1      -0.539  12.982  18.374  0.00  0.00    +0.000 C 
ATOM     12  O   UNL     1      -0.430  12.172  19.544  0.00  0.00    +0.000 OA
ENDBRANCH   9  12
ENDBRANCH   1   9
BRANCH   5  13
ATOM     13  N   UNL     1       2.779   6.335  20.132  0.00  0.00    +0.000 N 
ATOM     14  H   UNL     1       2.298   5.699  20.769  0.00  0.00    +0.000 HD
BRANCH  13  15
ATOM     15  C   UNL     1       3.419   5.592  19.108  0.00  0.00    +0.000 A 
ATOM     16  C   UNL     1       4.600   5.993  18.486  0.00  0.00    +0.000 A 
ATOM     17  C   UNL     1       5.193   5.197  17.501  0.00  0.00    +0.000 A 
ATOM     18  C   UNL     1       4.643   3.968  17.110  0.00  0.00    +0.000 A 
ATOM     19  C   UNL     1       3.474   3.542  17.750  0.00  0.00    +0.000 A 
ATOM     20 CL   UNL     1       2.633   2.067  17.422  0.00  0.00    +0.000 Cl
ATOM     21  C   UNL     1       2.887   4.347  18.747  0.00  0.00    +0.000 A 
BRANCH  18  22
ATOM     22  O   UNL     1       5.395   3.388  16.129  0.00  0.00    +0.000 OA
ATOM     23  C   UNL     1       6.337   4.143  15.391  0.00  0.00    +0.000 C 
ENDBRANCH  18  22
ENDBRANCH  13  15
ENDBRANCH   5  13
TORSDOF 5
ENDMDL
