MODEL 1
REMARK VINA RESULT:      -6.9      0.000      0.000
REMARK  Name = 
REMARK  11 active torsions:
REMARK  status: ('A' for Active; 'I' for Inactive)
REMARK    1  A    between atoms: C_1  and  O_2
REMARK    2  A    between atoms: O_2  and  C_3
REMARK    3  A    between atoms: C_7  and  C_8
REMARK    4  A    between atoms: C_8  and  N_9
REMARK    5  A    between atoms: N_9  and  C_10
REMARK    6  A    between atoms: C_10  and  C_11
REMARK    7  A    between atoms: C_10  and  C_12
REMARK    8  A    between atoms: C_13  and  O_14
REMARK    9  A    between atoms: O_14  and  C_15
REMARK   10  A    between atoms: C_15  and  C_16
REMARK   11  A    between atoms: C_19  and  C_20
REMARK                            x       y       z     vdW  Elec       q    Type
REMARK                         _______ _______ _______ _____ _____    ______ ____
ROOT
ATOM      1  C   UNL     1       5.939   6.421  16.825  0.00  0.00    +0.000 A 
ATOM      2  C   UNL     1       6.658   5.522  16.030  0.00  0.00    +0.000 A 
ATOM      3  C   UNL     1       6.250   4.207  15.863  0.00  0.00    +0.000 A 
ATOM      4  C   UNL     1       5.101   3.751  16.493  0.00  0.00    +0.000 A 
ATOM      5  C   UNL     1       4.331   4.611  17.293  0.00  0.00    +0.000 A 
ATOM      6  C   UNL     1       4.731   5.970  17.479  0.00  0.00    +0.000 A 
ENDROOT
BRANCH   1   8
ATOM      7  C   UNL     1       7.619   8.080  17.582  0.00  0.00    +0.000 C 
ATOM      8  O   UNL     1       6.499   7.666  16.886  0.00  0.00    +0.000 OA
ENDBRANCH   1   8
BRANCH   5   9
ATOM      9  C   UNL     1       3.069   4.063  17.924  0.00  0.00    +0.000 C 
BRANCH   9  10
ATOM     10  N   UNL     1       3.099   4.278  19.384  0.00  0.00    +0.000 NA
ATOM     11  H   UNL     1       3.302   5.295  19.544  0.00  0.00    +0.000 HD
BRANCH  10  12
ATOM     12  C   UNL     1       1.813   3.966  20.048  0.00  0.00    +0.000 C 
ATOM     13  C   UNL     1       0.952   2.986  19.234  0.00  0.00    +0.000 C 
ATOM     14  C   UNL     1       2.110   3.335  21.419  0.00  0.00    +0.000 C 
ENDBRANCH  10  12
ENDBRANCH   9  10
ENDBRANCH   5   9
BRANCH   6  15
ATOM     15  O   UNL     1       3.887   6.750  18.223  0.00  0.00    +0.000 OA
BRANCH  15  16
ATOM     16  C   UNL     1       3.019   7.711  17.740  0.00  0.00    +0.000 C 
BRANCH  16  17
ATOM     17  C   UNL     1       2.136   8.332  18.769  0.00  0.00    +0.000 A 
ATOM     18  C   UNL     1       1.353   9.469  18.537  0.00  0.00    +0.000 A 
ATOM     19  C   UNL     1       0.521   9.958  19.553  0.00  0.00    +0.000 A 
ATOM     20  C   UNL     1       0.473   9.321  20.800  0.00  0.00    +0.000 A 
ATOM     21  C   UNL     1      -0.400   9.826  21.907  0.00  0.00    +0.000 C 
ATOM     22  C   UNL     1       1.243   8.175  21.026  0.00  0.00    +0.000 A 
ATOM     23  C   UNL     1       2.069   7.685  20.012  0.00  0.00    +0.000 A 
ENDBRANCH  16  17
ENDBRANCH  15  16
ENDBRANCH   6  15
TORSDOF 7
ENDMDL
MODEL 2
REMARK VINA RESULT:      -6.8      0.656      1.440
REMARK  Name = 
REMARK  11 active torsions:
REMARK  status: ('A' for Active; 'I' for Inactive)
REMARK    1  A    between atoms: C_1  and  O_2
REMARK    2  A    between atoms: O_2  and  C_3
REMARK    3  A    between atoms: C_7  and  C_8
REMARK    4  A    between atoms: C_8  and  N_9
REMARK    5  A    between atoms: N_9  and  C_10
REMARK    6  A    between atoms: C_10  and  C_11
REMARK    7  A    between atoms: C_10  and  C_12
REMARK    8  A    between atoms: C_13  and  O_14
REMARK    9  A    between atoms: O_14  and  C_15
REMARK   10  A    between atoms: C_15  and  C_16
REMARK   11  A    between atoms: C_19  and  C_20
REMARK                            x       y       z     vdW  Elec       q    Type
REMARK                         _______ _______ _______ _____ _____    ______ ____
ROOT
ATOM      1  C   UNL     1       5.609   6.231  16.827  0.00  0.00    +0.000 A 
ATOM      2  C   UNL     1       6.121   5.152  16.098  0.00  0.00    +0.000 A 
ATOM      3  C   UNL     1       5.446   3.942  16.014  0.00  0.00    +0.000 A 
ATOM      4  C   UNL     1       4.231   3.779  16.662  0.00  0.00    +0.000 A 
ATOM      5  C   UNL     1       3.661   4.831  17.398  0.00  0.00    +0.000 A 
ATOM      6  C   UNL     1       4.338   6.086  17.498  0.00  0.00    +0.000 A 
ENDROOT
BRANCH   1   8
ATOM      7  C   UNL     1       7.572   7.572  17.530  0.00  0.00    +0.000 C 
ATOM      8  O   UNL     1       6.417   7.334  16.810  0.00  0.00    +0.000 OA
ENDBRANCH   1   8
BRANCH   5   9
ATOM      9  C   UNL     1       2.316   4.601  18.053  0.00  0.00    +0.000 C 
BRANCH   9  10
ATOM     10  N   UNL     1       2.473   4.529  19.519  0.00  0.00    +0.000 NA
ATOM     11  H   UNL     1       1.704   5.103  19.943  0.00  0.00    +0.000 HD
BRANCH  10  12
ATOM     12  C   UNL     1       2.354   3.153  20.054  0.00  0.00    +0.000 C 
ATOM     13  C   UNL     1       2.168   3.130  21.580  0.00  0.00    +0.000 C 
ATOM     14  C   UNL     1       1.137   2.477  19.402  0.00  0.00    +0.000 C 
ENDBRANCH  10  12
ENDBRANCH   9  10
ENDBRANCH   5   9
BRANCH   6  15
ATOM     15  O   UNL     1       3.678   7.072  18.183  0.00  0.00    +0.000 OA
BRANCH  15  16
ATOM     16  C   UNL     1       2.786   7.984  17.651  0.00  0.00    +0.000 C 
BRANCH  16  17
ATOM     17  C   UNL     1       1.880   8.627  18.645  0.00  0.00    +0.000 A 
ATOM     18  C   UNL     1       1.732   8.182  19.964  0.00  0.00    +0.000 A 
ATOM     19  C   UNL     1       0.887   8.876  20.840  0.00  0.00    +0.000 A 
ATOM     20  C   UNL     1       0.186  10.009  20.404  0.00  0.00    +0.000 A 
ATOM     21  C   UNL     1      -0.729  10.765  21.316  0.00  0.00    +0.000 C 
ATOM     22  C   UNL     1       0.348  10.463  19.091  0.00  0.00    +0.000 A 
ATOM     23  C   UNL     1       1.193   9.773  18.219  0.00  0.00    +0.000 A 
ENDBRANCH  16  17
ENDBRANCH  15  16
ENDBRANCH   6  15
TORSDOF 7
ENDMDL
MODEL 3
REMARK VINA RESULT:      -6.8      0.826      1.320
REMARK  Name = 
REMARK  11 active torsions:
REMARK  status: ('A' for Active; 'I' for Inactive)
REMARK    1  A    between atoms: C_1  and  O_2
REMARK    2  A    between atoms: O_2  and  C_3
REMARK    3  A    between atoms: C_7  and  C_8
REMARK    4  A    between atoms: C_8  and  N_9
REMARK    5  A    between atoms: N_9  and  C_10
REMARK    6  A    between atoms: C_10  and  C_11
REMARK    7  A    between atoms: C_10  and  C_12
REMARK    8  A    between atoms: C_13  and  O_14
REMARK    9  A    between atoms: O_14  and  C_15
REMARK   10  A    between atoms: C_15  and  C_16
REMARK   11  A    between atoms: C_19  and  C_20
REMARK                            x       y       z     vdW  Elec       q    Type
REMARK                         _______ _______ _______ _____ _____    ______ ____
ROOT
ATOM      1  C   UNL     1       6.070   6.089  16.569  0.00  0.00    +0.000 A 
ATOM      2  C   UNL     1       6.679   5.139  15.741  0.00  0.00    +0.000 A 
ATOM      3  C   UNL     1       6.126   3.883  15.542  0.00  0.00    +0.000 A 
ATOM      4  C   UNL     1       4.939   3.539  16.171  0.00  0.00    +0.000 A 
ATOM      5  C   UNL     1       4.275   4.455  17.004  0.00  0.00    +0.000 A 
ATOM      6  C   UNL     1       4.825   5.756  17.223  0.00  0.00    +0.000 A 
ENDROOT
BRANCH   1   8
ATOM      7  C   UNL     1       7.505   7.754  17.716  0.00  0.00    +0.000 C 
ATOM      8  O   UNL     1       6.765   7.263  16.657  0.00  0.00    +0.000 OA
ENDBRANCH   1   8
BRANCH   5   9
ATOM      9  C   UNL     1       2.965   4.032  17.633  0.00  0.00    +0.000 C 
BRANCH   9  10
ATOM     10  N   UNL     1       3.014   4.243  19.093  0.00  0.00    +0.000 NA
ATOM     11  H   UNL     1       2.204   4.861  19.345  0.00  0.00    +0.000 HD
BRANCH  10  12
ATOM     12  C   UNL     1       2.883   2.990  19.871  0.00  0.00    +0.000 C 
ATOM     13  C   UNL     1       1.817   2.046  19.290  0.00  0.00    +0.000 C 
ATOM     14  C   UNL     1       4.238   2.264  19.863  0.00  0.00    +0.000 C 
ENDBRANCH  10  12
ENDBRANCH   9  10
ENDBRANCH   5   9
BRANCH   6  15
ATOM     15  O   UNL     1       4.077   6.602  17.998  0.00  0.00    +0.000 OA
BRANCH  15  16
ATOM     16  C   UNL     1       3.272   7.631  17.547  0.00  0.00    +0.000 C 
BRANCH  16  17
ATOM     17  C   UNL     1       2.328   8.180  18.563  0.00  0.00    +0.000 A 
ATOM     18  C   UNL     1       2.164   7.639  19.844  0.00  0.00    +0.000 A 
ATOM     19  C   UNL     1       1.283   8.248  20.746  0.00  0.00    +0.000 A 
ATOM     20  C   UNL     1       0.562   9.391  20.375  0.00  0.00    +0.000 A 
ATOM     21  C   UNL     1      -0.392  10.058  21.316  0.00  0.00    +0.000 C 
ATOM     22  C   UNL     1       0.739   9.940  19.101  0.00  0.00    +0.000 A 
ATOM     23  C   UNL     1       1.621   9.336  18.202  0.00  0.00    +0.000 A 
ENDBRANCH  16  17
ENDBRANCH  15  16
ENDBRANCH   6  15
TORSDOF 7
ENDMDL
MODEL 4
REMARK VINA RESULT:      -6.7      1.720      4.476
REMARK  Name = 
REMARK  11 active torsions:
REMARK  status: ('A' for Active; 'I' for Inactive)
REMARK    1  A    between atoms: C_1  and  O_2
REMARK    2  A    between atoms: O_2  and  C_3
REMARK    3  A    between atoms: C_7  and  C_8
REMARK    4  A    between atoms: C_8  and  N_9
REMARK    5  A    between atoms: N_9  and  C_10
REMARK    6  A    between atoms: C_10  and  C_11
REMARK    7  A    between atoms: C_10  and  C_12
REMARK    8  A    between atoms: C_13  and  O_14
REMARK    9  A    between atoms: O_14  and  C_15
REMARK   10  A    between atoms: C_15  and  C_16
REMARK   11  A    between atoms: C_19  and  C_20
REMARK                            x       y       z     vdW  Elec       q    Type
REMARK                         _______ _______ _______ _____ _____    ______ ____
ROOT
ATOM      1  C   UNL     1       2.168   3.373  19.061  0.00  0.00    +0.000 A 
ATOM      2  C   UNL     1       2.639   2.072  18.857  0.00  0.00    +0.000 A 
ATOM      3  C   UNL     1       3.672   1.800  17.972  0.00  0.00    +0.000 A 
ATOM      4  C   UNL     1       4.267   2.832  17.262  0.00  0.00    +0.000 A 
ATOM      5  C   UNL     1       3.846   4.161  17.436  0.00  0.00    +0.000 A 
ATOM      6  C   UNL     1       2.784   4.465  18.342  0.00  0.00    +0.000 A 
ENDROOT
BRANCH   1   8
ATOM      7  C   UNL     1       1.088   2.995  21.261  0.00  0.00    +0.000 C 
ATOM      8  O   UNL     1       1.136   3.446  19.956  0.00  0.00    +0.000 OA
ENDBRANCH   1   8
BRANCH   5   9
ATOM      9  C   UNL     1       4.559   5.246  16.658  0.00  0.00    +0.000 C 
BRANCH   9  10
ATOM     10  N   UNL     1       5.432   6.024  17.559  0.00  0.00    +0.000 NA
ATOM     11  H   UNL     1       5.386   5.571  18.504  0.00  0.00    +0.000 HD
BRANCH  10  12
ATOM     12  C   UNL     1       6.850   6.036  17.134  0.00  0.00    +0.000 C 
ATOM     13  C   UNL     1       7.587   7.311  17.581  0.00  0.00    +0.000 C 
ATOM     14  C   UNL     1       7.558   4.820  17.753  0.00  0.00    +0.000 C 
ENDBRANCH  10  12
ENDBRANCH   9  10
ENDBRANCH   5   9
BRANCH   6  15
ATOM     15  O   UNL     1       2.483   5.792  18.493  0.00  0.00    +0.000 OA
BRANCH  15  16
ATOM     16  C   UNL     1       2.534   6.516  19.670  0.00  0.00    +0.000 C 
BRANCH  16  17
ATOM     17  C   UNL     1       1.907   7.867  19.602  0.00  0.00    +0.000 A 
ATOM     18  C   UNL     1       1.306   8.501  20.696  0.00  0.00    +0.000 A 
ATOM     19  C   UNL     1       0.778   9.790  20.548  0.00  0.00    +0.000 A 
ATOM     20  C   UNL     1       0.844  10.447  19.311  0.00  0.00    +0.000 A 
ATOM     21  C   UNL     1       0.281  11.821  19.122  0.00  0.00    +0.000 C 
ATOM     22  C   UNL     1       1.459   9.820  18.223  0.00  0.00    +0.000 A 
ATOM     23  C   UNL     1       1.989   8.537  18.372  0.00  0.00    +0.000 A 
ENDBRANCH  16  17
ENDBRANCH  15  16
ENDBRANCH   6  15
TORSDOF 7
ENDMDL
MODEL 5
REMARK VINA RESULT:      -6.7      1.895      5.995
REMARK  Name = 
REMARK  11 active torsions:
REMARK  status: ('A' for Active; 'I' for Inactive)
REMARK    1  A    between atoms: C_1  and  O_2
REMARK    2  A    between atoms: O_2  and  C_3
REMARK    3  A    between atoms: C_7  and  C_8
REMARK    4  A    between atoms: C_8  and  N_9
REMARK    5  A    between atoms: N_9  and  C_10
REMARK    6  A    between atoms: C_10  and  C_11
REMARK    7  A    between atoms: C_10  and  C_12
REMARK    8  A    between atoms: C_13  and  O_14
REMARK    9  A    between atoms: O_14  and  C_15
REMARK   10  A    between atoms: C_15  and  C_16
REMARK   11  A    between atoms: C_19  and  C_20
REMARK                            x       y       z     vdW  Elec       q    Type
REMARK                         _______ _______ _______ _____ _____    ______ ____
ROOT
ATOM      1  C   UNL     1       2.435   2.931  18.908  0.00  0.00    +0.000 A 
ATOM      2  C   UNL     1       1.712   2.570  20.051  0.00  0.00    +0.000 A 
ATOM      3  C   UNL     1       1.240   3.519  20.946  0.00  0.00    +0.000 A 
ATOM      4  C   UNL     1       1.481   4.866  20.720  0.00  0.00    +0.000 A 
ATOM      5  C   UNL     1       2.189   5.289  19.583  0.00  0.00    +0.000 A 
ATOM      6  C   UNL     1       2.685   4.330  18.647  0.00  0.00    +0.000 A 
ENDROOT
BRANCH   1   8
ATOM      7  C   UNL     1       3.902   1.011  18.351  0.00  0.00    +0.000 C 
ATOM      8  O   UNL     1       2.832   1.862  18.153  0.00  0.00    +0.000 OA
ENDBRANCH   1   8
BRANCH   5   9
ATOM      9  C   UNL     1       2.388   6.775  19.376  0.00  0.00    +0.000 C 
BRANCH   9  10
ATOM     10  N   UNL     1       2.048   7.508  20.611  0.00  0.00    +0.000 NA
ATOM     11  H   UNL     1       2.936   7.622  21.159  0.00  0.00    +0.000 HD
BRANCH  10  12
ATOM     12  C   UNL     1       1.500   8.860  20.358  0.00  0.00    +0.000 C 
ATOM     13  C   UNL     1       1.375   9.173  18.857  0.00  0.00    +0.000 C 
ATOM     14  C   UNL     1       0.103   8.950  20.995  0.00  0.00    +0.000 C 
ENDBRANCH  10  12
ENDBRANCH   9  10
ENDBRANCH   5   9
BRANCH   6  15
ATOM     15  O   UNL     1       3.308   4.838  17.539  0.00  0.00    +0.000 OA
BRANCH  15  16
ATOM     16  C   UNL     1       4.580   4.526  17.098  0.00  0.00    +0.000 C 
BRANCH  16  17
ATOM     17  C   UNL     1       5.637   5.499  17.496  0.00  0.00    +0.000 A 
ATOM     18  C   UNL     1       6.654   5.210  18.414  0.00  0.00    +0.000 A 
ATOM     19  C   UNL     1       7.630   6.176  18.695  0.00  0.00    +0.000 A 
ATOM     20  C   UNL     1       7.592   7.428  18.068  0.00  0.00    +0.000 A 
ATOM     21  C   UNL     1       8.616   8.481  18.356  0.00  0.00    +0.000 C 
ATOM     22  C   UNL     1       6.586   7.710  17.138  0.00  0.00    +0.000 A 
ATOM     23  C   UNL     1       5.616   6.746  16.855  0.00  0.00    +0.000 A 
ENDBRANCH  16  17
ENDBRANCH  15  16
ENDBRANCH   6  15
TORSDOF 7
ENDMDL
MODEL 6
REMARK VINA RESULT:      -6.6      1.897      6.563
REMARK  Name = 
REMARK  11 active torsions:
REMARK  status: ('A' for Active; 'I' for Inactive)
REMARK    1  A    between atoms: C_1  and  O_2
REMARK    2  A    between atoms: O_2  and  C_3
REMARK    3  A    between atoms: C_7  and  C_8
REMARK    4  A    between atoms: C_8  and  N_9
REMARK    5  A    between atoms: N_9  and  C_10
REMARK    6  A    between atoms: C_10  and  C_11
REMARK    7  A    between atoms: C_10  and  C_12
REMARK    8  A    between atoms: C_13  and  O_14
REMARK    9  A    between atoms: O_14  and  C_15
REMARK   10  A    between atoms: C_15  and  C_16
REMARK   11  A    between atoms: C_19  and  C_20
REMARK                            x       y       z     vdW  Elec       q    Type
REMARK                         _______ _______ _______ _____ _____    ______ ____
ROOT
ATOM      1  C   UNL     1       3.079   3.105  19.643  0.00  0.00    +0.000 A 
ATOM      2  C   UNL     1       1.874   2.490  19.999  0.00  0.00    +0.000 A 
ATOM      3  C   UNL     1       0.796   3.220  20.479  0.00  0.00    +0.000 A 
ATOM      4  C   UNL     1       0.897   4.596  20.618  0.00  0.00    +0.000 A 
ATOM      5  C   UNL     1       2.078   5.270  20.265  0.00  0.00    +0.000 A 
ATOM      6  C   UNL     1       3.201   4.539  19.767  0.00  0.00    +0.000 A 
ENDROOT
BRANCH   1   8
ATOM      7  C   UNL     1       3.905   1.187  18.305  0.00  0.00    +0.000 C 
ATOM      8  O   UNL     1       4.032   2.226  19.206  0.00  0.00    +0.000 OA
ENDBRANCH   1   8
BRANCH   5   9
ATOM      9  C   UNL     1       2.112   6.776  20.407  0.00  0.00    +0.000 C 
BRANCH   9  10
ATOM     10  N   UNL     1       2.244   7.407  19.079  0.00  0.00    +0.000 NA
ATOM     11  H   UNL     1       1.596   6.899  18.428  0.00  0.00    +0.000 HD
BRANCH  10  12
ATOM     12  C   UNL     1       1.861   8.837  19.069  0.00  0.00    +0.000 C 
ATOM     13  C   UNL     1       1.152   9.247  17.767  0.00  0.00    +0.000 C 
ATOM     14  C   UNL     1       0.909   9.099  20.248  0.00  0.00    +0.000 C 
ENDBRANCH  10  12
ENDBRANCH   9  10
ENDBRANCH   5   9
BRANCH   6  15
ATOM     15  O   UNL     1       4.285   5.286  19.390  0.00  0.00    +0.000 OA
BRANCH  15  16
ATOM     16  C   UNL     1       5.555   4.811  19.126  0.00  0.00    +0.000 C 
BRANCH  16  17
ATOM     17  C   UNL     1       5.894   4.698  17.678  0.00  0.00    +0.000 A 
ATOM     18  C   UNL     1       7.204   4.657  17.186  0.00  0.00    +0.000 A 
ATOM     19  C   UNL     1       7.425   4.508  15.811  0.00  0.00    +0.000 A 
ATOM     20  C   UNL     1       6.344   4.405  14.924  0.00  0.00    +0.000 A 
ATOM     21  C   UNL     1       6.551   4.253  13.449  0.00  0.00    +0.000 C 
ATOM     22  C   UNL     1       5.036   4.429  15.418  0.00  0.00    +0.000 A 
ATOM     23  C   UNL     1       4.816   4.574  16.789  0.00  0.00    +0.000 A 
ENDBRANCH  16  17
ENDBRANCH  15  16
ENDBRANCH   6  15
TORSDOF 7
ENDMDL
MODEL 7
REMARK VINA RESULT:      -6.6      0.830      1.516
REMARK  Name = 
REMARK  11 active torsions:
REMARK  status: ('A' for Active; 'I' for Inactive)
REMARK    1  A    between atoms: C_1  and  O_2
REMARK    2  A    between atoms: O_2  and  C_3
REMARK    3  A    between atoms: C_7  and  C_8
REMARK    4  A    between atoms: C_8  and  N_9
REMARK    5  A    between atoms: N_9  and  C_10
REMARK    6  A    between atoms: C_10  and  C_11
REMARK    7  A    between atoms: C_10  and  C_12
REMARK    8  A    between atoms: C_13  and  O_14
REMARK    9  A    between atoms: O_14  and  C_15
REMARK   10  A    between atoms: C_15  and  C_16
REMARK   11  A    between atoms: C_19  and  C_20
REMARK                            x       y       z     vdW  Elec       q    Type
REMARK                         _______ _______ _______ _____ _____    ______ ____
ROOT
ATOM      1  C   UNL     1       6.208   6.333  17.309  0.00  0.00    +0.000 A 
ATOM      2  C   UNL     1       7.160   5.690  16.509  0.00  0.00    +0.000 A 
ATOM      3  C   UNL     1       6.895   4.475  15.894  0.00  0.00    +0.000 A 
ATOM      4  C   UNL     1       5.661   3.866  16.063  0.00  0.00    +0.000 A 
ATOM      5  C   UNL     1       4.662   4.470  16.844  0.00  0.00    +0.000 A 
ATOM      6  C   UNL     1       4.911   5.721  17.487  0.00  0.00    +0.000 A 
ENDROOT
BRANCH   1   8
ATOM      7  C   UNL     1       7.855   8.157  17.640  0.00  0.00    +0.000 C 
ATOM      8  O   UNL     1       6.651   7.510  17.845  0.00  0.00    +0.000 OA
ENDBRANCH   1   8
BRANCH   5   9
ATOM      9  C   UNL     1       3.325   3.771  16.961  0.00  0.00    +0.000 C 
BRANCH   9  10
ATOM     10  N   UNL     1       3.395   2.712  17.987  0.00  0.00    +0.000 NA
ATOM     11  H   UNL     1       4.352   2.757  18.415  0.00  0.00    +0.000 HD
BRANCH  10  12
ATOM     12  C   UNL     1       2.407   2.884  19.076  0.00  0.00    +0.000 C 
ATOM     13  C   UNL     1       3.029   3.491  20.344  0.00  0.00    +0.000 C 
ATOM     14  C   UNL     1       1.290   3.818  18.582  0.00  0.00    +0.000 C 
ENDBRANCH  10  12
ENDBRANCH   9  10
ENDBRANCH   5   9
BRANCH   6  15
ATOM     15  O   UNL     1       3.859   6.264  18.175  0.00  0.00    +0.000 OA
BRANCH  15  16
ATOM     16  C   UNL     1       3.047   7.298  17.750  0.00  0.00    +0.000 C 
BRANCH  16  17
ATOM     17  C   UNL     1       2.201   7.909  18.815  0.00  0.00    +0.000 A 
ATOM     18  C   UNL     1       2.054   7.368  20.097  0.00  0.00    +0.000 A 
ATOM     19  C   UNL     1       1.269   8.035  21.046  0.00  0.00    +0.000 A 
ATOM     20  C   UNL     1       0.627   9.238  20.720  0.00  0.00    +0.000 A 
ATOM     21  C   UNL     1      -0.224   9.968  21.711  0.00  0.00    +0.000 C 
ATOM     22  C   UNL     1       0.788   9.786  19.443  0.00  0.00    +0.000 A 
ATOM     23  C   UNL     1       1.573   9.123  18.498  0.00  0.00    +0.000 A 
ENDBRANCH  16  17
ENDBRANCH  15  16
ENDBRANCH   6  15
TORSDOF 7
ENDMDL
MODEL 8
REMARK VINA RESULT:      -6.6      1.883      4.345
REMARK  Name = 
REMARK  11 active torsions:
REMARK  status: ('A' for Active; 'I' for Inactive)
REMARK    1  A    between atoms: C_1  and  O_2
REMARK    2  A    between atoms: O_2  and  C_3
REMARK    3  A    between atoms: C_7  and  C_8
REMARK    4  A    between atoms: C_8  and  N_9
REMARK    5  A    between atoms: N_9  and  C_10
REMARK    6  A    between atoms: C_10  and  C_11
REMARK    7  A    between atoms: C_10  and  C_12
REMARK    8  A    between atoms: C_13  and  O_14
REMARK    9  A    between atoms: O_14  and  C_15
REMARK   10  A    between atoms: C_15  and  C_16
REMARK   11  A    between atoms: C_19  and  C_20
REMARK                            x       y       z     vdW  Elec       q    Type
REMARK                         _______ _______ _______ _____ _____    ______ ____
ROOT
ATOM      1  C   UNL     1       3.107   3.092  19.897  0.00  0.00    +0.000 A 
ATOM      2  C   UNL     1       3.248   1.889  19.196  0.00  0.00    +0.000 A 
ATOM      3  C   UNL     1       3.681   1.859  17.879  0.00  0.00    +0.000 A 
ATOM      4  C   UNL     1       3.987   3.040  17.221  0.00  0.00    +0.000 A 
ATOM      5  C   UNL     1       3.876   4.278  17.877  0.00  0.00    +0.000 A 
ATOM      6  C   UNL     1       3.433   4.334  19.234  0.00  0.00    +0.000 A 
ENDROOT
BRANCH   1   8
ATOM      7  C   UNL     1       1.362   2.727  21.620  0.00  0.00    +0.000 C 
ATOM      8  O   UNL     1       2.655   2.929  21.177  0.00  0.00    +0.000 OA
ENDBRANCH   1   8
BRANCH   5   9
ATOM      9  C   UNL     1       4.257   5.528  17.115  0.00  0.00    +0.000 C 
BRANCH   9  10
ATOM     10  N   UNL     1       5.440   6.157  17.733  0.00  0.00    +0.000 NA
ATOM     11  H   UNL     1       5.163   6.458  18.699  0.00  0.00    +0.000 HD
BRANCH  10  12
ATOM     12  C   UNL     1       6.593   5.237  17.863  0.00  0.00    +0.000 C 
ATOM     13  C   UNL     1       7.215   4.878  16.503  0.00  0.00    +0.000 C 
ATOM     14  C   UNL     1       7.668   5.916  18.728  0.00  0.00    +0.000 C 
ENDBRANCH  10  12
ENDBRANCH   9  10
ENDBRANCH   5   9
BRANCH   6  15
ATOM     15  O   UNL     1       3.416   5.576  19.810  0.00  0.00    +0.000 OA
BRANCH  15  16
ATOM     16  C   UNL     1       2.346   6.166  20.456  0.00  0.00    +0.000 C 
BRANCH  16  17
ATOM     17  C   UNL     1       1.965   7.512  19.938  0.00  0.00    +0.000 A 
ATOM     18  C   UNL     1       2.213   7.939  18.628  0.00  0.00    +0.000 A 
ATOM     19  C   UNL     1       1.782   9.208  18.219  0.00  0.00    +0.000 A 
ATOM     20  C   UNL     1       1.109  10.052  19.112  0.00  0.00    +0.000 A 
ATOM     21  C   UNL     1       0.644  11.415  18.704  0.00  0.00    +0.000 C 
ATOM     22  C   UNL     1       0.847   9.618  20.415  0.00  0.00    +0.000 A 
ATOM     23  C   UNL     1       1.273   8.352  20.822  0.00  0.00    +0.000 A 
ENDBRANCH  16  17
ENDBRANCH  15  16
ENDBRANCH   6  15
TORSDOF 7
ENDMDL
MODEL 9
REMARK VINA RESULT:      -6.6      2.489      4.814
REMARK  Name = 
REMARK  11 active torsions:
REMARK  status: ('A' for Active; 'I' for Inactive)
REMARK    1  A    between atoms: C_1  and  O_2
REMARK    2  A    between atoms: O_2  and  C_3
REMARK    3  A    between atoms: C_7  and  C_8
REMARK    4  A    between atoms: C_8  and  N_9
REMARK    5  A    between atoms: N_9  and  C_10
REMARK    6  A    between atoms: C_10  and  C_11
REMARK    7  A    between atoms: C_10  and  C_12
REMARK    8  A    between atoms: C_13  and  O_14
REMARK    9  A    between atoms: O_14  and  C_15
REMARK   10  A    between atoms: C_15  and  C_16
REMARK   11  A    between atoms: C_19  and  C_20
REMARK                            x       y       z     vdW  Elec       q    Type
REMARK                         _______ _______ _______ _____ _____    ______ ____
ROOT
ATOM      1  C   UNL     1       5.674   4.342  18.768  0.00  0.00    +0.000 A 
ATOM      2  C   UNL     1       6.752   5.188  19.048  0.00  0.00    +0.000 A 
ATOM      3  C   UNL     1       7.439   5.853  18.043  0.00  0.00    +0.000 A 
ATOM      4  C   UNL     1       7.063   5.687  16.719  0.00  0.00    +0.000 A 
ATOM      5  C   UNL     1       5.980   4.860  16.377  0.00  0.00    +0.000 A 
ATOM      6  C   UNL     1       5.257   4.166  17.395  0.00  0.00    +0.000 A 
ENDROOT
BRANCH   1   8
ATOM      7  C   UNL     1       4.697   2.461  20.056  0.00  0.00    +0.000 C 
ATOM      8  O   UNL     1       5.131   3.761  19.881  0.00  0.00    +0.000 OA
ENDBRANCH   1   8
BRANCH   5   9
ATOM      9  C   UNL     1       5.597   4.749  14.917  0.00  0.00    +0.000 C 
BRANCH   9  10
ATOM     10  N   UNL     1       6.081   3.470  14.363  0.00  0.00    +0.000 NA
ATOM     11  H   UNL     1       5.359   2.742  14.585  0.00  0.00    +0.000 HD
BRANCH  10  12
ATOM     12  C   UNL     1       6.256   3.497  12.893  0.00  0.00    +0.000 C 
ATOM     13  C   UNL     1       4.918   3.623  12.144  0.00  0.00    +0.000 C 
ATOM     14  C   UNL     1       7.138   4.701  12.526  0.00  0.00    +0.000 C 
ENDBRANCH  10  12
ENDBRANCH   9  10
ENDBRANCH   5   9
BRANCH   6  15
ATOM     15  O   UNL     1       4.179   3.434  16.975  0.00  0.00    +0.000 OA
BRANCH  15  16
ATOM     16  C   UNL     1       2.849   3.797  17.079  0.00  0.00    +0.000 C 
BRANCH  16  17
ATOM     17  C   UNL     1       2.575   4.903  18.042  0.00  0.00    +0.000 A 
ATOM     18  C   UNL     1       2.826   6.252  17.768  0.00  0.00    +0.000 A 
ATOM     19  C   UNL     1       2.497   7.226  18.720  0.00  0.00    +0.000 A 
ATOM     20  C   UNL     1       1.925   6.859  19.945  0.00  0.00    +0.000 A 
ATOM     21  C   UNL     1       1.572   7.877  20.983  0.00  0.00    +0.000 C 
ATOM     22  C   UNL     1       1.660   5.512  20.211  0.00  0.00    +0.000 A 
ATOM     23  C   UNL     1       1.983   4.541  19.261  0.00  0.00    +0.000 A 
ENDBRANCH  16  17
ENDBRANCH  15  16
ENDBRANCH   6  15
TORSDOF 7
ENDMDL
