MODEL 1
REMARK VINA RESULT:      -6.6      0.000      0.000
REMARK  Name = 
REMARK  7 active torsions:
REMARK  status: ('A' for Active; 'I' for Inactive)
REMARK    1  A    between atoms: C_1  and  C_2
REMARK    2  A    between atoms: C_2  and  N_3
REMARK    3  A    between atoms: N_3  and  C_4
REMARK    4  A    between atoms: C_4  and  C_5
REMARK    5  A    between atoms: C_6  and  C_8
REMARK    6  A    between atoms: C_15  and  C_16
REMARK    7  A    between atoms: C_22  and  C_23
REMARK                            x       y       z     vdW  Elec       q    Type
REMARK                         _______ _______ _______ _____ _____    ______ ____
ROOT
ATOM      1  C   UNL     1       1.961  13.903  19.142  0.00  0.00    +0.000 C 
ATOM      2  C   UNL     1       2.277  12.764  18.157  0.00  0.00    +0.000 C 
ATOM      3  C   UNL     1       1.379  11.544  18.346  0.00  0.00    +0.000 C 
ATOM      4  C   UNL     1       1.496  11.002  19.767  0.00  0.00    +0.000 C 
ATOM      5  N   UNL     1       1.186  12.083  20.683  0.00  0.00    +0.000 N 
ATOM      6  C   UNL     1       0.251  11.812  21.665  0.00  0.00    +0.000 A 
ATOM      7  C   UNL     1      -0.775  12.691  21.912  0.00  0.00    +0.000 A 
ATOM      8  C   UNL     1      -1.832  12.236  22.682  0.00  0.00    +0.000 A 
ATOM      9  N   UNL     1      -1.829  11.058  23.333  0.00  0.00    +0.000 NA
ATOM     10  C   UNL     1      -0.746  10.311  23.098  0.00  0.00    +0.000 A 
ATOM     11  N   UNL     1       0.270  10.610  22.269  0.00  0.00    +0.000 NA
ATOM     12  C   UNL     1       1.952  13.327  20.589  0.00  0.00    +0.000 C 
ENDROOT
BRANCH   8  13
ATOM     13  C   UNL     1      -2.999  13.089  22.804  0.00  0.00    +0.000 A 
ATOM     14  C   UNL     1      -3.880  13.222  23.917  0.00  0.00    +0.000 A 
ATOM     15  N   UNL     1      -4.378  12.095  24.528  0.00  0.00    +0.000 N 
ATOM     16  N   UNL     1      -4.651  14.280  23.663  0.00  0.00    +0.000 NA
ATOM     17  N   UNL     1      -4.969  14.010  22.380  0.00  0.00    +0.000 N 
ATOM     18  C   UNL     1      -6.278  13.900  21.939  0.00  0.00    +0.000 A 
ATOM     19  C   UNL     1      -6.565  12.952  21.044  0.00  0.00    +0.000 A 
ATOM     20  C   UNL     1      -7.852  12.212  21.126  0.00  0.00    +0.000 C 
ATOM     21  C   UNL     1      -5.390  12.433  20.275  0.00  0.00    +0.000 A 
ATOM     22  N   UNL     1      -4.138  12.632  20.573  0.00  0.00    +0.000 NA
ATOM     23  C   UNL     1      -3.939  13.260  21.779  0.00  0.00    +0.000 A 
ATOM     24  H   UNL     1      -3.703  11.332  24.570  0.00  0.00    +0.000 HD
ATOM     25  H   UNL     1      -5.135  11.699  23.965  0.00  0.00    +0.000 HD
ENDBRANCH   8  13
BRANCH   1  27
ATOM     26  N   UNL     1       0.704  16.137  18.869  0.00  0.00    +0.000 N 
ATOM     27  C   UNL     1       0.687  14.743  18.913  0.00  0.00    +0.000 C 
ATOM     28  O   UNL     1      -0.413  14.179  18.873  0.00  0.00    +0.000 OA
BRANCH  26  30
ATOM     29  C   UNL     1      -0.563  17.812  17.517  0.00  0.00    +0.000 C 
ATOM     30  C   UNL     1      -0.604  16.778  18.634  0.00  0.00    +0.000 C 
ENDBRANCH  26  30
BRANCH  26  31
ATOM     31  C   UNL     1       1.912  16.953  18.993  0.00  0.00    +0.000 C 
ATOM     32  C   UNL     1       2.289  17.474  20.373  0.00  0.00    +0.000 C 
ENDBRANCH  26  31
ENDBRANCH   1  27
TORSDOF 4
ENDMDL
MODEL 2
REMARK VINA RESULT:      -6.6      3.279      7.265
REMARK  Name = 
REMARK  7 active torsions:
REMARK  status: ('A' for Active; 'I' for Inactive)
REMARK    1  A    between atoms: C_1  and  C_2
REMARK    2  A    between atoms: C_2  and  N_3
REMARK    3  A    between atoms: N_3  and  C_4
REMARK    4  A    between atoms: C_4  and  C_5
REMARK    5  A    between atoms: C_6  and  C_8
REMARK    6  A    between atoms: C_15  and  C_16
REMARK    7  A    between atoms: C_22  and  C_23
REMARK                            x       y       z     vdW  Elec       q    Type
REMARK                         _______ _______ _______ _____ _____    ______ ____
ROOT
ATOM      1  C   UNL     1      -6.807  13.917  23.155  0.00  0.00    +0.000 C 
ATOM      2  C   UNL     1      -7.916  12.891  23.446  0.00  0.00    +0.000 C 
ATOM      3  C   UNL     1      -7.786  11.619  22.612  0.00  0.00    +0.000 C 
ATOM      4  C   UNL     1      -7.806  11.946  21.122  0.00  0.00    +0.000 C 
ATOM      5  N   UNL     1      -6.751  12.906  20.862  0.00  0.00    +0.000 N 
ATOM      6  C   UNL     1      -5.887  12.609  19.823  0.00  0.00    +0.000 A 
ATOM      7  C   UNL     1      -4.529  12.718  19.993  0.00  0.00    +0.000 A 
ATOM      8  C   UNL     1      -3.719  12.131  19.036  0.00  0.00    +0.000 A 
ATOM      9  N   UNL     1      -4.179  11.618  17.881  0.00  0.00    +0.000 NA
ATOM     10  C   UNL     1      -5.511  11.638  17.770  0.00  0.00    +0.000 A 
ATOM     11  N   UNL     1      -6.386  12.068  18.697  0.00  0.00    +0.000 NA
ATOM     12  C   UNL     1      -6.737  14.159  21.619  0.00  0.00    +0.000 C 
ENDROOT
BRANCH   8  13
ATOM     13  C   UNL     1      -2.292  12.085  19.292  0.00  0.00    +0.000 A 
ATOM     14  C   UNL     1      -1.312  11.255  18.674  0.00  0.00    +0.000 A 
ATOM     15  N   UNL     1      -1.547   9.905  18.548  0.00  0.00    +0.000 N 
ATOM     16  N   UNL     1      -0.124  11.727  19.052  0.00  0.00    +0.000 NA
ATOM     17  N   UNL     1      -0.367  11.884  20.371  0.00  0.00    +0.000 N 
ATOM     18  C   UNL     1       0.406  11.283  21.352  0.00  0.00    +0.000 A 
ATOM     19  C   UNL     1      -0.212  10.798  22.431  0.00  0.00    +0.000 A 
ATOM     20  C   UNL     1       0.253   9.529  23.051  0.00  0.00    +0.000 C 
ATOM     21  C   UNL     1      -1.576  11.360  22.684  0.00  0.00    +0.000 A 
ATOM     22  N   UNL     1      -2.282  12.055  21.839  0.00  0.00    +0.000 NA
ATOM     23  C   UNL     1      -1.737  12.129  20.579  0.00  0.00    +0.000 A 
ATOM     24  H   UNL     1      -2.523   9.686  18.348  0.00  0.00    +0.000 HD
ATOM     25  H   UNL     1      -1.389   9.439  19.445  0.00  0.00    +0.000 HD
ENDBRANCH   8  13
BRANCH   1  27
ATOM     26  N   UNL     1      -4.520  14.669  24.077  0.00  0.00    +0.000 N 
ATOM     27  C   UNL     1      -5.389  13.645  23.700  0.00  0.00    +0.000 C 
ATOM     28  O   UNL     1      -4.954  12.488  23.707  0.00  0.00    +0.000 OA
BRANCH  26  30
ATOM     29  C   UNL     1      -2.646  15.150  25.657  0.00  0.00    +0.000 C 
ATOM     30  C   UNL     1      -3.206  14.227  24.583  0.00  0.00    +0.000 C 
ENDBRANCH  26  30
BRANCH  26  31
ATOM     31  C   UNL     1      -4.854  16.093  24.040  0.00  0.00    +0.000 C 
ATOM     32  C   UNL     1      -4.391  16.907  22.840  0.00  0.00    +0.000 C 
ENDBRANCH  26  31
ENDBRANCH   1  27
TORSDOF 4
ENDMDL
MODEL 3
REMARK VINA RESULT:      -6.4      2.422      7.294
REMARK  Name = 
REMARK  7 active torsions:
REMARK  status: ('A' for Active; 'I' for Inactive)
REMARK    1  A    between atoms: C_1  and  C_2
REMARK    2  A    between atoms: C_2  and  N_3
REMARK    3  A    between atoms: N_3  and  C_4
REMARK    4  A    between atoms: C_4  and  C_5
REMARK    5  A    between atoms: C_6  and  C_8
REMARK    6  A    between atoms: C_15  and  C_16
REMARK    7  A    between atoms: C_22  and  C_23
REMARK                            x       y       z     vdW  Elec       q    Type
REMARK                         _______ _______ _______ _____ _____    ______ ____
ROOT
ATOM      1  C   UNL     1      -6.409  13.082  20.551  0.00  0.00    +0.000 C 
ATOM      2  C   UNL     1      -7.503  12.000  20.563  0.00  0.00    +0.000 C 
ATOM      3  C   UNL     1      -7.009  10.644  20.068  0.00  0.00    +0.000 C 
ATOM      4  C   UNL     1      -6.454  10.757  18.651  0.00  0.00    +0.000 C 
ATOM      5  N   UNL     1      -5.418  11.771  18.657  0.00  0.00    +0.000 N 
ATOM      6  C   UNL     1      -4.205  11.420  18.093  0.00  0.00    +0.000 A 
ATOM      7  C   UNL     1      -3.028  11.686  18.749  0.00  0.00    +0.000 A 
ATOM      8  C   UNL     1      -1.885  11.055  18.287  0.00  0.00    +0.000 A 
ATOM      9  N   UNL     1      -1.834  10.342  17.147  0.00  0.00    +0.000 NA
ATOM     10  C   UNL     1      -3.015  10.214  16.534  0.00  0.00    +0.000 A 
ATOM     11  N   UNL     1      -4.200  10.680  16.970  0.00  0.00    +0.000 NA
ATOM     12  C   UNL     1      -5.749  13.112  19.141  0.00  0.00    +0.000 C 
ENDROOT
BRANCH   8  13
ATOM     13  C   UNL     1      -0.673  11.188  19.072  0.00  0.00    +0.000 A 
ATOM     14  C   UNL     1      -0.489  10.922  20.460  0.00  0.00    +0.000 A 
ATOM     15  N   UNL     1      -1.387  11.422  21.373  0.00  0.00    +0.000 N 
ATOM     16  N   UNL     1       0.826  10.956  20.680  0.00  0.00    +0.000 NA
ATOM     17  N   UNL     1       1.126  12.085  20.004  0.00  0.00    +0.000 N 
ATOM     18  C   UNL     1       1.764  13.164  20.595  0.00  0.00    +0.000 A 
ATOM     19  C   UNL     1       1.367  14.393  20.256  0.00  0.00    +0.000 A 
ATOM     20  C   UNL     1       1.311  15.469  21.282  0.00  0.00    +0.000 C 
ATOM     21  C   UNL     1       0.623  14.483  18.961  0.00  0.00    +0.000 A 
ATOM     22  N   UNL     1       0.128  13.477  18.296  0.00  0.00    +0.000 NA
ATOM     23  C   UNL     1       0.206  12.275  18.956  0.00  0.00    +0.000 A 
ATOM     24  H   UNL     1      -2.348  11.419  21.032  0.00  0.00    +0.000 HD
ATOM     25  H   UNL     1      -1.206  12.417  21.532  0.00  0.00    +0.000 HD
ENDBRANCH   8  13
BRANCH   1  27
ATOM     26  N   UNL     1      -5.497  13.543  22.918  0.00  0.00    +0.000 N 
ATOM     27  C   UNL     1      -5.310  13.031  21.634  0.00  0.00    +0.000 C 
ATOM     28  O   UNL     1      -4.183  12.622  21.335  0.00  0.00    +0.000 OA
BRANCH  26  30
ATOM     29  C   UNL     1      -4.548  12.321  24.880  0.00  0.00    +0.000 C 
ATOM     30  C   UNL     1      -4.344  13.403  23.828  0.00  0.00    +0.000 C 
ENDBRANCH  26  30
BRANCH  26  31
ATOM     31  C   UNL     1      -6.743  14.141  23.397  0.00  0.00    +0.000 C 
ATOM     32  C   UNL     1      -6.889  15.654  23.320  0.00  0.00    +0.000 C 
ENDBRANCH  26  31
ENDBRANCH   1  27
TORSDOF 4
ENDMDL
MODEL 4
REMARK VINA RESULT:      -6.4      6.222      8.918
REMARK  Name = 
REMARK  7 active torsions:
REMARK  status: ('A' for Active; 'I' for Inactive)
REMARK    1  A    between atoms: C_1  and  C_2
REMARK    2  A    between atoms: C_2  and  N_3
REMARK    3  A    between atoms: N_3  and  C_4
REMARK    4  A    between atoms: C_4  and  C_5
REMARK    5  A    between atoms: C_6  and  C_8
REMARK    6  A    between atoms: C_15  and  C_16
REMARK    7  A    between atoms: C_22  and  C_23
REMARK                            x       y       z     vdW  Elec       q    Type
REMARK                         _______ _______ _______ _____ _____    ______ ____
ROOT
ATOM      1  C   UNL     1       6.110   4.614  17.363  0.00  0.00    +0.000 C 
ATOM      2  C   UNL     1       5.606   3.800  16.158  0.00  0.00    +0.000 C 
ATOM      3  C   UNL     1       4.085   3.787  16.040  0.00  0.00    +0.000 C 
ATOM      4  C   UNL     1       3.450   3.221  17.307  0.00  0.00    +0.000 C 
ATOM      5  N   UNL     1       3.925   4.003  18.432  0.00  0.00    +0.000 N 
ATOM      6  C   UNL     1       2.963   4.490  19.298  0.00  0.00    +0.000 A 
ATOM      7  C   UNL     1       2.988   5.802  19.703  0.00  0.00    +0.000 A 
ATOM      8  C   UNL     1       1.852   6.300  20.318  0.00  0.00    +0.000 A 
ATOM      9  N   UNL     1       0.807   5.537  20.688  0.00  0.00    +0.000 NA
ATOM     10  C   UNL     1       0.916   4.255  20.326  0.00  0.00    +0.000 A 
ATOM     11  N   UNL     1       1.918   3.705  19.617  0.00  0.00    +0.000 NA
ATOM     12  C   UNL     1       5.368   4.127  18.643  0.00  0.00    +0.000 C 
ENDROOT
BRANCH   8  13
ATOM     13  C   UNL     1       1.799   7.723  20.591  0.00  0.00    +0.000 A 
ATOM     14  C   UNL     1       1.063   8.398  21.609  0.00  0.00    +0.000 A 
ATOM     15  N   UNL     1      -0.265   8.096  21.800  0.00  0.00    +0.000 N 
ATOM     16  N   UNL     1       1.505   9.656  21.623  0.00  0.00    +0.000 NA
ATOM     17  N   UNL     1       1.500   9.899  20.295  0.00  0.00    +0.000 N 
ATOM     18  C   UNL     1       0.798  10.951  19.729  0.00  0.00    +0.000 A 
ATOM     19  C   UNL     1       0.178  10.741  18.565  0.00  0.00    +0.000 A 
ATOM     20  C   UNL     1      -1.149  11.360  18.303  0.00  0.00    +0.000 C 
ATOM     21  C   UNL     1       0.684   9.571  17.782  0.00  0.00    +0.000 A 
ATOM     22  N   UNL     1       1.464   8.632  18.235  0.00  0.00    +0.000 NA
ATOM     23  C   UNL     1       1.697   8.698  19.588  0.00  0.00    +0.000 A 
ATOM     24  H   UNL     1      -0.474   7.107  21.666  0.00  0.00    +0.000 HD
ATOM     25  H   UNL     1      -0.833   8.548  21.079  0.00  0.00    +0.000 HD
ENDBRANCH   8  13
BRANCH   1  27
ATOM     26  N   UNL     1       7.035   6.972  17.846  0.00  0.00    +0.000 N 
ATOM     27  C   UNL     1       6.052   6.155  17.288  0.00  0.00    +0.000 C 
ATOM     28  O   UNL     1       5.050   6.702  16.814  0.00  0.00    +0.000 OA
BRANCH  26  30
ATOM     29  C   UNL     1       8.092   9.235  17.902  0.00  0.00    +0.000 C 
ATOM     30  C   UNL     1       6.824   8.421  17.675  0.00  0.00    +0.000 C 
ENDBRANCH  26  30
BRANCH  26  31
ATOM     31  C   UNL     1       8.235   6.477  18.521  0.00  0.00    +0.000 C 
ATOM     32  C   UNL     1       8.072   5.816  19.883  0.00  0.00    +0.000 C 
ENDBRANCH  26  31
ENDBRANCH   1  27
TORSDOF 4
ENDMDL
MODEL 5
REMARK VINA RESULT:      -6.3      2.763      5.597
REMARK  Name = 
REMARK  7 active torsions:
REMARK  status: ('A' for Active; 'I' for Inactive)
REMARK    1  A    between atoms: C_1  and  C_2
REMARK    2  A    between atoms: C_2  and  N_3
REMARK    3  A    between atoms: N_3  and  C_4
REMARK    4  A    between atoms: C_4  and  C_5
REMARK    5  A    between atoms: C_6  and  C_8
REMARK    6  A    between atoms: C_15  and  C_16
REMARK    7  A    between atoms: C_22  and  C_23
REMARK                            x       y       z     vdW  Elec       q    Type
REMARK                         _______ _______ _______ _____ _____    ______ ____
ROOT
ATOM      1  C   UNL     1      -2.045  10.062  18.047  0.00  0.00    +0.000 C 
ATOM      2  C   UNL     1      -1.927  10.255  16.525  0.00  0.00    +0.000 C 
ATOM      3  C   UNL     1      -2.866  11.329  15.984  0.00  0.00    +0.000 C 
ATOM      4  C   UNL     1      -4.317  10.996  16.320  0.00  0.00    +0.000 C 
ATOM      5  N   UNL     1      -4.415  10.828  17.756  0.00  0.00    +0.000 N 
ATOM      6  C   UNL     1      -5.417  11.535  18.396  0.00  0.00    +0.000 A 
ATOM      7  C   UNL     1      -5.148  12.249  19.538  0.00  0.00    +0.000 A 
ATOM      8  C   UNL     1      -6.099  13.163  19.957  0.00  0.00    +0.000 A 
ATOM      9  N   UNL     1      -7.326  13.265  19.414  0.00  0.00    +0.000 NA
ATOM     10  C   UNL     1      -7.523  12.465  18.361  0.00  0.00    +0.000 A 
ATOM     11  N   UNL     1      -6.620  11.639  17.803  0.00  0.00    +0.000 NA
ATOM     12  C   UNL     1      -3.544   9.850  18.411  0.00  0.00    +0.000 C 
ENDROOT
BRANCH   8  13
ATOM     13  C   UNL     1      -5.754  14.045  21.055  0.00  0.00    +0.000 A 
ATOM     14  C   UNL     1      -5.242  15.373  20.990  0.00  0.00    +0.000 A 
ATOM     15  N   UNL     1      -4.186  15.654  20.155  0.00  0.00    +0.000 N 
ATOM     16  N   UNL     1      -5.304  15.863  22.229  0.00  0.00    +0.000 NA
ATOM     17  N   UNL     1      -4.797  14.808  22.901  0.00  0.00    +0.000 N 
ATOM     18  C   UNL     1      -3.690  14.911  23.729  0.00  0.00    +0.000 A 
ATOM     19  C   UNL     1      -2.803  13.913  23.721  0.00  0.00    +0.000 A 
ATOM     20  C   UNL     1      -1.348  14.205  23.831  0.00  0.00    +0.000 C 
ATOM     21  C   UNL     1      -3.320  12.612  23.191  0.00  0.00    +0.000 A 
ATOM     22  N   UNL     1      -4.430  12.446  22.530  0.00  0.00    +0.000 NA
ATOM     23  C   UNL     1      -5.068  13.618  22.200  0.00  0.00    +0.000 A 
ATOM     24  H   UNL     1      -4.221  15.136  19.278  0.00  0.00    +0.000 HD
ATOM     25  H   UNL     1      -3.312  15.328  20.576  0.00  0.00    +0.000 HD
ENDBRANCH   8  13
BRANCH   1  27
ATOM     26  N   UNL     1      -0.508  10.825  19.971  0.00  0.00    +0.000 N 
ATOM     27  C   UNL     1      -1.435  11.133  18.975  0.00  0.00    +0.000 C 
ATOM     28  O   UNL     1      -1.854  12.295  18.918  0.00  0.00    +0.000 OA
BRANCH  26  30
ATOM     29  C   UNL     1       1.417  12.347  20.436  0.00  0.00    +0.000 C 
ATOM     30  C   UNL     1      -0.023  11.973  20.760  0.00  0.00    +0.000 C 
ENDBRANCH  26  30
BRANCH  26  31
ATOM     31  C   UNL     1       0.018   9.483  20.224  0.00  0.00    +0.000 C 
ATOM     32  C   UNL     1      -0.260   8.848  21.579  0.00  0.00    +0.000 C 
ENDBRANCH  26  31
ENDBRANCH   1  27
TORSDOF 4
ENDMDL
MODEL 6
REMARK VINA RESULT:      -6.2      7.315      9.903
REMARK  Name = 
REMARK  7 active torsions:
REMARK  status: ('A' for Active; 'I' for Inactive)
REMARK    1  A    between atoms: C_1  and  C_2
REMARK    2  A    between atoms: C_2  and  N_3
REMARK    3  A    between atoms: N_3  and  C_4
REMARK    4  A    between atoms: C_4  and  C_5
REMARK    5  A    between atoms: C_6  and  C_8
REMARK    6  A    between atoms: C_15  and  C_16
REMARK    7  A    between atoms: C_22  and  C_23
REMARK                            x       y       z     vdW  Elec       q    Type
REMARK                         _______ _______ _______ _____ _____    ______ ____
ROOT
ATOM      1  C   UNL     1      11.183  12.833  18.532  0.00  0.00    +0.000 C 
ATOM      2  C   UNL     1      10.915  11.475  17.860  0.00  0.00    +0.000 C 
ATOM      3  C   UNL     1       9.585  10.854  18.278  0.00  0.00    +0.000 C 
ATOM      4  C   UNL     1       9.528  10.666  19.791  0.00  0.00    +0.000 C 
ATOM      5  N   UNL     1       9.772  11.954  20.410  0.00  0.00    +0.000 N 
ATOM      6  C   UNL     1       8.867  12.359  21.373  0.00  0.00    +0.000 A 
ATOM      7  C   UNL     1       8.344  13.629  21.349  0.00  0.00    +0.000 A 
ATOM      8  C   UNL     1       7.238  13.877  22.143  0.00  0.00    +0.000 A 
ATOM      9  N   UNL     1       6.759  13.006  23.051  0.00  0.00    +0.000 NA
ATOM     10  C   UNL     1       7.391  11.829  23.059  0.00  0.00    +0.000 A 
ATOM     11  N   UNL     1       8.390  11.449  22.241  0.00  0.00    +0.000 NA
ATOM     12  C   UNL     1      10.999  12.676  20.070  0.00  0.00    +0.000 C 
ENDROOT
BRANCH   8  13
ATOM     13  C   UNL     1       6.571  15.157  21.996  0.00  0.00    +0.000 A 
ATOM     14  C   UNL     1       5.423  15.637  22.691  0.00  0.00    +0.000 A 
ATOM     15  N   UNL     1       4.313  14.833  22.807  0.00  0.00    +0.000 N 
ATOM     16  N   UNL     1       5.321  16.935  22.401  0.00  0.00    +0.000 NA
ATOM     17  N   UNL     1       5.519  16.871  21.067  0.00  0.00    +0.000 N 
ATOM     18  C   UNL     1       4.606  17.370  20.151  0.00  0.00    +0.000 A 
ATOM     19  C   UNL     1       4.395  16.675  19.030  0.00  0.00    +0.000 A 
ATOM     20  C   UNL     1       3.026  16.584  18.455  0.00  0.00    +0.000 C 
ATOM     21  C   UNL     1       5.480  15.709  18.672  0.00  0.00    +0.000 A 
ATOM     22  N   UNL     1       6.443  15.320  19.458  0.00  0.00    +0.000 NA
ATOM     23  C   UNL     1       6.323  15.759  20.754  0.00  0.00    +0.000 A 
ATOM     24  H   UNL     1       4.544  13.848  22.934  0.00  0.00    +0.000 HD
ATOM     25  H   UNL     1       3.791  14.833  21.927  0.00  0.00    +0.000 HD
ENDBRANCH   8  13
BRANCH   1  27
ATOM     26  N   UNL     1      10.900  15.364  18.129  0.00  0.00    +0.000 N 
ATOM     27  C   UNL     1      10.395  14.066  18.041  0.00  0.00    +0.000 C 
ATOM     28  O   UNL     1       9.230  13.926  17.652  0.00  0.00    +0.000 OA
BRANCH  26  30
ATOM     29  C   UNL     1      10.767  17.698  17.252  0.00  0.00    +0.000 C 
ATOM     30  C   UNL     1      10.016  16.422  17.605  0.00  0.00    +0.000 C 
ENDBRANCH  26  30
BRANCH  26  31
ATOM     31  C   UNL     1      12.225  15.702  18.650  0.00  0.00    +0.000 C 
ATOM     32  C   UNL     1      12.332  16.151  20.100  0.00  0.00    +0.000 C 
ENDBRANCH  26  31
ENDBRANCH   1  27
TORSDOF 4
ENDMDL
MODEL 7
REMARK VINA RESULT:      -6.1      2.585      6.810
REMARK  Name = 
REMARK  7 active torsions:
REMARK  status: ('A' for Active; 'I' for Inactive)
REMARK    1  A    between atoms: C_1  and  C_2
REMARK    2  A    between atoms: C_2  and  N_3
REMARK    3  A    between atoms: N_3  and  C_4
REMARK    4  A    between atoms: C_4  and  C_5
REMARK    5  A    between atoms: C_6  and  C_8
REMARK    6  A    between atoms: C_15  and  C_16
REMARK    7  A    between atoms: C_22  and  C_23
REMARK                            x       y       z     vdW  Elec       q    Type
REMARK                         _______ _______ _______ _____ _____    ______ ____
ROOT
ATOM      1  C   UNL     1      -6.463  13.181  20.177  0.00  0.00    +0.000 C 
ATOM      2  C   UNL     1      -7.545  12.088  20.235  0.00  0.00    +0.000 C 
ATOM      3  C   UNL     1      -7.001  10.692  19.945  0.00  0.00    +0.000 C 
ATOM      4  C   UNL     1      -6.338  10.646  18.572  0.00  0.00    +0.000 C 
ATOM      5  N   UNL     1      -5.316  11.673  18.535  0.00  0.00    +0.000 N 
ATOM      6  C   UNL     1      -4.059  11.280  18.112  0.00  0.00    +0.000 A 
ATOM      7  C   UNL     1      -2.939  11.644  18.818  0.00  0.00    +0.000 A 
ATOM      8  C   UNL     1      -1.758  10.984  18.524  0.00  0.00    +0.000 A 
ATOM      9  N   UNL     1      -1.612  10.142  17.485  0.00  0.00    +0.000 NA
ATOM     10  C   UNL     1      -2.740   9.920  16.804  0.00  0.00    +0.000 A 
ATOM     11  N   UNL     1      -3.959  10.412  17.089  0.00  0.00    +0.000 NA
ATOM     12  C   UNL     1      -5.696  13.056  18.828  0.00  0.00    +0.000 C 
ENDROOT
BRANCH   8  13
ATOM     13  C   UNL     1      -0.612  11.231  19.378  0.00  0.00    +0.000 A 
ATOM     14  C   UNL     1      -0.539  11.152  20.799  0.00  0.00    +0.000 A 
ATOM     15  N   UNL     1      -1.507  11.759  21.565  0.00  0.00    +0.000 N 
ATOM     16  N   UNL     1       0.754  11.228  21.116  0.00  0.00    +0.000 NA
ATOM     17  N   UNL     1       1.107  12.262  20.322  0.00  0.00    +0.000 N 
ATOM     18  C   UNL     1       1.697  13.416  20.814  0.00  0.00    +0.000 A 
ATOM     19  C   UNL     1       1.327  14.586  20.286  0.00  0.00    +0.000 A 
ATOM     20  C   UNL     1       1.190  15.786  21.153  0.00  0.00    +0.000 C 
ATOM     21  C   UNL     1       0.689  14.496  18.935  0.00  0.00    +0.000 A 
ATOM     22  N   UNL     1       0.249  13.407  18.372  0.00  0.00    +0.000 NA
ATOM     23  C   UNL     1       0.273  12.303  19.189  0.00  0.00    +0.000 A 
ATOM     24  H   UNL     1      -2.438  11.701  21.152  0.00  0.00    +0.000 HD
ATOM     25  H   UNL     1      -1.339  12.767  21.604  0.00  0.00    +0.000 HD
ENDBRANCH   8  13
BRANCH   1  27
ATOM     26  N   UNL     1      -4.778  14.460  21.651  0.00  0.00    +0.000 N 
ATOM     27  C   UNL     1      -5.452  13.279  21.339  0.00  0.00    +0.000 C 
ATOM     28  O   UNL     1      -5.136  12.256  21.956  0.00  0.00    +0.000 OA
BRANCH  26  30
ATOM     29  C   UNL     1      -4.444  14.955  24.076  0.00  0.00    +0.000 C 
ATOM     30  C   UNL     1      -3.854  14.376  22.797  0.00  0.00    +0.000 C 
ENDBRANCH  26  30
BRANCH  26  31
ATOM     31  C   UNL     1      -4.974  15.732  20.955  0.00  0.00    +0.000 C 
ATOM     32  C   UNL     1      -3.779  16.664  20.815  0.00  0.00    +0.000 C 
ENDBRANCH  26  31
ENDBRANCH   1  27
TORSDOF 4
ENDMDL
MODEL 8
REMARK VINA RESULT:      -6.1      3.128      7.178
REMARK  Name = 
REMARK  7 active torsions:
REMARK  status: ('A' for Active; 'I' for Inactive)
REMARK    1  A    between atoms: C_1  and  C_2
REMARK    2  A    between atoms: C_2  and  N_3
REMARK    3  A    between atoms: N_3  and  C_4
REMARK    4  A    between atoms: C_4  and  C_5
REMARK    5  A    between atoms: C_6  and  C_8
REMARK    6  A    between atoms: C_15  and  C_16
REMARK    7  A    between atoms: C_22  and  C_23
REMARK                            x       y       z     vdW  Elec       q    Type
REMARK                         _______ _______ _______ _____ _____    ______ ____
ROOT
ATOM      1  C   UNL     1      -6.065  14.326  23.431  0.00  0.00    +0.000 C 
ATOM      2  C   UNL     1      -7.052  13.444  24.215  0.00  0.00    +0.000 C 
ATOM      3  C   UNL     1      -7.349  12.118  23.522  0.00  0.00    +0.000 C 
ATOM      4  C   UNL     1      -7.914  12.354  22.124  0.00  0.00    +0.000 C 
ATOM      5  N   UNL     1      -6.970  13.177  21.395  0.00  0.00    +0.000 N 
ATOM      6  C   UNL     1      -6.595  12.727  20.142  0.00  0.00    +0.000 A 
ATOM      7  C   UNL     1      -5.271  12.700  19.777  0.00  0.00    +0.000 A 
ATOM      8  C   UNL     1      -4.936  11.972  18.648  0.00  0.00    +0.000 A 
ATOM      9  N   UNL     1      -5.842  11.442  17.806  0.00  0.00    +0.000 NA
ATOM     10  C   UNL     1      -7.109  11.597  18.202  0.00  0.00    +0.000 A 
ATOM     11  N   UNL     1      -7.526  12.175  19.344  0.00  0.00    +0.000 NA
ATOM     12  C   UNL     1      -6.571  14.465  21.965  0.00  0.00    +0.000 C 
ENDROOT
BRANCH   8  13
ATOM     13  C   UNL     1      -3.529  11.789  18.352  0.00  0.00    +0.000 A 
ATOM     14  C   UNL     1      -2.916  10.752  17.591  0.00  0.00    +0.000 A 
ATOM     15  N   UNL     1      -3.251   9.440  17.836  0.00  0.00    +0.000 N 
ATOM     16  N   UNL     1      -1.651  11.126  17.392  0.00  0.00    +0.000 NA
ATOM     17  N   UNL     1      -1.348  11.527  18.644  0.00  0.00    +0.000 N 
ATOM     18  C   UNL     1      -0.284  11.003  19.362  0.00  0.00    +0.000 A 
ATOM     19  C   UNL     1      -0.453  10.784  20.668  0.00  0.00    +0.000 A 
ATOM     20  C   UNL     1       0.152   9.585  21.309  0.00  0.00    +0.000 C 
ATOM     21  C   UNL     1      -1.576  11.547  21.297  0.00  0.00    +0.000 A 
ATOM     22  N   UNL     1      -2.520  12.178  20.658  0.00  0.00    +0.000 NA
ATOM     23  C   UNL     1      -2.511  11.974  19.299  0.00  0.00    +0.000 A 
ATOM     24  H   UNL     1      -4.237   9.316  18.066  0.00  0.00    +0.000 HD
ATOM     25  H   UNL     1      -2.778   9.112  18.681  0.00  0.00    +0.000 HD
ENDBRANCH   8  13
BRANCH   1  27
ATOM     26  N   UNL     1      -3.548  14.884  23.472  0.00  0.00    +0.000 N 
ATOM     27  C   UNL     1      -4.572  13.937  23.427  0.00  0.00    +0.000 C 
ATOM     28  O   UNL     1      -4.254  12.753  23.270  0.00  0.00    +0.000 OA
BRANCH  26  30
ATOM     29  C   UNL     1      -1.244  15.085  22.529  0.00  0.00    +0.000 C 
ATOM     30  C   UNL     1      -2.179  14.335  23.468  0.00  0.00    +0.000 C 
ENDBRANCH  26  30
BRANCH  26  31
ATOM     31  C   UNL     1      -3.762  16.329  23.567  0.00  0.00    +0.000 C 
ATOM     32  C   UNL     1      -3.877  16.947  24.953  0.00  0.00    +0.000 C 
ENDBRANCH  26  31
ENDBRANCH   1  27
TORSDOF 4
ENDMDL
MODEL 9
REMARK VINA RESULT:      -6.1      2.763      4.269
REMARK  Name = 
REMARK  7 active torsions:
REMARK  status: ('A' for Active; 'I' for Inactive)
REMARK    1  A    between atoms: C_1  and  C_2
REMARK    2  A    between atoms: C_2  and  N_3
REMARK    3  A    between atoms: N_3  and  C_4
REMARK    4  A    between atoms: C_4  and  C_5
REMARK    5  A    between atoms: C_6  and  C_8
REMARK    6  A    between atoms: C_15  and  C_16
REMARK    7  A    between atoms: C_22  and  C_23
REMARK                            x       y       z     vdW  Elec       q    Type
REMARK                         _______ _______ _______ _____ _____    ______ ____
ROOT
ATOM      1  C   UNL     1      -1.328  11.501  17.913  0.00  0.00    +0.000 C 
ATOM      2  C   UNL     1      -0.502  10.316  18.443  0.00  0.00    +0.000 C 
ATOM      3  C   UNL     1      -0.349  10.327  19.962  0.00  0.00    +0.000 C 
ATOM      4  C   UNL     1       0.307  11.623  20.429  0.00  0.00    +0.000 C 
ATOM      5  N   UNL     1      -0.487  12.729  19.931  0.00  0.00    +0.000 N 
ATOM      6  C   UNL     1      -0.858  13.690  20.854  0.00  0.00    +0.000 A 
ATOM      7  C   UNL     1      -2.156  14.136  20.914  0.00  0.00    +0.000 A 
ATOM      8  C   UNL     1      -2.529  14.860  22.033  0.00  0.00    +0.000 A 
ATOM      9  N   UNL     1      -1.662  15.291  22.967  0.00  0.00    +0.000 NA
ATOM     10  C   UNL     1      -0.405  14.879  22.773  0.00  0.00    +0.000 A 
ATOM     11  N   UNL     1       0.030  14.069  21.791  0.00  0.00    +0.000 NA
ATOM     12  C   UNL     1      -0.741  12.822  18.492  0.00  0.00    +0.000 C 
ENDROOT
BRANCH   8  13
ATOM     13  C   UNL     1      -3.933  15.185  22.193  0.00  0.00    +0.000 A 
ATOM     14  C   UNL     1      -4.600  15.660  23.359  0.00  0.00    +0.000 A 
ATOM     15  N   UNL     1      -4.391  15.032  24.565  0.00  0.00    +0.000 N 
ATOM     16  N   UNL     1      -5.818  16.040  22.969  0.00  0.00    +0.000 NA
ATOM     17  N   UNL     1      -6.139  14.976  22.204  0.00  0.00    +0.000 N 
ATOM     18  C   UNL     1      -7.274  14.212  22.423  0.00  0.00    +0.000 A 
ATOM     19  C   UNL     1      -7.182  12.889  22.268  0.00  0.00    +0.000 A 
ATOM     20  C   UNL     1      -7.916  11.976  23.186  0.00  0.00    +0.000 C 
ATOM     21  C   UNL     1      -6.025  12.428  21.438  0.00  0.00    +0.000 A 
ATOM     22  N   UNL     1      -5.003  13.156  21.087  0.00  0.00    +0.000 NA
ATOM     23  C   UNL     1      -4.971  14.399  21.671  0.00  0.00    +0.000 A 
ATOM     24  H   UNL     1      -3.431  14.712  24.687  0.00  0.00    +0.000 HD
ATOM     25  H   UNL     1      -4.928  14.162  24.602  0.00  0.00    +0.000 HD
ENDBRANCH   8  13
BRANCH   1  27
ATOM     26  N   UNL     1      -3.757  11.360  17.058  0.00  0.00    +0.000 N 
ATOM     27  C   UNL     1      -2.858  11.483  18.118  0.00  0.00    +0.000 C 
ATOM     28  O   UNL     1      -3.321  11.694  19.245  0.00  0.00    +0.000 OA
BRANCH  26  30
ATOM     29  C   UNL     1      -5.900  12.643  17.058  0.00  0.00    +0.000 C 
ATOM     30  C   UNL     1      -5.182  11.354  17.437  0.00  0.00    +0.000 C 
ENDBRANCH  26  30
BRANCH  26  31
ATOM     31  C   UNL     1      -3.366  11.195  15.658  0.00  0.00    +0.000 C 
ATOM     32  C   UNL     1      -3.072   9.789  15.156  0.00  0.00    +0.000 C 
ENDBRANCH  26  31
ENDBRANCH   1  27
TORSDOF 4
ENDMDL
