MODEL 1
REMARK VINA RESULT:      -9.4      0.000      0.000
REMARK  Name = 
REMARK  8 active torsions:
REMARK  status: ('A' for Active; 'I' for Inactive)
REMARK    1  A    between atoms: C_2  and  C_4
REMARK    2  A    between atoms: C_12  and  N_13
REMARK    3  A    between atoms: N_13  and  C_14
REMARK    4  A    between atoms: N_13  and  C_28
REMARK    5  A    between atoms: C_14  and  C_15
REMARK    6  A    between atoms: C_15  and  C_16
REMARK    7  A    between atoms: C_16  and  C_17
REMARK    8  A    between atoms: C_17  and  C_18
REMARK                            x       y       z     vdW  Elec       q    Type
REMARK                         _______ _______ _______ _____ _____    ______ ____
ROOT
ATOM      1  N   UNL     1       5.691   5.758  16.624  0.00  0.00    +0.000 NA
ENDROOT
BRANCH   1  10
ATOM      2  C   UNL     1       3.361   2.862  19.979  0.00  0.00    +0.000 A 
ATOM      3  C   UNL     1       2.259   2.695  20.854  0.00  0.00    +0.000 A 
ATOM      4  C   UNL     1       1.354   3.733  21.104  0.00  0.00    +0.000 A 
ATOM      5  C   UNL     1       1.560   4.971  20.479  0.00  0.00    +0.000 A 
ATOM      6  F   UNL     1       0.706   5.955  20.734  0.00  0.00    +0.000 F 
ATOM      7  C   UNL     1       2.628   5.157  19.600  0.00  0.00    +0.000 A 
ATOM      8  C   UNL     1       3.517   4.087  19.328  0.00  0.00    +0.000 A 
ATOM      9  C   UNL     1       4.577   4.304  18.285  0.00  0.00    +0.000 C 
ATOM     10  C   UNL     1       4.428   5.568  17.410  0.00  0.00    +0.000 C 
ATOM     11  C   UNL     1       3.993   6.670  18.399  0.00  0.00    +0.000 C 
ATOM     12  O   UNL     1       2.730   6.388  19.021  0.00  0.00    +0.000 OA
BRANCH   2  14
ATOM     13  N   UNL     1       4.202   0.843  18.850  0.00  0.00    +0.000 N 
ATOM     14  C   UNL     1       4.381   1.756  19.841  0.00  0.00    +0.000 C 
ATOM     15  O   UNL     1       5.339   1.634  20.583  0.00  0.00    +0.000 OA
ATOM     16  H   UNL     1       4.882   0.092  18.835  0.00  0.00    +0.000 HD
ATOM     17  H   UNL     1       3.330   0.691  18.375  0.00  0.00    +0.000 HD
ENDBRANCH   2  14
ENDBRANCH   1  10
BRANCH   1  18
ATOM     18  C   UNL     1       6.130   4.560  15.871  0.00  0.00    +0.000 C 
ATOM     19  C   UNL     1       5.291   4.352  14.578  0.00  0.00    +0.000 C 
ATOM     20  C   UNL     1       6.587   4.195  13.784  0.00  0.00    +0.000 C 
ATOM     21  C   UNL     1       7.297   4.959  14.910  0.00  0.00    +0.000 C 
ENDBRANCH   1  18
BRANCH   1  22
ATOM     22  C   UNL     1       6.817   6.305  17.467  0.00  0.00    +0.000 C 
BRANCH  22  23
ATOM     23  C   UNL     1       7.632   7.494  16.909  0.00  0.00    +0.000 C 
BRANCH  23  24
ATOM     24  C   UNL     1       7.625   8.787  17.772  0.00  0.00    +0.000 C 
BRANCH  24  25
ATOM     25  C   UNL     1       8.785   9.038  18.788  0.00  0.00    +0.000 C 
BRANCH  25  26
ATOM     26  C   UNL     1       9.238  10.467  18.882  0.00  0.00    +0.000 A 
ATOM     27  C   UNL     1       9.317  11.346  17.819  0.00  0.00    +0.000 A 
ATOM     28  N   UNL     1      10.298  12.224  18.202  0.00  0.00    +0.000 N 
ATOM     29  C   UNL     1      10.056  12.501  19.517  0.00  0.00    +0.000 A 
ATOM     30  C   UNL     1      10.388  13.629  20.271  0.00  0.00    +0.000 A 
ATOM     31  C   UNL     1       9.958  13.634  21.594  0.00  0.00    +0.000 A 
ATOM     32  C   UNL     1       9.312  12.522  22.125  0.00  0.00    +0.000 A 
ATOM     33  F   UNL     1       8.905  12.573  23.403  0.00  0.00    +0.000 F 
ATOM     34  C   UNL     1       9.060  11.365  21.372  0.00  0.00    +0.000 A 
ATOM     35  C   UNL     1       9.408  11.359  20.008  0.00  0.00    +0.000 A 
ATOM     36  H   UNL     1      11.213  12.263  17.785  0.00  0.00    +0.000 HD
ENDBRANCH  25  26
ENDBRANCH  24  25
ENDBRANCH  23  24
ENDBRANCH  22  23
ENDBRANCH   1  22
TORSDOF 8
ENDMDL
MODEL 2
REMARK VINA RESULT:      -9.4      1.386      1.718
REMARK  Name = 
REMARK  8 active torsions:
REMARK  status: ('A' for Active; 'I' for Inactive)
REMARK    1  A    between atoms: C_2  and  C_4
REMARK    2  A    between atoms: C_12  and  N_13
REMARK    3  A    between atoms: N_13  and  C_14
REMARK    4  A    between atoms: N_13  and  C_28
REMARK    5  A    between atoms: C_14  and  C_15
REMARK    6  A    between atoms: C_15  and  C_16
REMARK    7  A    between atoms: C_16  and  C_17
REMARK    8  A    between atoms: C_17  and  C_18
REMARK                            x       y       z     vdW  Elec       q    Type
REMARK                         _______ _______ _______ _____ _____    ______ ____
ROOT
ATOM      1  N   UNL     1       5.865   5.809  16.779  0.00  0.00    +0.000 NA
ENDROOT
BRANCH   1  10
ATOM      2  C   UNL     1       3.449   2.847  20.013  0.00  0.00    +0.000 A 
ATOM      3  C   UNL     1       2.338   2.673  20.875  0.00  0.00    +0.000 A 
ATOM      4  C   UNL     1       1.456   3.722  21.158  0.00  0.00    +0.000 A 
ATOM      5  C   UNL     1       1.693   4.977  20.580  0.00  0.00    +0.000 A 
ATOM      6  F   UNL     1       0.861   5.970  20.867  0.00  0.00    +0.000 F 
ATOM      7  C   UNL     1       2.771   5.171  19.715  0.00  0.00    +0.000 A 
ATOM      8  C   UNL     1       3.637   4.091  19.408  0.00  0.00    +0.000 A 
ATOM      9  C   UNL     1       4.708   4.322  18.379  0.00  0.00    +0.000 C 
ATOM     10  C   UNL     1       4.593   5.620  17.551  0.00  0.00    +0.000 C 
ATOM     11  C   UNL     1       4.178   6.695  18.577  0.00  0.00    +0.000 C 
ATOM     12  O   UNL     1       2.904   6.419  19.182  0.00  0.00    +0.000 OA
BRANCH   2  14
ATOM     13  N   UNL     1       4.303   0.907  18.761  0.00  0.00    +0.000 N 
ATOM     14  C   UNL     1       4.444   1.724  19.840  0.00  0.00    +0.000 C 
ATOM     15  O   UNL     1       5.349   1.505  20.625  0.00  0.00    +0.000 OA
ATOM     16  H   UNL     1       4.961   0.138  18.721  0.00  0.00    +0.000 HD
ATOM     17  H   UNL     1       3.460   0.827  18.222  0.00  0.00    +0.000 HD
ENDBRANCH   2  14
ENDBRANCH   1  10
BRANCH   1  18
ATOM     18  C   UNL     1       6.351   4.591  16.091  0.00  0.00    +0.000 C 
ATOM     19  C   UNL     1       5.291   4.025  15.102  0.00  0.00    +0.000 C 
ATOM     20  C   UNL     1       6.366   3.954  14.018  0.00  0.00    +0.000 C 
ATOM     21  C   UNL     1       7.149   5.009  14.813  0.00  0.00    +0.000 C 
ENDBRANCH   1  18
BRANCH   1  22
ATOM     22  C   UNL     1       6.959   6.426  17.615  0.00  0.00    +0.000 C 
BRANCH  22  23
ATOM     23  C   UNL     1       7.564   7.770  17.145  0.00  0.00    +0.000 C 
BRANCH  23  24
ATOM     24  C   UNL     1       8.185   8.661  18.258  0.00  0.00    +0.000 C 
BRANCH  24  25
ATOM     25  C   UNL     1       8.722  10.081  17.891  0.00  0.00    +0.000 C 
BRANCH  25  26
ATOM     26  C   UNL     1       9.211  10.888  19.061  0.00  0.00    +0.000 A 
ATOM     27  C   UNL     1       9.740  10.360  20.223  0.00  0.00    +0.000 A 
ATOM     28  N   UNL     1       9.459  11.316  21.165  0.00  0.00    +0.000 N 
ATOM     29  C   UNL     1       9.738  12.515  20.572  0.00  0.00    +0.000 A 
ATOM     30  C   UNL     1      10.102  13.735  21.146  0.00  0.00    +0.000 A 
ATOM     31  C   UNL     1      10.367  14.776  20.262  0.00  0.00    +0.000 A 
ATOM     32  C   UNL     1      10.184  14.598  18.895  0.00  0.00    +0.000 A 
ATOM     33  F   UNL     1      10.461  15.627  18.077  0.00  0.00    +0.000 F 
ATOM     34  C   UNL     1       9.738  13.388  18.345  0.00  0.00    +0.000 A 
ATOM     35  C   UNL     1       9.540  12.289  19.202  0.00  0.00    +0.000 A 
ATOM     36  H   UNL     1       8.778  11.203  21.897  0.00  0.00    +0.000 HD
ENDBRANCH  25  26
ENDBRANCH  24  25
ENDBRANCH  23  24
ENDBRANCH  22  23
ENDBRANCH   1  22
TORSDOF 8
ENDMDL
MODEL 3
REMARK VINA RESULT:      -9.2      5.865      9.086
REMARK  Name = 
REMARK  8 active torsions:
REMARK  status: ('A' for Active; 'I' for Inactive)
REMARK    1  A    between atoms: C_2  and  C_4
REMARK    2  A    between atoms: C_12  and  N_13
REMARK    3  A    between atoms: N_13  and  C_14
REMARK    4  A    between atoms: N_13  and  C_28
REMARK    5  A    between atoms: C_14  and  C_15
REMARK    6  A    between atoms: C_15  and  C_16
REMARK    7  A    between atoms: C_16  and  C_17
REMARK    8  A    between atoms: C_17  and  C_18
REMARK                            x       y       z     vdW  Elec       q    Type
REMARK                         _______ _______ _______ _____ _____    ______ ____
ROOT
ATOM      1  N   UNL     1       1.807   8.584  20.168  0.00  0.00    +0.000 NA
ENDROOT
BRANCH   1  10
ATOM      2  C   UNL     1       2.623   3.663  19.731  0.00  0.00    +0.000 A 
ATOM      3  C   UNL     1       3.249   2.615  19.013  0.00  0.00    +0.000 A 
ATOM      4  C   UNL     1       3.901   2.843  17.795  0.00  0.00    +0.000 A 
ATOM      5  C   UNL     1       3.916   4.144  17.273  0.00  0.00    +0.000 A 
ATOM      6  F   UNL     1       4.523   4.349  16.111  0.00  0.00    +0.000 F 
ATOM      7  C   UNL     1       3.321   5.199  17.968  0.00  0.00    +0.000 A 
ATOM      8  C   UNL     1       2.695   4.961  19.218  0.00  0.00    +0.000 A 
ATOM      9  C   UNL     1       2.177   6.147  19.979  0.00  0.00    +0.000 C 
ATOM     10  C   UNL     1       2.618   7.535  19.467  0.00  0.00    +0.000 C 
ATOM     11  C   UNL     1       2.525   7.425  17.931  0.00  0.00    +0.000 C 
ATOM     12  O   UNL     1       3.412   6.431  17.393  0.00  0.00    +0.000 OA
BRANCH   2  14
ATOM     13  N   UNL     1       0.520   2.990  20.818  0.00  0.00    +0.000 N 
ATOM     14  C   UNL     1       1.823   3.347  20.972  0.00  0.00    +0.000 C 
ATOM     15  O   UNL     1       2.283   3.413  22.099  0.00  0.00    +0.000 OA
ATOM     16  H   UNL     1       0.014   2.842  21.684  0.00  0.00    +0.000 HD
ATOM     17  H   UNL     1      -0.018   3.168  19.989  0.00  0.00    +0.000 HD
ENDBRANCH   2  14
ENDBRANCH   1  10
BRANCH   1  18
ATOM     18  C   UNL     1       1.081   8.099  21.365  0.00  0.00    +0.000 C 
ATOM     19  C   UNL     1       1.087   9.153  22.510  0.00  0.00    +0.000 C 
ATOM     20  C   UNL     1      -0.425   8.978  22.654  0.00  0.00    +0.000 C 
ATOM     21  C   UNL     1      -0.438   8.442  21.216  0.00  0.00    +0.000 C 
ENDBRANCH   1  18
BRANCH   1  22
ATOM     22  C   UNL     1       0.874   9.312  19.232  0.00  0.00    +0.000 C 
BRANCH  22  23
ATOM     23  C   UNL     1       1.320  10.686  18.682  0.00  0.00    +0.000 C 
BRANCH  23  24
ATOM     24  C   UNL     1       0.662  11.929  19.344  0.00  0.00    +0.000 C 
BRANCH  24  25
ATOM     25  C   UNL     1      -0.568  11.735  20.286  0.00  0.00    +0.000 C 
BRANCH  25  26
ATOM     26  C   UNL     1      -1.902  11.964  19.633  0.00  0.00    +0.000 A 
ATOM     27  C   UNL     1      -2.792  12.963  19.977  0.00  0.00    +0.000 A 
ATOM     28  N   UNL     1      -4.010  12.442  19.623  0.00  0.00    +0.000 N 
ATOM     29  C   UNL     1      -3.822  11.853  18.404  0.00  0.00    +0.000 A 
ATOM     30  C   UNL     1      -4.736  11.608  17.377  0.00  0.00    +0.000 A 
ATOM     31  C   UNL     1      -4.223  11.025  16.223  0.00  0.00    +0.000 A 
ATOM     32  C   UNL     1      -2.887  10.641  16.166  0.00  0.00    +0.000 A 
ATOM     33  F   UNL     1      -2.432  10.091  15.029  0.00  0.00    +0.000 F 
ATOM     34  C   UNL     1      -2.004  10.822  17.240  0.00  0.00    +0.000 A 
ATOM     35  C   UNL     1      -2.469  11.484  18.392  0.00  0.00    +0.000 A 
ATOM     36  H   UNL     1      -4.708  12.142  20.282  0.00  0.00    +0.000 HD
ENDBRANCH  25  26
ENDBRANCH  24  25
ENDBRANCH  23  24
ENDBRANCH  22  23
ENDBRANCH   1  22
TORSDOF 8
ENDMDL
MODEL 4
REMARK VINA RESULT:      -9.1      2.231      3.283
REMARK  Name = 
REMARK  8 active torsions:
REMARK  status: ('A' for Active; 'I' for Inactive)
REMARK    1  A    between atoms: C_2  and  C_4
REMARK    2  A    between atoms: C_12  and  N_13
REMARK    3  A    between atoms: N_13  and  C_14
REMARK    4  A    between atoms: N_13  and  C_28
REMARK    5  A    between atoms: C_14  and  C_15
REMARK    6  A    between atoms: C_15  and  C_16
REMARK    7  A    between atoms: C_16  and  C_17
REMARK    8  A    between atoms: C_17  and  C_18
REMARK                            x       y       z     vdW  Elec       q    Type
REMARK                         _______ _______ _______ _____ _____    ______ ____
ROOT
ATOM      1  N   UNL     1       5.985   5.126  16.590  0.00  0.00    +0.000 NA
ENDROOT
BRANCH   1  10
ATOM      2  C   UNL     1       2.180   5.715  19.791  0.00  0.00    +0.000 A 
ATOM      3  C   UNL     1       1.249   5.103  20.667  0.00  0.00    +0.000 A 
ATOM      4  C   UNL     1       1.110   3.713  20.738  0.00  0.00    +0.000 A 
ATOM      5  C   UNL     1       1.905   2.912  19.906  0.00  0.00    +0.000 A 
ATOM      6  F   UNL     1       1.755   1.595  19.969  0.00  0.00    +0.000 F 
ATOM      7  C   UNL     1       2.841   3.488  19.045  0.00  0.00    +0.000 A 
ATOM      8  C   UNL     1       2.998   4.897  19.008  0.00  0.00    +0.000 A 
ATOM      9  C   UNL     1       4.100   5.457  18.155  0.00  0.00    +0.000 C 
ATOM     10  C   UNL     1       5.133   4.443  17.618  0.00  0.00    +0.000 C 
ATOM     11  C   UNL     1       4.288   3.223  17.194  0.00  0.00    +0.000 C 
ATOM     12  O   UNL     1       3.586   2.627  18.296  0.00  0.00    +0.000 OA
BRANCH   2  14
ATOM     13  N   UNL     1       2.007   7.963  20.777  0.00  0.00    +0.000 N 
ATOM     14  C   UNL     1       2.204   7.219  19.656  0.00  0.00    +0.000 C 
ATOM     15  O   UNL     1       2.372   7.793  18.595  0.00  0.00    +0.000 OA
ATOM     16  H   UNL     1       1.978   8.964  20.624  0.00  0.00    +0.000 HD
ATOM     17  H   UNL     1       1.597   7.609  21.623  0.00  0.00    +0.000 HD
ENDBRANCH   2  14
ENDBRANCH   1  10
BRANCH   1  18
ATOM     18  C   UNL     1       6.514   4.228  15.537  0.00  0.00    +0.000 C 
ATOM     19  C   UNL     1       5.494   4.035  14.377  0.00  0.00    +0.000 C 
ATOM     20  C   UNL     1       6.603   4.354  13.374  0.00  0.00    +0.000 C 
ATOM     21  C   UNL     1       7.342   5.071  14.513  0.00  0.00    +0.000 C 
ENDBRANCH   1  18
BRANCH   1  22
ATOM     22  C   UNL     1       7.095   5.938  17.210  0.00  0.00    +0.000 C 
BRANCH  22  23
ATOM     23  C   UNL     1       7.117   7.462  16.947  0.00  0.00    +0.000 C 
BRANCH  23  24
ATOM     24  C   UNL     1       7.991   8.306  17.916  0.00  0.00    +0.000 C 
BRANCH  24  25
ATOM     25  C   UNL     1       8.265   9.809  17.589  0.00  0.00    +0.000 C 
BRANCH  25  26
ATOM     26  C   UNL     1       9.110  10.528  18.603  0.00  0.00    +0.000 A 
ATOM     27  C   UNL     1       9.408  10.054  19.866  0.00  0.00    +0.000 A 
ATOM     28  N   UNL     1       9.616  11.196  20.595  0.00  0.00    +0.000 N 
ATOM     29  C   UNL     1      10.362  12.016  19.797  0.00  0.00    +0.000 A 
ATOM     30  C   UNL     1      11.248  13.039  20.142  0.00  0.00    +0.000 A 
ATOM     31  C   UNL     1      11.901  13.670  19.088  0.00  0.00    +0.000 A 
ATOM     32  C   UNL     1      11.596  13.333  17.773  0.00  0.00    +0.000 A 
ATOM     33  F   UNL     1      12.257  13.960  16.787  0.00  0.00    +0.000 F 
ATOM     34  C   UNL     1      10.642  12.359  17.446  0.00  0.00    +0.000 A 
ATOM     35  C   UNL     1      10.024  11.643  18.488  0.00  0.00    +0.000 A 
ATOM     36  H   UNL     1       8.988  11.534  21.305  0.00  0.00    +0.000 HD
ENDBRANCH  25  26
ENDBRANCH  24  25
ENDBRANCH  23  24
ENDBRANCH  22  23
ENDBRANCH   1  22
TORSDOF 8
ENDMDL
MODEL 5
REMARK VINA RESULT:      -8.9      5.961      8.686
REMARK  Name = 
REMARK  8 active torsions:
REMARK  status: ('A' for Active; 'I' for Inactive)
REMARK    1  A    between atoms: C_2  and  C_4
REMARK    2  A    between atoms: C_12  and  N_13
REMARK    3  A    between atoms: N_13  and  C_14
REMARK    4  A    between atoms: N_13  and  C_28
REMARK    5  A    between atoms: C_14  and  C_15
REMARK    6  A    between atoms: C_15  and  C_16
REMARK    7  A    between atoms: C_16  and  C_17
REMARK    8  A    between atoms: C_17  and  C_18
REMARK                            x       y       z     vdW  Elec       q    Type
REMARK                         _______ _______ _______ _____ _____    ______ ____
ROOT
ATOM      1  N   UNL     1       1.826   8.540  20.074  0.00  0.00    +0.000 NA
ENDROOT
BRANCH   1  10
ATOM      2  C   UNL     1       2.648   3.614  19.703  0.00  0.00    +0.000 A 
ATOM      3  C   UNL     1       3.279   2.557  19.002  0.00  0.00    +0.000 A 
ATOM      4  C   UNL     1       3.938   2.771  17.786  0.00  0.00    +0.000 A 
ATOM      5  C   UNL     1       3.956   4.065  17.248  0.00  0.00    +0.000 A 
ATOM      6  F   UNL     1       4.570   4.256  16.086  0.00  0.00    +0.000 F 
ATOM      7  C   UNL     1       3.356   5.128  17.926  0.00  0.00    +0.000 A 
ATOM      8  C   UNL     1       2.722   4.905  19.174  0.00  0.00    +0.000 A 
ATOM      9  C   UNL     1       2.199   6.101  19.917  0.00  0.00    +0.000 C 
ATOM     10  C   UNL     1       2.642   7.483  19.391  0.00  0.00    +0.000 C 
ATOM     11  C   UNL     1       2.558   7.353  17.856  0.00  0.00    +0.000 C 
ATOM     12  O   UNL     1       3.449   6.353  17.335  0.00  0.00    +0.000 OA
BRANCH   2  14
ATOM     13  N   UNL     1       0.516   3.044  20.793  0.00  0.00    +0.000 N 
ATOM     14  C   UNL     1       1.841   3.313  20.943  0.00  0.00    +0.000 C 
ATOM     15  O   UNL     1       2.313   3.317  22.066  0.00  0.00    +0.000 OA
ATOM     16  H   UNL     1       0.009   2.903  21.659  0.00  0.00    +0.000 HD
ATOM     17  H   UNL     1      -0.017   3.279  19.975  0.00  0.00    +0.000 HD
ENDBRANCH   2  14
ENDBRANCH   1  10
BRANCH   1  18
ATOM     18  C   UNL     1       1.182   8.099  21.333  0.00  0.00    +0.000 C 
ATOM     19  C   UNL     1       1.377   9.138  22.475  0.00  0.00    +0.000 C 
ATOM     20  C   UNL     1      -0.124   9.075  22.762  0.00  0.00    +0.000 C 
ATOM     21  C   UNL     1      -0.313   8.556  21.330  0.00  0.00    +0.000 C 
ENDBRANCH   1  18
BRANCH   1  22
ATOM     22  C   UNL     1       0.818   9.176  19.149  0.00  0.00    +0.000 C 
BRANCH  22  23
ATOM     23  C   UNL     1       1.251  10.425  18.347  0.00  0.00    +0.000 C 
BRANCH  23  24
ATOM     24  C   UNL     1       1.104  11.788  19.081  0.00  0.00    +0.000 C 
BRANCH  24  25
ATOM     25  C   UNL     1       0.332  11.849  20.437  0.00  0.00    +0.000 C 
BRANCH  25  26
ATOM     26  C   UNL     1      -1.141  12.117  20.310  0.00  0.00    +0.000 A 
ATOM     27  C   UNL     1      -1.893  11.892  19.172  0.00  0.00    +0.000 A 
ATOM     28  N   UNL     1      -2.915  12.799  19.280  0.00  0.00    +0.000 N 
ATOM     29  C   UNL     1      -3.315  12.755  20.585  0.00  0.00    +0.000 A 
ATOM     30  C   UNL     1      -4.554  13.059  21.154  0.00  0.00    +0.000 A 
ATOM     31  C   UNL     1      -4.665  12.869  22.527  0.00  0.00    +0.000 A 
ATOM     32  C   UNL     1      -3.556  12.479  23.272  0.00  0.00    +0.000 A 
ATOM     33  F   UNL     1      -3.710  12.297  24.593  0.00  0.00    +0.000 F 
ATOM     34  C   UNL     1      -2.298  12.257  22.693  0.00  0.00    +0.000 A 
ATOM     35  C   UNL     1      -2.172  12.360  21.295  0.00  0.00    +0.000 A 
ATOM     36  H   UNL     1      -3.009  13.614  18.698  0.00  0.00    +0.000 HD
ENDBRANCH  25  26
ENDBRANCH  24  25
ENDBRANCH  23  24
ENDBRANCH  22  23
ENDBRANCH   1  22
TORSDOF 8
ENDMDL
MODEL 6
REMARK VINA RESULT:      -8.8      4.446      7.913
REMARK  Name = 
REMARK  8 active torsions:
REMARK  status: ('A' for Active; 'I' for Inactive)
REMARK    1  A    between atoms: C_2  and  C_4
REMARK    2  A    between atoms: C_12  and  N_13
REMARK    3  A    between atoms: N_13  and  C_14
REMARK    4  A    between atoms: N_13  and  C_28
REMARK    5  A    between atoms: C_14  and  C_15
REMARK    6  A    between atoms: C_15  and  C_16
REMARK    7  A    between atoms: C_16  and  C_17
REMARK    8  A    between atoms: C_17  and  C_18
REMARK                            x       y       z     vdW  Elec       q    Type
REMARK                         _______ _______ _______ _____ _____    ______ ____
ROOT
ATOM      1  N   UNL     1       2.964   4.822  19.286  0.00  0.00    +0.000 NA
ENDROOT
BRANCH   1  10
ATOM      2  C   UNL     1       6.977   5.941  16.507  0.00  0.00    +0.000 A 
ATOM      3  C   UNL     1       7.656   5.790  15.273  0.00  0.00    +0.000 A 
ATOM      4  C   UNL     1       7.215   4.890  14.296  0.00  0.00    +0.000 A 
ATOM      5  C   UNL     1       6.080   4.111  14.560  0.00  0.00    +0.000 A 
ATOM      6  F   UNL     1       5.679   3.249  13.635  0.00  0.00    +0.000 F 
ATOM      7  C   UNL     1       5.383   4.251  15.762  0.00  0.00    +0.000 A 
ATOM      8  C   UNL     1       5.819   5.192  16.729  0.00  0.00    +0.000 A 
ATOM      9  C   UNL     1       4.966   5.388  17.950  0.00  0.00    +0.000 C 
ATOM     10  C   UNL     1       3.558   4.756  17.910  0.00  0.00    +0.000 C 
ATOM     11  C   UNL     1       3.776   3.374  17.259  0.00  0.00    +0.000 C 
ATOM     12  O   UNL     1       4.277   3.469  15.916  0.00  0.00    +0.000 OA
BRANCH   2  14
ATOM     13  N   UNL     1       7.624   8.165  17.338  0.00  0.00    +0.000 N 
ATOM     14  C   UNL     1       7.563   6.829  17.580  0.00  0.00    +0.000 C 
ATOM     15  O   UNL     1       7.997   6.405  18.636  0.00  0.00    +0.000 OA
ATOM     16  H   UNL     1       8.075   8.709  18.064  0.00  0.00    +0.000 HD
ATOM     17  H   UNL     1       7.555   8.576  16.424  0.00  0.00    +0.000 HD
ENDBRANCH   2  14
ENDBRANCH   1  10
BRANCH   1  18
ATOM     18  C   UNL     1       2.148   3.643  19.659  0.00  0.00    +0.000 C 
ATOM     19  C   UNL     1       2.752   2.886  20.877  0.00  0.00    +0.000 C 
ATOM     20  C   UNL     1       1.377   2.899  21.543  0.00  0.00    +0.000 C 
ATOM     21  C   UNL     1       1.022   4.092  20.646  0.00  0.00    +0.000 C 
ENDBRANCH   1  18
BRANCH   1  22
ATOM     22  C   UNL     1       2.199   6.101  19.522  0.00  0.00    +0.000 C 
BRANCH  22  23
ATOM     23  C   UNL     1       2.321   7.227  18.470  0.00  0.00    +0.000 C 
BRANCH  23  24
ATOM     24  C   UNL     1       1.868   8.641  18.933  0.00  0.00    +0.000 C 
BRANCH  24  25
ATOM     25  C   UNL     1       0.740   9.380  18.145  0.00  0.00    +0.000 C 
BRANCH  25  26
ATOM     26  C   UNL     1      -0.147  10.252  18.989  0.00  0.00    +0.000 A 
ATOM     27  C   UNL     1      -1.254  10.938  18.528  0.00  0.00    +0.000 A 
ATOM     28  N   UNL     1      -1.348  12.004  19.384  0.00  0.00    +0.000 N 
ATOM     29  C   UNL     1      -1.120  11.500  20.633  0.00  0.00    +0.000 A 
ATOM     30  C   UNL     1      -1.544  11.965  21.880  0.00  0.00    +0.000 A 
ATOM     31  C   UNL     1      -1.183  11.196  22.980  0.00  0.00    +0.000 A 
ATOM     32  C   UNL     1      -0.369  10.079  22.818  0.00  0.00    +0.000 A 
ATOM     33  F   UNL     1      -0.051   9.360  23.906  0.00  0.00    +0.000 F 
ATOM     34  C   UNL     1       0.115   9.675  21.565  0.00  0.00    +0.000 A 
ATOM     35  C   UNL     1      -0.300  10.382  20.421  0.00  0.00    +0.000 A 
ATOM     36  H   UNL     1      -1.147  12.956  19.125  0.00  0.00    +0.000 HD
ENDBRANCH  25  26
ENDBRANCH  24  25
ENDBRANCH  23  24
ENDBRANCH  22  23
ENDBRANCH   1  22
TORSDOF 8
ENDMDL
MODEL 7
REMARK VINA RESULT:      -8.8      4.771      8.312
REMARK  Name = 
REMARK  8 active torsions:
REMARK  status: ('A' for Active; 'I' for Inactive)
REMARK    1  A    between atoms: C_2  and  C_4
REMARK    2  A    between atoms: C_12  and  N_13
REMARK    3  A    between atoms: N_13  and  C_14
REMARK    4  A    between atoms: N_13  and  C_28
REMARK    5  A    between atoms: C_14  and  C_15
REMARK    6  A    between atoms: C_15  and  C_16
REMARK    7  A    between atoms: C_16  and  C_17
REMARK    8  A    between atoms: C_17  and  C_18
REMARK                            x       y       z     vdW  Elec       q    Type
REMARK                         _______ _______ _______ _____ _____    ______ ____
ROOT
ATOM      1  N   UNL     1       3.058   4.454  19.875  0.00  0.00    +0.000 NA
ENDROOT
BRANCH   1  10
ATOM      2  C   UNL     1       7.085   5.643  17.147  0.00  0.00    +0.000 A 
ATOM      3  C   UNL     1       7.716   5.631  15.879  0.00  0.00    +0.000 A 
ATOM      4  C   UNL     1       7.170   4.937  14.792  0.00  0.00    +0.000 A 
ATOM      5  C   UNL     1       5.975   4.227  14.978  0.00  0.00    +0.000 A 
ATOM      6  F   UNL     1       5.473   3.560  13.946  0.00  0.00    +0.000 F 
ATOM      7  C   UNL     1       5.325   4.236  16.213  0.00  0.00    +0.000 A 
ATOM      8  C   UNL     1       5.869   4.972  17.296  0.00  0.00    +0.000 A 
ATOM      9  C   UNL     1       5.069   5.047  18.565  0.00  0.00    +0.000 C 
ATOM     10  C   UNL     1       3.608   4.554  18.483  0.00  0.00    +0.000 C 
ATOM     11  C   UNL     1       3.682   3.278  17.618  0.00  0.00    +0.000 C 
ATOM     12  O   UNL     1       4.156   3.539  16.287  0.00  0.00    +0.000 OA
BRANCH   2  14
ATOM     13  N   UNL     1       8.087   5.520  19.392  0.00  0.00    +0.000 N 
ATOM     14  C   UNL     1       7.776   6.297  18.320  0.00  0.00    +0.000 C 
ATOM     15  O   UNL     1       8.050   7.483  18.359  0.00  0.00    +0.000 OA
ATOM     16  H   UNL     1       8.499   6.017  20.173  0.00  0.00    +0.000 HD
ATOM     17  H   UNL     1       7.673   4.624  19.577  0.00  0.00    +0.000 HD
ENDBRANCH   2  14
ENDBRANCH   1  10
BRANCH   1  18
ATOM     18  C   UNL     1       2.403   3.161  20.183  0.00  0.00    +0.000 C 
ATOM     19  C   UNL     1       2.707   2.694  21.636  0.00  0.00    +0.000 C 
ATOM     20  C   UNL     1       1.212   2.453  21.852  0.00  0.00    +0.000 C 
ATOM     21  C   UNL     1       0.952   3.433  20.699  0.00  0.00    +0.000 C 
ENDBRANCH   1  18
BRANCH   1  22
ATOM     22  C   UNL     1       2.152   5.610  20.220  0.00  0.00    +0.000 C 
BRANCH  22  23
ATOM     23  C   UNL     1       1.653   6.514  19.069  0.00  0.00    +0.000 C 
BRANCH  23  24
ATOM     24  C   UNL     1       2.161   7.983  19.089  0.00  0.00    +0.000 C 
BRANCH  24  25
ATOM     25  C   UNL     1       1.668   8.979  17.992  0.00  0.00    +0.000 C 
BRANCH  25  26
ATOM     26  C   UNL     1       0.729  10.042  18.485  0.00  0.00    +0.000 A 
ATOM     27  C   UNL     1       1.112  11.203  19.129  0.00  0.00    +0.000 A 
ATOM     28  N   UNL     1       0.024  11.514  19.902  0.00  0.00    +0.000 N 
ATOM     29  C   UNL     1      -1.068  11.304  19.109  0.00  0.00    +0.000 A 
ATOM     30  C   UNL     1      -2.339  11.880  19.162  0.00  0.00    +0.000 A 
ATOM     31  C   UNL     1      -3.235  11.488  18.174  0.00  0.00    +0.000 A 
ATOM     32  C   UNL     1      -2.878  10.508  17.252  0.00  0.00    +0.000 A 
ATOM     33  F   UNL     1      -3.770  10.167  16.309  0.00  0.00    +0.000 F 
ATOM     34  C   UNL     1      -1.623   9.882  17.266  0.00  0.00    +0.000 A 
ATOM     35  C   UNL     1      -0.663  10.315  18.201  0.00  0.00    +0.000 A 
ATOM     36  H   UNL     1       0.004  11.438  20.905  0.00  0.00    +0.000 HD
ENDBRANCH  25  26
ENDBRANCH  24  25
ENDBRANCH  23  24
ENDBRANCH  22  23
ENDBRANCH   1  22
TORSDOF 8
ENDMDL
MODEL 8
REMARK VINA RESULT:      -8.8      5.538      8.959
REMARK  Name = 
REMARK  8 active torsions:
REMARK  status: ('A' for Active; 'I' for Inactive)
REMARK    1  A    between atoms: C_2  and  C_4
REMARK    2  A    between atoms: C_12  and  N_13
REMARK    3  A    between atoms: N_13  and  C_14
REMARK    4  A    between atoms: N_13  and  C_28
REMARK    5  A    between atoms: C_14  and  C_15
REMARK    6  A    between atoms: C_15  and  C_16
REMARK    7  A    between atoms: C_16  and  C_17
REMARK    8  A    between atoms: C_17  and  C_18
REMARK                            x       y       z     vdW  Elec       q    Type
REMARK                         _______ _______ _______ _____ _____    ______ ____
ROOT
ATOM      1  N   UNL     1       1.724   8.097  20.182  0.00  0.00    +0.000 NA
ENDROOT
BRANCH   1  10
ATOM      2  C   UNL     1       4.526   5.227  17.185  0.00  0.00    +0.000 A 
ATOM      3  C   UNL     1       4.787   3.932  16.671  0.00  0.00    +0.000 A 
ATOM      4  C   UNL     1       4.140   2.797  17.173  0.00  0.00    +0.000 A 
ATOM      5  C   UNL     1       3.222   2.953  18.221  0.00  0.00    +0.000 A 
ATOM      6  F   UNL     1       2.624   1.870  18.701  0.00  0.00    +0.000 F 
ATOM      7  C   UNL     1       2.935   4.219  18.735  0.00  0.00    +0.000 A 
ATOM      8  C   UNL     1       3.570   5.365  18.194  0.00  0.00    +0.000 A 
ATOM      9  C   UNL     1       3.137   6.711  18.700  0.00  0.00    +0.000 C 
ATOM     10  C   UNL     1       1.851   6.740  19.554  0.00  0.00    +0.000 C 
ATOM     11  C   UNL     1       1.972   5.505  20.471  0.00  0.00    +0.000 C 
ATOM     12  O   UNL     1       2.009   4.272  19.734  0.00  0.00    +0.000 OA
BRANCH   2  14
ATOM     13  N   UNL     1       5.119   6.857  15.439  0.00  0.00    +0.000 N 
ATOM     14  C   UNL     1       5.342   6.402  16.701  0.00  0.00    +0.000 C 
ATOM     15  O   UNL     1       6.197   6.946  17.376  0.00  0.00    +0.000 OA
ATOM     16  H   UNL     1       5.729   7.610  15.144  0.00  0.00    +0.000 HD
ATOM     17  H   UNL     1       4.653   6.328  14.724  0.00  0.00    +0.000 HD
ENDBRANCH   2  14
ENDBRANCH   1  10
BRANCH   1  18
ATOM     18  C   UNL     1       1.161   8.088  21.552  0.00  0.00    +0.000 C 
ATOM     19  C   UNL     1       1.516   9.388  22.330  0.00  0.00    +0.000 C 
ATOM     20  C   UNL     1       0.045   9.537  22.716  0.00  0.00    +0.000 C 
ATOM     21  C   UNL     1      -0.297   8.651  21.510  0.00  0.00    +0.000 C 
ENDBRANCH   1  18
BRANCH   1  22
ATOM     22  C   UNL     1       0.978   9.070  19.302  0.00  0.00    +0.000 C 
BRANCH  22  23
ATOM     23  C   UNL     1       1.796  10.143  18.546  0.00  0.00    +0.000 C 
BRANCH  23  24
ATOM     24  C   UNL     1       1.339  11.615  18.750  0.00  0.00    +0.000 C 
BRANCH  24  25
ATOM     25  C   UNL     1       0.395  11.965  19.944  0.00  0.00    +0.000 C 
BRANCH  25  26
ATOM     26  C   UNL     1      -1.044  12.171  19.567  0.00  0.00    +0.000 A 
ATOM     27  C   UNL     1      -1.783  13.306  19.845  0.00  0.00    +0.000 A 
ATOM     28  N   UNL     1      -3.071  12.842  19.907  0.00  0.00    +0.000 N 
ATOM     29  C   UNL     1      -3.206  11.976  18.859  0.00  0.00    +0.000 A 
ATOM     30  C   UNL     1      -4.348  11.595  18.152  0.00  0.00    +0.000 A 
ATOM     31  C   UNL     1      -4.152  10.717  17.091  0.00  0.00    +0.000 A 
ATOM     32  C   UNL     1      -2.886  10.200  16.835  0.00  0.00    +0.000 A 
ATOM     33  F   UNL     1      -2.740   9.363  15.796  0.00  0.00    +0.000 F 
ATOM     34  C   UNL     1      -1.765  10.531  17.610  0.00  0.00    +0.000 A 
ATOM     35  C   UNL     1      -1.912  11.481  18.638  0.00  0.00    +0.000 A 
ATOM     36  H   UNL     1      -3.604  12.771  20.758  0.00  0.00    +0.000 HD
ENDBRANCH  25  26
ENDBRANCH  24  25
ENDBRANCH  23  24
ENDBRANCH  22  23
ENDBRANCH   1  22
TORSDOF 8
ENDMDL
MODEL 9
REMARK VINA RESULT:      -8.8      1.663      2.088
REMARK  Name = 
REMARK  8 active torsions:
REMARK  status: ('A' for Active; 'I' for Inactive)
REMARK    1  A    between atoms: C_2  and  C_4
REMARK    2  A    between atoms: C_12  and  N_13
REMARK    3  A    between atoms: N_13  and  C_14
REMARK    4  A    between atoms: N_13  and  C_28
REMARK    5  A    between atoms: C_14  and  C_15
REMARK    6  A    between atoms: C_15  and  C_16
REMARK    7  A    between atoms: C_16  and  C_17
REMARK    8  A    between atoms: C_17  and  C_18
REMARK                            x       y       z     vdW  Elec       q    Type
REMARK                         _______ _______ _______ _____ _____    ______ ____
ROOT
ATOM      1  N   UNL     1       5.638   6.212  16.595  0.00  0.00    +0.000 NA
ENDROOT
BRANCH   1  10
ATOM      2  C   UNL     1       3.170   3.053  19.595  0.00  0.00    +0.000 A 
ATOM      3  C   UNL     1       2.080   2.846  20.476  0.00  0.00    +0.000 A 
ATOM      4  C   UNL     1       1.266   3.903  20.900  0.00  0.00    +0.000 A 
ATOM      5  C   UNL     1       1.553   5.198  20.446  0.00  0.00    +0.000 A 
ATOM      6  F   UNL     1       0.785   6.196  20.864  0.00  0.00    +0.000 F 
ATOM      7  C   UNL     1       2.611   5.427  19.564  0.00  0.00    +0.000 A 
ATOM      8  C   UNL     1       3.406   4.343  19.115  0.00  0.00    +0.000 A 
ATOM      9  C   UNL     1       4.454   4.626  18.076  0.00  0.00    +0.000 C 
ATOM     10  C   UNL     1       4.383   6.007  17.391  0.00  0.00    +0.000 C 
ATOM     11  C   UNL     1       4.060   6.988  18.538  0.00  0.00    +0.000 C 
ATOM     12  O   UNL     1       2.794   6.715  19.159  0.00  0.00    +0.000 OA
BRANCH   2  14
ATOM     13  N   UNL     1       5.201   1.737  20.045  0.00  0.00    +0.000 N 
ATOM     14  C   UNL     1       4.097   1.905  19.270  0.00  0.00    +0.000 C 
ATOM     15  O   UNL     1       3.912   1.139  18.340  0.00  0.00    +0.000 OA
ATOM     16  H   UNL     1       5.818   0.988  19.751  0.00  0.00    +0.000 HD
ATOM     17  H   UNL     1       5.585   2.449  20.640  0.00  0.00    +0.000 HD
ENDBRANCH   2  14
ENDBRANCH   1  10
BRANCH   1  18
ATOM     18  C   UNL     1       5.598   5.638  15.230  0.00  0.00    +0.000 C 
ATOM     19  C   UNL     1       6.989   5.094  14.792  0.00  0.00    +0.000 C 
ATOM     20  C   UNL     1       6.323   3.784  14.369  0.00  0.00    +0.000 C 
ATOM     21  C   UNL     1       5.169   4.137  15.318  0.00  0.00    +0.000 C 
ENDBRANCH   1  18
BRANCH   1  22
ATOM     22  C   UNL     1       6.870   5.753  17.334  0.00  0.00    +0.000 C 
BRANCH  22  23
ATOM     23  C   UNL     1       7.677   6.805  18.129  0.00  0.00    +0.000 C 
BRANCH  23  24
ATOM     24  C   UNL     1       7.356   8.292  17.808  0.00  0.00    +0.000 C 
BRANCH  24  25
ATOM     25  C   UNL     1       8.510   9.248  17.369  0.00  0.00    +0.000 C 
BRANCH  25  26
ATOM     26  C   UNL     1       8.987  10.190  18.437  0.00  0.00    +0.000 A 
ATOM     27  C   UNL     1       9.317   9.824  19.728  0.00  0.00    +0.000 A 
ATOM     28  N   UNL     1       9.079  10.962  20.454  0.00  0.00    +0.000 N 
ATOM     29  C   UNL     1       9.581  11.991  19.708  0.00  0.00    +0.000 A 
ATOM     30  C   UNL     1      10.053  13.242  20.109  0.00  0.00    +0.000 A 
ATOM     31  C   UNL     1      10.549  14.065  19.104  0.00  0.00    +0.000 A 
ATOM     32  C   UNL     1      10.482  13.664  17.774  0.00  0.00    +0.000 A 
ATOM     33  F   UNL     1      10.981  14.484  16.836  0.00  0.00    +0.000 F 
ATOM     34  C   UNL     1       9.928  12.435  17.383  0.00  0.00    +0.000 A 
ATOM     35  C   UNL     1       9.493  11.544  18.382  0.00  0.00    +0.000 A 
ATOM     36  H   UNL     1       8.318  11.068  21.104  0.00  0.00    +0.000 HD
ENDBRANCH  25  26
ENDBRANCH  24  25
ENDBRANCH  23  24
ENDBRANCH  22  23
ENDBRANCH   1  22
TORSDOF 8
ENDMDL
