MODEL 1
REMARK VINA RESULT:      -8.2      0.000      0.000
REMARK  Name = 
REMARK  7 active torsions:
REMARK  status: ('A' for Active; 'I' for Inactive)
REMARK    1  A    between atoms: C_1  and  C_2
REMARK    2  A    between atoms: C_11  and  O_12
REMARK    3  A    between atoms: O_12  and  C_13
REMARK    4  A    between atoms: C_13  and  C_15
REMARK    5  A    between atoms: C_24  and  C_25
REMARK    6  A    between atoms: C_28  and  C_29
REMARK    7  A    between atoms: C_31  and  N_32
REMARK                            x       y       z     vdW  Elec       q    Type
REMARK                         _______ _______ _______ _____ _____    ______ ____
ROOT
ATOM      1  C   UNL     1      -0.529  12.892  18.481  0.00  0.00    +0.000 C 
ATOM      2  C   UNL     1       0.833  13.066  19.191  0.00  0.00    +0.000 C 
ATOM      3  C   UNL     1       2.007  12.761  18.242  0.00  0.00    +0.000 C 
ATOM      4  C   UNL     1       2.035  11.280  17.817  0.00  0.00    +0.000 C 
ATOM      5  C   UNL     1       1.982  10.272  18.998  0.00  0.00    +0.000 C 
ATOM      6  C   UNL     1       0.883  10.634  20.043  0.00  0.00    +0.000 C 
ATOM      7  C   UNL     1       1.015   9.741  21.285  0.00  0.00    +0.000 C 
ATOM      8  C   UNL     1       1.315   8.308  20.970  0.00  0.00    +0.000 C 
ATOM      9  C   UNL     1       1.701   7.844  19.768  0.00  0.00    +0.000 C 
ATOM     10  C   UNL     1       1.967   6.362  19.576  0.00  0.00    +0.000 C 
ATOM     11  C   UNL     1       3.333   6.095  18.936  0.00  0.00    +0.000 C 
ATOM     12  C   UNL     1       3.456   6.882  17.628  0.00  0.00    +0.000 C 
ATOM     13  C   UNL     1       3.250   8.381  17.854  0.00  0.00    +0.000 C 
ATOM     14  C   UNL     1       1.907   8.755  18.552  0.00  0.00    +0.000 C 
ATOM     15  C   UNL     1       0.735   8.515  17.572  0.00  0.00    +0.000 C 
ATOM     16  C   UNL     1       1.031  12.118  20.405  0.00  0.00    +0.000 C 
ATOM     17  C   UNL     1       0.190  12.734  21.515  0.00  0.00    +0.000 C 
ATOM     18  C   UNL     1       0.437  14.192  21.217  0.00  0.00    +0.000 C 
ATOM     19  C   UNL     1       0.841  14.401  19.942  0.00  0.00    +0.000 C 
ENDROOT
BRANCH  19  20
ATOM     20  N   UNL     1       1.254  15.600  19.346  0.00  0.00    +0.000 N 
ATOM     21  C   UNL     1       0.484  16.485  18.614  0.00  0.00    +0.000 A 
ATOM     22  C   UNL     1       1.305  17.529  18.264  0.00  0.00    +0.000 A 
ATOM     23  N   UNL     1       2.565  17.328  18.740  0.00  0.00    +0.000 NA
ATOM     24  C   UNL     1       2.504  16.188  19.390  0.00  0.00    +0.000 A 
ENDBRANCH  19  20
BRANCH  18  25
ATOM     25  C   UNL     1       0.191  15.198  22.269  0.00  0.00    +0.000 C 
ATOM     26  O   UNL     1       1.053  15.526  23.072  0.00  0.00    +0.000 OA
ENDBRANCH  18  25
BRANCH  11  27
ATOM     27  O   UNL     1       3.473   4.692  18.617  0.00  0.00    +0.000 OA
BRANCH  27  28
ATOM     28  C   UNL     1       4.729   4.184  18.709  0.00  0.00    +0.000 C 
ATOM     29  O   UNL     1       5.207   3.632  19.687  0.00  0.00    +0.000 OA
BRANCH  28  30
ATOM     30  C   UNL     1       5.482   4.386  17.438  0.00  0.00    +0.000 A 
ATOM     31  C   UNL     1       4.869   4.005  16.231  0.00  0.00    +0.000 A 
ATOM     32  C   UNL     1       5.537   4.173  15.013  0.00  0.00    +0.000 A 
ATOM     33  C   UNL     1       6.814   4.722  15.005  0.00  0.00    +0.000 A 
ATOM     34  F   UNL     1       7.456   4.881  13.841  0.00  0.00    +0.000 F 
ATOM     35  C   UNL     1       7.435   5.108  16.188  0.00  0.00    +0.000 A 
ATOM     36  C   UNL     1       6.771   4.941  17.407  0.00  0.00    +0.000 A 
ENDBRANCH  28  30
ENDBRANCH  27  28
ENDBRANCH  11  27
TORSDOF 5
ENDMDL
MODEL 2
REMARK VINA RESULT:      -8.0      4.791      6.414
REMARK  Name = 
REMARK  7 active torsions:
REMARK  status: ('A' for Active; 'I' for Inactive)
REMARK    1  A    between atoms: C_1  and  C_2
REMARK    2  A    between atoms: C_11  and  O_12
REMARK    3  A    between atoms: O_12  and  C_13
REMARK    4  A    between atoms: C_13  and  C_15
REMARK    5  A    between atoms: C_24  and  C_25
REMARK    6  A    between atoms: C_28  and  C_29
REMARK    7  A    between atoms: C_31  and  N_32
REMARK                            x       y       z     vdW  Elec       q    Type
REMARK                         _______ _______ _______ _____ _____    ______ ____
ROOT
ATOM      1  C   UNL     1      -3.392  14.707  21.056  0.00  0.00    +0.000 C 
ATOM      2  C   UNL     1      -4.164  13.386  21.277  0.00  0.00    +0.000 C 
ATOM      3  C   UNL     1      -3.611  12.605  22.485  0.00  0.00    +0.000 C 
ATOM      4  C   UNL     1      -2.170  12.118  22.246  0.00  0.00    +0.000 C 
ATOM      5  C   UNL     1      -1.968  11.332  20.921  0.00  0.00    +0.000 C 
ATOM      6  C   UNL     1      -2.632  12.039  19.701  0.00  0.00    +0.000 C 
ATOM      7  C   UNL     1      -2.592  11.124  18.469  0.00  0.00    +0.000 C 
ATOM      8  C   UNL     1      -1.298  10.389  18.303  0.00  0.00    +0.000 C 
ATOM      9  C   UNL     1      -0.337  10.293  19.240  0.00  0.00    +0.000 C 
ATOM     10  C   UNL     1       0.937   9.524  18.945  0.00  0.00    +0.000 C 
ATOM     11  C   UNL     1       1.257   8.489  20.028  0.00  0.00    +0.000 C 
ATOM     12  C   UNL     1       1.293   9.169  21.400  0.00  0.00    +0.000 C 
ATOM     13  C   UNL     1      -0.024   9.884  21.707  0.00  0.00    +0.000 C 
ATOM     14  C   UNL     1      -0.467  10.924  20.632  0.00  0.00    +0.000 C 
ATOM     15  C   UNL     1       0.470  12.152  20.688  0.00  0.00    +0.000 C 
ATOM     16  C   UNL     1      -4.074  12.402  20.079  0.00  0.00    +0.000 C 
ATOM     17  C   UNL     1      -5.029  12.974  19.040  0.00  0.00    +0.000 C 
ATOM     18  C   UNL     1      -6.112  13.475  19.964  0.00  0.00    +0.000 C 
ATOM     19  C   UNL     1      -5.668  13.668  21.228  0.00  0.00    +0.000 C 
ENDROOT
BRANCH  19  20
ATOM     20  N   UNL     1      -6.407  14.026  22.363  0.00  0.00    +0.000 N 
ATOM     21  C   UNL     1      -6.618  15.298  22.863  0.00  0.00    +0.000 A 
ATOM     22  C   UNL     1      -7.428  15.161  23.965  0.00  0.00    +0.000 A 
ATOM     23  N   UNL     1      -7.724  13.850  24.182  0.00  0.00    +0.000 NA
ATOM     24  C   UNL     1      -7.121  13.202  23.211  0.00  0.00    +0.000 A 
ENDBRANCH  19  20
BRANCH  18  25
ATOM     25  C   UNL     1      -7.463  13.730  19.425  0.00  0.00    +0.000 C 
ATOM     26  O   UNL     1      -7.735  14.750  18.807  0.00  0.00    +0.000 OA
ENDBRANCH  18  25
BRANCH  11  27
ATOM     27  O   UNL     1       2.557   7.903  19.796  0.00  0.00    +0.000 OA
BRANCH  27  28
ATOM     28  C   UNL     1       2.667   7.120  18.690  0.00  0.00    +0.000 C 
ATOM     29  O   UNL     1       3.028   7.493  17.585  0.00  0.00    +0.000 OA
BRANCH  28  30
ATOM     30  C   UNL     1       2.284   5.711  18.991  0.00  0.00    +0.000 A 
ATOM     31  C   UNL     1       1.812   4.909  17.937  0.00  0.00    +0.000 A 
ATOM     32  C   UNL     1       1.438   3.581  18.171  0.00  0.00    +0.000 A 
ATOM     33  C   UNL     1       1.538   3.060  19.456  0.00  0.00    +0.000 A 
ATOM     34  F   UNL     1       1.179   1.790  19.682  0.00  0.00    +0.000 F 
ATOM     35  C   UNL     1       2.007   3.837  20.510  0.00  0.00    +0.000 A 
ATOM     36  C   UNL     1       2.380   5.164  20.280  0.00  0.00    +0.000 A 
ENDBRANCH  28  30
ENDBRANCH  27  28
ENDBRANCH  11  27
TORSDOF 5
ENDMDL
MODEL 3
REMARK VINA RESULT:      -8.0      4.182      5.584
REMARK  Name = 
REMARK  7 active torsions:
REMARK  status: ('A' for Active; 'I' for Inactive)
REMARK    1  A    between atoms: C_1  and  C_2
REMARK    2  A    between atoms: C_11  and  O_12
REMARK    3  A    between atoms: O_12  and  C_13
REMARK    4  A    between atoms: C_13  and  C_15
REMARK    5  A    between atoms: C_24  and  C_25
REMARK    6  A    between atoms: C_28  and  C_29
REMARK    7  A    between atoms: C_31  and  N_32
REMARK                            x       y       z     vdW  Elec       q    Type
REMARK                         _______ _______ _______ _____ _____    ______ ____
ROOT
ATOM      1  C   UNL     1      -2.820  14.673  21.064  0.00  0.00    +0.000 C 
ATOM      2  C   UNL     1      -3.662  13.394  21.277  0.00  0.00    +0.000 C 
ATOM      3  C   UNL     1      -3.143  12.568  22.470  0.00  0.00    +0.000 C 
ATOM      4  C   UNL     1      -1.733  12.005  22.211  0.00  0.00    +0.000 C 
ATOM      5  C   UNL     1      -1.588  11.225  20.875  0.00  0.00    +0.000 C 
ATOM      6  C   UNL     1      -2.223  11.983  19.670  0.00  0.00    +0.000 C 
ATOM      7  C   UNL     1      -2.246  11.083  18.426  0.00  0.00    +0.000 C 
ATOM      8  C   UNL     1      -0.996  10.279  18.239  0.00  0.00    +0.000 C 
ATOM      9  C   UNL     1      -0.033  10.118  19.165  0.00  0.00    +0.000 C 
ATOM     10  C   UNL     1       1.194   9.283  18.848  0.00  0.00    +0.000 C 
ATOM     11  C   UNL     1       1.465   8.219  19.916  0.00  0.00    +0.000 C 
ATOM     12  C   UNL     1       1.552   8.879  21.295  0.00  0.00    +0.000 C 
ATOM     13  C   UNL     1       0.279   9.661  21.624  0.00  0.00    +0.000 C 
ATOM     14  C   UNL     1      -0.115  10.738  20.566  0.00  0.00    +0.000 C 
ATOM     15  C   UNL     1       0.890  11.911  20.628  0.00  0.00    +0.000 C 
ATOM     16  C   UNL     1      -3.639  12.421  20.067  0.00  0.00    +0.000 C 
ATOM     17  C   UNL     1      -4.570  13.059  19.044  0.00  0.00    +0.000 C 
ATOM     18  C   UNL     1      -5.615  13.607  19.984  0.00  0.00    +0.000 C 
ATOM     19  C   UNL     1      -5.149  13.760  21.246  0.00  0.00    +0.000 C 
ENDROOT
BRANCH  19  20
ATOM     20  N   UNL     1      -5.856  14.144  22.393  0.00  0.00    +0.000 N 
ATOM     21  C   UNL     1      -5.855  15.384  23.006  0.00  0.00    +0.000 A 
ATOM     22  C   UNL     1      -6.720  15.300  24.070  0.00  0.00    +0.000 A 
ATOM     23  N   UNL     1      -7.255  14.051  24.156  0.00  0.00    +0.000 NA
ATOM     24  C   UNL     1      -6.740  13.392  23.142  0.00  0.00    +0.000 A 
ENDBRANCH  19  20
BRANCH  18  25
ATOM     25  C   UNL     1      -6.954  13.944  19.462  0.00  0.00    +0.000 C 
ATOM     26  O   UNL     1      -7.916  13.204  19.612  0.00  0.00    +0.000 OA
ENDBRANCH  18  25
BRANCH  11  27
ATOM     27  O   UNL     1       2.728   7.564  19.664  0.00  0.00    +0.000 OA
BRANCH  27  28
ATOM     28  C   UNL     1       2.681   6.213  19.528  0.00  0.00    +0.000 C 
ATOM     29  O   UNL     1       2.088   5.442  20.265  0.00  0.00    +0.000 OA
BRANCH  28  30
ATOM     30  C   UNL     1       3.462   5.766  18.339  0.00  0.00    +0.000 A 
ATOM     31  C   UNL     1       3.441   4.402  18.001  0.00  0.00    +0.000 A 
ATOM     32  C   UNL     1       4.161   3.935  16.896  0.00  0.00    +0.000 A 
ATOM     33  C   UNL     1       4.895   4.833  16.130  0.00  0.00    +0.000 A 
ATOM     34  F   UNL     1       5.586   4.388  15.073  0.00  0.00    +0.000 F 
ATOM     35  C   UNL     1       4.924   6.187  16.446  0.00  0.00    +0.000 A 
ATOM     36  C   UNL     1       4.207   6.657  17.550  0.00  0.00    +0.000 A 
ENDBRANCH  28  30
ENDBRANCH  27  28
ENDBRANCH  11  27
TORSDOF 5
ENDMDL
MODEL 4
REMARK VINA RESULT:      -8.0      0.927      1.244
REMARK  Name = 
REMARK  7 active torsions:
REMARK  status: ('A' for Active; 'I' for Inactive)
REMARK    1  A    between atoms: C_1  and  C_2
REMARK    2  A    between atoms: C_11  and  O_12
REMARK    3  A    between atoms: O_12  and  C_13
REMARK    4  A    between atoms: C_13  and  C_15
REMARK    5  A    between atoms: C_24  and  C_25
REMARK    6  A    between atoms: C_28  and  C_29
REMARK    7  A    between atoms: C_31  and  N_32
REMARK                            x       y       z     vdW  Elec       q    Type
REMARK                         _______ _______ _______ _____ _____    ______ ____
ROOT
ATOM      1  C   UNL     1      -1.277  12.587  19.061  0.00  0.00    +0.000 C 
ATOM      2  C   UNL     1       0.078  12.901  19.736  0.00  0.00    +0.000 C 
ATOM      3  C   UNL     1       1.240  12.830  18.728  0.00  0.00    +0.000 C 
ATOM      4  C   UNL     1       1.453  11.401  18.193  0.00  0.00    +0.000 C 
ATOM      5  C   UNL     1       1.591  10.316  19.296  0.00  0.00    +0.000 C 
ATOM      6  C   UNL     1       0.500  10.446  20.401  0.00  0.00    +0.000 C 
ATOM      7  C   UNL     1       0.808   9.497  21.568  0.00  0.00    +0.000 C 
ATOM      8  C   UNL     1       1.288   8.145  21.137  0.00  0.00    +0.000 C 
ATOM      9  C   UNL     1       1.682   7.825  19.891  0.00  0.00    +0.000 C 
ATOM     10  C   UNL     1       2.140   6.413  19.579  0.00  0.00    +0.000 C 
ATOM     11  C   UNL     1       3.501   6.385  18.875  0.00  0.00    +0.000 C 
ATOM     12  C   UNL     1       3.457   7.270  17.627  0.00  0.00    +0.000 C 
ATOM     13  C   UNL     1       3.057   8.706  17.971  0.00  0.00    +0.000 C 
ATOM     14  C   UNL     1       1.706   8.839  18.740  0.00  0.00    +0.000 C 
ATOM     15  C   UNL     1       0.536   8.504  17.786  0.00  0.00    +0.000 C 
ATOM     16  C   UNL     1       0.458  11.908  20.868  0.00  0.00    +0.000 C 
ATOM     17  C   UNL     1      -0.410  12.321  22.049  0.00  0.00    +0.000 C 
ATOM     18  C   UNL     1      -0.380  13.817  21.853  0.00  0.00    +0.000 C 
ATOM     19  C   UNL     1      -0.065  14.168  20.584  0.00  0.00    +0.000 C 
ENDROOT
BRANCH  19  20
ATOM     20  N   UNL     1       0.152  15.451  20.066  0.00  0.00    +0.000 N 
ATOM     21  C   UNL     1      -0.740  16.235  19.358  0.00  0.00    +0.000 A 
ATOM     22  C   UNL     1      -0.100  17.421  19.090  0.00  0.00    +0.000 A 
ATOM     23  N   UNL     1       1.165  17.407  19.594  0.00  0.00    +0.000 NA
ATOM     24  C   UNL     1       1.283  16.237  20.180  0.00  0.00    +0.000 A 
ENDBRANCH  19  20
BRANCH  18  25
ATOM     25  C   UNL     1      -0.716  14.702  22.985  0.00  0.00    +0.000 C 
ATOM     26  O   UNL     1      -0.875  14.276  24.121  0.00  0.00    +0.000 OA
ENDBRANCH  18  25
BRANCH  11  27
ATOM     27  O   UNL     1       3.818   5.041  18.448  0.00  0.00    +0.000 OA
BRANCH  27  28
ATOM     28  C   UNL     1       5.139   4.725  18.411  0.00  0.00    +0.000 C 
ATOM     29  O   UNL     1       5.850   4.511  19.380  0.00  0.00    +0.000 OA
BRANCH  28  30
ATOM     30  C   UNL     1       5.637   4.671  17.007  0.00  0.00    +0.000 A 
ATOM     31  C   UNL     1       6.947   5.111  16.746  0.00  0.00    +0.000 A 
ATOM     32  C   UNL     1       7.458   5.081  15.444  0.00  0.00    +0.000 A 
ATOM     33  C   UNL     1       6.660   4.609  14.408  0.00  0.00    +0.000 A 
ATOM     34  F   UNL     1       7.146   4.582  13.160  0.00  0.00    +0.000 F 
ATOM     35  C   UNL     1       5.364   4.166  14.647  0.00  0.00    +0.000 A 
ATOM     36  C   UNL     1       4.849   4.195  15.947  0.00  0.00    +0.000 A 
ENDBRANCH  28  30
ENDBRANCH  27  28
ENDBRANCH  11  27
TORSDOF 5
ENDMDL
MODEL 5
REMARK VINA RESULT:      -7.9      2.869      3.648
REMARK  Name = 
REMARK  7 active torsions:
REMARK  status: ('A' for Active; 'I' for Inactive)
REMARK    1  A    between atoms: C_1  and  C_2
REMARK    2  A    between atoms: C_11  and  O_12
REMARK    3  A    between atoms: O_12  and  C_13
REMARK    4  A    between atoms: C_13  and  C_15
REMARK    5  A    between atoms: C_24  and  C_25
REMARK    6  A    between atoms: C_28  and  C_29
REMARK    7  A    between atoms: C_31  and  N_32
REMARK                            x       y       z     vdW  Elec       q    Type
REMARK                         _______ _______ _______ _____ _____    ______ ____
ROOT
ATOM      1  C   UNL     1      -2.793  13.140  20.450  0.00  0.00    +0.000 C 
ATOM      2  C   UNL     1      -1.394  13.653  20.862  0.00  0.00    +0.000 C 
ATOM      3  C   UNL     1      -0.487  13.865  19.635  0.00  0.00    +0.000 C 
ATOM      4  C   UNL     1      -0.164  12.540  18.920  0.00  0.00    +0.000 C 
ATOM      5  C   UNL     1       0.392  11.427  19.850  0.00  0.00    +0.000 C 
ATOM      6  C   UNL     1      -0.434  11.279  21.163  0.00  0.00    +0.000 C 
ATOM      7  C   UNL     1       0.276  10.327  22.136  0.00  0.00    +0.000 C 
ATOM      8  C   UNL     1       0.867   9.119  21.475  0.00  0.00    +0.000 C 
ATOM      9  C   UNL     1       1.024   8.961  20.149  0.00  0.00    +0.000 C 
ATOM     10  C   UNL     1       1.630   7.682  19.602  0.00  0.00    +0.000 C 
ATOM     11  C   UNL     1       2.788   7.953  18.636  0.00  0.00    +0.000 C 
ATOM     12  C   UNL     1       2.323   8.898  17.523  0.00  0.00    +0.000 C 
ATOM     13  C   UNL     1       1.776  10.208  18.092  0.00  0.00    +0.000 C 
ATOM     14  C   UNL     1       0.625  10.037  19.130  0.00  0.00    +0.000 C 
ATOM     15  C   UNL     1      -0.654   9.558  18.406  0.00  0.00    +0.000 C 
ATOM     16  C   UNL     1      -0.614  12.673  21.780  0.00  0.00    +0.000 C 
ATOM     17  C   UNL     1      -1.257  12.838  23.151  0.00  0.00    +0.000 C 
ATOM     18  C   UNL     1      -1.519  14.323  23.112  0.00  0.00    +0.000 C 
ATOM     19  C   UNL     1      -1.554  14.812  21.850  0.00  0.00    +0.000 C 
ENDROOT
BRANCH  19  20
ATOM     20  N   UNL     1      -1.673  16.145  21.436  0.00  0.00    +0.000 N 
ATOM     21  C   UNL     1      -2.827  16.815  21.078  0.00  0.00    +0.000 A 
ATOM     22  C   UNL     1      -2.461  18.106  20.782  0.00  0.00    +0.000 A 
ATOM     23  N   UNL     1      -1.117  18.269  20.931  0.00  0.00    +0.000 NA
ATOM     24  C   UNL     1      -0.677  17.098  21.334  0.00  0.00    +0.000 A 
ENDBRANCH  19  20
BRANCH  18  25
ATOM     25  C   UNL     1      -1.740  15.053  24.376  0.00  0.00    +0.000 C 
ATOM     26  O   UNL     1      -0.891  15.104  25.255  0.00  0.00    +0.000 OA
ENDBRANCH  18  25
BRANCH  11  27
ATOM     27  O   UNL     1       3.221   6.723  18.013  0.00  0.00    +0.000 OA
BRANCH  27  28
ATOM     28  C   UNL     1       3.674   5.759  18.856  0.00  0.00    +0.000 C 
ATOM     29  O   UNL     1       4.680   5.827  19.544  0.00  0.00    +0.000 OA
BRANCH  28  30
ATOM     30  C   UNL     1       2.774   4.570  18.842  0.00  0.00    +0.000 A 
ATOM     31  C   UNL     1       2.969   3.598  17.845  0.00  0.00    +0.000 A 
ATOM     32  C   UNL     1       2.148   2.466  17.789  0.00  0.00    +0.000 A 
ATOM     33  C   UNL     1       1.138   2.309  18.731  0.00  0.00    +0.000 A 
ATOM     34  F   UNL     1       0.349   1.227  18.679  0.00  0.00    +0.000 F 
ATOM     35  C   UNL     1       0.933   3.257  19.728  0.00  0.00    +0.000 A 
ATOM     36  C   UNL     1       1.751   4.390  19.786  0.00  0.00    +0.000 A 
ENDBRANCH  28  30
ENDBRANCH  27  28
ENDBRANCH  11  27
TORSDOF 5
ENDMDL
MODEL 6
REMARK VINA RESULT:      -7.9      1.648      2.175
REMARK  Name = 
REMARK  7 active torsions:
REMARK  status: ('A' for Active; 'I' for Inactive)
REMARK    1  A    between atoms: C_1  and  C_2
REMARK    2  A    between atoms: C_11  and  O_12
REMARK    3  A    between atoms: O_12  and  C_13
REMARK    4  A    between atoms: C_13  and  C_15
REMARK    5  A    between atoms: C_24  and  C_25
REMARK    6  A    between atoms: C_28  and  C_29
REMARK    7  A    between atoms: C_31  and  N_32
REMARK                            x       y       z     vdW  Elec       q    Type
REMARK                         _______ _______ _______ _____ _____    ______ ____
ROOT
ATOM      1  C   UNL     1      -1.109  10.987  18.871  0.00  0.00    +0.000 C 
ATOM      2  C   UNL     1       0.123  11.398  19.711  0.00  0.00    +0.000 C 
ATOM      3  C   UNL     1       1.366  11.606  18.824  0.00  0.00    +0.000 C 
ATOM      4  C   UNL     1       1.830  10.294  18.164  0.00  0.00    +0.000 C 
ATOM      5  C   UNL     1       2.030   9.113  19.154  0.00  0.00    +0.000 C 
ATOM      6  C   UNL     1       0.841   8.961  20.149  0.00  0.00    +0.000 C 
ATOM      7  C   UNL     1       1.182   7.929  21.234  0.00  0.00    +0.000 C 
ATOM      8  C   UNL     1       1.890   6.716  20.712  0.00  0.00    +0.000 C 
ATOM      9  C   UNL     1       2.432   6.604  19.486  0.00  0.00    +0.000 C 
ATOM     10  C   UNL     1       3.117   5.315  19.074  0.00  0.00    +0.000 C 
ATOM     11  C   UNL     1       4.522   5.556  18.513  0.00  0.00    +0.000 C 
ATOM     12  C   UNL     1       4.457   6.571  17.369  0.00  0.00    +0.000 C 
ATOM     13  C   UNL     1       3.823   7.887  17.822  0.00  0.00    +0.000 C 
ATOM     14  C   UNL     1       2.407   7.743  18.458  0.00  0.00    +0.000 C 
ATOM     15  C   UNL     1       1.385   7.370  17.359  0.00  0.00    +0.000 C 
ATOM     16  C   UNL     1       0.546  10.337  20.763  0.00  0.00    +0.000 C 
ATOM     17  C   UNL     1      -0.472  10.484  21.887  0.00  0.00    +0.000 C 
ATOM     18  C   UNL     1      -0.644  11.983  21.856  0.00  0.00    +0.000 C 
ATOM     19  C   UNL     1      -0.275  12.523  20.670  0.00  0.00    +0.000 C 
ENDROOT
BRANCH  19  20
ATOM     20  N   UNL     1      -0.204  13.877  20.317  0.00  0.00    +0.000 N 
ATOM     21  C   UNL     1       0.882  14.723  20.442  0.00  0.00    +0.000 A 
ATOM     22  C   UNL     1       0.496  15.941  19.935  0.00  0.00    +0.000 A 
ATOM     23  N   UNL     1      -0.795  15.893  19.506  0.00  0.00    +0.000 NA
ATOM     24  C   UNL     1      -1.181  14.658  19.728  0.00  0.00    +0.000 A 
ENDBRANCH  19  20
BRANCH  18  25
ATOM     25  C   UNL     1      -1.202  12.672  23.035  0.00  0.00    +0.000 C 
ATOM     26  O   UNL     1      -2.257  12.330  23.550  0.00  0.00    +0.000 OA
ENDBRANCH  18  25
BRANCH  11  27
ATOM     27  O   UNL     1       5.068   4.328  17.980  0.00  0.00    +0.000 OA
BRANCH  27  28
ATOM     28  C   UNL     1       6.365   4.380  17.578  0.00  0.00    +0.000 C 
ATOM     29  O   UNL     1       7.337   4.460  18.312  0.00  0.00    +0.000 OA
BRANCH  28  30
ATOM     30  C   UNL     1       6.468   4.326  16.092  0.00  0.00    +0.000 A 
ATOM     31  C   UNL     1       5.594   3.474  15.393  0.00  0.00    +0.000 A 
ATOM     32  C   UNL     1       5.655   3.388  13.998  0.00  0.00    +0.000 A 
ATOM     33  C   UNL     1       6.585   4.154  13.306  0.00  0.00    +0.000 A 
ATOM     34  F   UNL     1       6.647   4.072  11.971  0.00  0.00    +0.000 F 
ATOM     35  C   UNL     1       7.455   5.006  13.980  0.00  0.00    +0.000 A 
ATOM     36  C   UNL     1       7.398   5.094  15.374  0.00  0.00    +0.000 A 
ENDBRANCH  28  30
ENDBRANCH  27  28
ENDBRANCH  11  27
TORSDOF 5
ENDMDL
MODEL 7
REMARK VINA RESULT:      -7.9      1.926      2.793
REMARK  Name = 
REMARK  7 active torsions:
REMARK  status: ('A' for Active; 'I' for Inactive)
REMARK    1  A    between atoms: C_1  and  C_2
REMARK    2  A    between atoms: C_11  and  O_12
REMARK    3  A    between atoms: O_12  and  C_13
REMARK    4  A    between atoms: C_13  and  C_15
REMARK    5  A    between atoms: C_24  and  C_25
REMARK    6  A    between atoms: C_28  and  C_29
REMARK    7  A    between atoms: C_31  and  N_32
REMARK                            x       y       z     vdW  Elec       q    Type
REMARK                         _______ _______ _______ _____ _____    ______ ____
ROOT
ATOM      1  C   UNL     1      -1.192  10.285  18.981  0.00  0.00    +0.000 C 
ATOM      2  C   UNL     1       0.018  10.761  19.818  0.00  0.00    +0.000 C 
ATOM      3  C   UNL     1       1.216  11.126  18.921  0.00  0.00    +0.000 C 
ATOM      4  C   UNL     1       1.779   9.897  18.182  0.00  0.00    +0.000 C 
ATOM      5  C   UNL     1       2.106   8.688  19.102  0.00  0.00    +0.000 C 
ATOM      6  C   UNL     1       0.959   8.379  20.110  0.00  0.00    +0.000 C 
ATOM      7  C   UNL     1       1.416   7.326  21.130  0.00  0.00    +0.000 C 
ATOM      8  C   UNL     1       2.216   6.211  20.530  0.00  0.00    +0.000 C 
ATOM      9  C   UNL     1       2.736   6.212  19.290  0.00  0.00    +0.000 C 
ATOM     10  C   UNL     1       3.523   5.012  18.795  0.00  0.00    +0.000 C 
ATOM     11  C   UNL     1       4.888   5.407  18.223  0.00  0.00    +0.000 C 
ATOM     12  C   UNL     1       4.705   6.471  17.136  0.00  0.00    +0.000 C 
ATOM     13  C   UNL     1       3.969   7.700  17.672  0.00  0.00    +0.000 C 
ATOM     14  C   UNL     1       2.586   7.396  18.326  0.00  0.00    +0.000 C 
ATOM     15  C   UNL     1       1.575   6.991  17.228  0.00  0.00    +0.000 C 
ATOM     16  C   UNL     1       0.557   9.688  20.803  0.00  0.00    +0.000 C 
ATOM     17  C   UNL     1      -0.442   9.685  21.952  0.00  0.00    +0.000 C 
ATOM     18  C   UNL     1      -0.747  11.161  22.006  0.00  0.00    +0.000 C 
ATOM     19  C   UNL     1      -0.456  11.794  20.845  0.00  0.00    +0.000 C 
ENDROOT
BRANCH  19  20
ATOM     20  N   UNL     1      -0.513  13.165  20.564  0.00  0.00    +0.000 N 
ATOM     21  C   UNL     1      -1.595  13.882  20.086  0.00  0.00    +0.000 A 
ATOM     22  C   UNL     1      -1.195  15.194  20.000  0.00  0.00    +0.000 A 
ATOM     23  N   UNL     1       0.102  15.326  20.396  0.00  0.00    +0.000 NA
ATOM     24  C   UNL     1       0.476  14.114  20.740  0.00  0.00    +0.000 A 
ENDBRANCH  19  20
BRANCH  18  25
ATOM     25  C   UNL     1      -1.336  11.735  23.231  0.00  0.00    +0.000 C 
ATOM     26  O   UNL     1      -2.535  11.679  23.466  0.00  0.00    +0.000 OA
ENDBRANCH  18  25
BRANCH  11  27
ATOM     27  O   UNL     1       5.527   4.264  17.613  0.00  0.00    +0.000 OA
BRANCH  27  28
ATOM     28  C   UNL     1       6.764   4.480  17.095  0.00  0.00    +0.000 C 
ATOM     29  O   UNL     1       7.777   4.708  17.736  0.00  0.00    +0.000 OA
BRANCH  28  30
ATOM     30  C   UNL     1       6.741   4.408  15.606  0.00  0.00    +0.000 A 
ATOM     31  C   UNL     1       7.671   5.178  14.885  0.00  0.00    +0.000 A 
ATOM     32  C   UNL     1       7.686   5.145  13.487  0.00  0.00    +0.000 A 
ATOM     33  C   UNL     1       6.774   4.341  12.813  0.00  0.00    +0.000 A 
ATOM     34  F   UNL     1       6.786   4.309  11.474  0.00  0.00    +0.000 F 
ATOM     35  C   UNL     1       5.850   3.568  13.508  0.00  0.00    +0.000 A 
ATOM     36  C   UNL     1       5.831   3.600  14.906  0.00  0.00    +0.000 A 
ENDBRANCH  28  30
ENDBRANCH  27  28
ENDBRANCH  11  27
TORSDOF 5
ENDMDL
MODEL 8
REMARK VINA RESULT:      -7.9      1.792      2.300
REMARK  Name = 
REMARK  7 active torsions:
REMARK  status: ('A' for Active; 'I' for Inactive)
REMARK    1  A    between atoms: C_1  and  C_2
REMARK    2  A    between atoms: C_11  and  O_12
REMARK    3  A    between atoms: O_12  and  C_13
REMARK    4  A    between atoms: C_13  and  C_15
REMARK    5  A    between atoms: C_24  and  C_25
REMARK    6  A    between atoms: C_28  and  C_29
REMARK    7  A    between atoms: C_31  and  N_32
REMARK                            x       y       z     vdW  Elec       q    Type
REMARK                         _______ _______ _______ _____ _____    ______ ____
ROOT
ATOM      1  C   UNL     1      -2.357  13.555  20.441  0.00  0.00    +0.000 C 
ATOM      2  C   UNL     1      -0.926  13.853  20.945  0.00  0.00    +0.000 C 
ATOM      3  C   UNL     1       0.074  13.953  19.778  0.00  0.00    +0.000 C 
ATOM      4  C   UNL     1       0.247  12.606  19.050  0.00  0.00    +0.000 C 
ATOM      5  C   UNL     1       0.581  11.410  19.983  0.00  0.00    +0.000 C 
ATOM      6  C   UNL     1      -0.336  11.362  21.242  0.00  0.00    +0.000 C 
ATOM      7  C   UNL     1       0.171  10.301  22.230  0.00  0.00    +0.000 C 
ATOM      8  C   UNL     1       0.622   9.031  21.575  0.00  0.00    +0.000 C 
ATOM      9  C   UNL     1       0.834   8.874  20.256  0.00  0.00    +0.000 C 
ATOM     10  C   UNL     1       1.282   7.530  19.713  0.00  0.00    +0.000 C 
ATOM     11  C   UNL     1       2.523   7.647  18.821  0.00  0.00    +0.000 C 
ATOM     12  C   UNL     1       2.266   8.666  17.708  0.00  0.00    +0.000 C 
ATOM     13  C   UNL     1       1.879  10.033  18.277  0.00  0.00    +0.000 C 
ATOM     14  C   UNL     1       0.655  10.013  19.243  0.00  0.00    +0.000 C 
ATOM     15  C   UNL     1      -0.633   9.735  18.435  0.00  0.00    +0.000 C 
ATOM     16  C   UNL     1      -0.351  12.756  21.882  0.00  0.00    +0.000 C 
ATOM     17  C   UNL     1      -1.045  12.991  23.218  0.00  0.00    +0.000 C 
ATOM     18  C   UNL     1      -1.089  14.499  23.201  0.00  0.00    +0.000 C 
ATOM     19  C   UNL     1      -0.978  15.007  21.951  0.00  0.00    +0.000 C 
ENDROOT
BRANCH  19  20
ATOM     20  N   UNL     1      -0.879  16.350  21.565  0.00  0.00    +0.000 N 
ATOM     21  C   UNL     1      -1.912  17.217  21.262  0.00  0.00    +0.000 A 
ATOM     22  C   UNL     1      -1.340  18.432  20.974  0.00  0.00    +0.000 A 
ATOM     23  N   UNL     1       0.017  18.358  21.074  0.00  0.00    +0.000 NA
ATOM     24  C   UNL     1       0.262  17.120  21.440  0.00  0.00    +0.000 A 
ENDBRANCH  19  20
BRANCH  18  25
ATOM     25  C   UNL     1      -1.278  15.232  24.467  0.00  0.00    +0.000 C 
ATOM     26  O   UNL     1      -0.390  15.908  24.968  0.00  0.00    +0.000 OA
ENDBRANCH  18  25
BRANCH  11  27
ATOM     27  O   UNL     1       2.812   6.377  18.195  0.00  0.00    +0.000 OA
BRANCH  27  28
ATOM     28  C   UNL     1       3.996   5.804  18.534  0.00  0.00    +0.000 C 
ATOM     29  O   UNL     1       4.363   5.540  19.668  0.00  0.00    +0.000 OA
BRANCH  28  30
ATOM     30  C   UNL     1       4.822   5.525  17.325  0.00  0.00    +0.000 A 
ATOM     31  C   UNL     1       5.592   4.348  17.299  0.00  0.00    +0.000 A 
ATOM     32  C   UNL     1       6.385   4.045  16.187  0.00  0.00    +0.000 A 
ATOM     33  C   UNL     1       6.405   4.916  15.105  0.00  0.00    +0.000 A 
ATOM     34  F   UNL     1       7.165   4.629  14.040  0.00  0.00    +0.000 F 
ATOM     35  C   UNL     1       5.647   6.083  15.109  0.00  0.00    +0.000 A 
ATOM     36  C   UNL     1       4.855   6.390  16.219  0.00  0.00    +0.000 A 
ENDBRANCH  28  30
ENDBRANCH  27  28
ENDBRANCH  11  27
TORSDOF 5
ENDMDL
MODEL 9
REMARK VINA RESULT:      -7.8      1.501      2.034
REMARK  Name = 
REMARK  7 active torsions:
REMARK  status: ('A' for Active; 'I' for Inactive)
REMARK    1  A    between atoms: C_1  and  C_2
REMARK    2  A    between atoms: C_11  and  O_12
REMARK    3  A    between atoms: O_12  and  C_13
REMARK    4  A    between atoms: C_13  and  C_15
REMARK    5  A    between atoms: C_24  and  C_25
REMARK    6  A    between atoms: C_28  and  C_29
REMARK    7  A    between atoms: C_31  and  N_32
REMARK                            x       y       z     vdW  Elec       q    Type
REMARK                         _______ _______ _______ _____ _____    ______ ____
ROOT
ATOM      1  C   UNL     1      -1.910  13.743  19.991  0.00  0.00    +0.000 C 
ATOM      2  C   UNL     1      -0.472  13.985  20.505  0.00  0.00    +0.000 C 
ATOM      3  C   UNL     1       0.552  13.950  19.354  0.00  0.00    +0.000 C 
ATOM      4  C   UNL     1       0.653  12.552  18.715  0.00  0.00    +0.000 C 
ATOM      5  C   UNL     1       0.896  11.398  19.726  0.00  0.00    +0.000 C 
ATOM      6  C   UNL     1      -0.042  11.486  20.967  0.00  0.00    +0.000 C 
ATOM      7  C   UNL     1       0.381  10.460  22.029  0.00  0.00    +0.000 C 
ATOM      8  C   UNL     1       0.763   9.127  21.462  0.00  0.00    +0.000 C 
ATOM      9  C   UNL     1       0.987   8.874  20.160  0.00  0.00    +0.000 C 
ATOM     10  C   UNL     1       1.360   7.474  19.711  0.00  0.00    +0.000 C 
ATOM     11  C   UNL     1       2.619   7.459  18.839  0.00  0.00    +0.000 C 
ATOM     12  C   UNL     1       2.445   8.420  17.660  0.00  0.00    +0.000 C 
ATOM     13  C   UNL     1       2.135   9.840  18.135  0.00  0.00    +0.000 C 
ATOM     14  C   UNL     1       0.896   9.956  19.076  0.00  0.00    +0.000 C 
ATOM     15  C   UNL     1      -0.394   9.707  18.261  0.00  0.00    +0.000 C 
ATOM     16  C   UNL     1       0.018  12.916  21.519  0.00  0.00    +0.000 C 
ATOM     17  C   UNL     1      -0.682  13.276  22.824  0.00  0.00    +0.000 C 
ATOM     18  C   UNL     1      -0.631  14.780  22.712  0.00  0.00    +0.000 C 
ATOM     19  C   UNL     1      -0.468  15.201  21.436  0.00  0.00    +0.000 C 
ENDROOT
BRANCH  19  20
ATOM     20  N   UNL     1      -0.280  16.508  20.970  0.00  0.00    +0.000 N 
ATOM     21  C   UNL     1       0.883  17.255  21.006  0.00  0.00    +0.000 A 
ATOM     22  C   UNL     1       0.601  18.458  20.405  0.00  0.00    +0.000 A 
ATOM     23  N   UNL     1      -0.700  18.499  20.002  0.00  0.00    +0.000 NA
ATOM     24  C   UNL     1      -1.193  17.327  20.334  0.00  0.00    +0.000 A 
ENDBRANCH  19  20
BRANCH  18  25
ATOM     25  C   UNL     1      -0.796  15.601  23.927  0.00  0.00    +0.000 C 
ATOM     26  O   UNL     1       0.160  16.015  24.568  0.00  0.00    +0.000 OA
ENDBRANCH  18  25
BRANCH  11  27
ATOM     27  O   UNL     1       2.840   6.137  18.298  0.00  0.00    +0.000 OA
BRANCH  27  28
ATOM     28  C   UNL     1       3.973   5.508  18.708  0.00  0.00    +0.000 C 
ATOM     29  O   UNL     1       4.219   5.153  19.850  0.00  0.00    +0.000 OA
BRANCH  28  30
ATOM     30  C   UNL     1       4.910   5.296  17.568  0.00  0.00    +0.000 A 
ATOM     31  C   UNL     1       6.122   6.009  17.560  0.00  0.00    +0.000 A 
ATOM     32  C   UNL     1       7.033   5.845  16.511  0.00  0.00    +0.000 A 
ATOM     33  C   UNL     1       6.730   4.969  15.475  0.00  0.00    +0.000 A 
ATOM     34  F   UNL     1       7.600   4.812  14.468  0.00  0.00    +0.000 F 
ATOM     35  C   UNL     1       5.538   4.252  15.468  0.00  0.00    +0.000 A 
ATOM     36  C   UNL     1       4.626   4.414  16.514  0.00  0.00    +0.000 A 
ENDBRANCH  28  30
ENDBRANCH  27  28
ENDBRANCH  11  27
TORSDOF 5
ENDMDL
