MODEL 1
REMARK VINA RESULT:      -8.7      0.000      0.000
REMARK  Name = 
REMARK  6 active torsions:
REMARK  status: ('A' for Active; 'I' for Inactive)
REMARK    1  A    between atoms: C_1  and  C_2
REMARK    2  A    between atoms: N_6  and  C_7
REMARK    3  A    between atoms: N_15  and  C_16
REMARK    4  A    between atoms: C_19  and  N_20
REMARK    5  A    between atoms: C_24  and  C_25
REMARK    6  A    between atoms: C_24  and  C_26
REMARK                            x       y       z     vdW  Elec       q    Type
REMARK                         _______ _______ _______ _____ _____    ______ ____
ROOT
ATOM      1  C   UNL     1      -5.160  13.703  21.889  0.00  0.00    +0.000 C 
ATOM      2  C   UNL     1      -4.578  13.027  20.685  0.00  0.00    +0.000 A 
ATOM      3  C   UNL     1      -5.279  12.885  19.554  0.00  0.00    +0.000 A 
ATOM      4  C   UNL     1      -4.737  12.219  18.345  0.00  0.00    +0.000 A 
ATOM      5  O   UNL     1      -5.479  12.153  17.367  0.00  0.00    +0.000 OA
ATOM      6  N   UNL     1      -3.444  11.724  18.414  0.00  0.00    +0.000 N 
ATOM      7  C   UNL     1      -2.661  11.874  19.599  0.00  0.00    +0.000 A 
ATOM      8  N   UNL     1      -1.403  11.396  19.603  0.00  0.00    +0.000 NA
ATOM      9  C   UNL     1      -0.653  11.553  20.701  0.00  0.00    +0.000 A 
ATOM     10  N   UNL     1       0.669  11.103  20.706  0.00  0.00    +0.000 N 
ATOM     11  N   UNL     1      -1.088  12.152  21.812  0.00  0.00    +0.000 NA
ATOM     12  C   UNL     1      -2.359  12.602  21.793  0.00  0.00    +0.000 A 
ATOM     13  C   UNL     1      -3.207  12.506  20.707  0.00  0.00    +0.000 A 
ATOM     14  H   UNL     1       1.057  11.260  21.628  0.00  0.00    +0.000 HD
ENDROOT
BRANCH  10  15
ATOM     15  C   UNL     1       1.155   9.937  20.088  0.00  0.00    +0.000 A 
ATOM     16  C   UNL     1       1.471   9.965  18.731  0.00  0.00    +0.000 A 
ATOM     17  C   UNL     1       1.971   8.822  18.088  0.00  0.00    +0.000 A 
ATOM     18  C   UNL     1       2.202   7.621  18.774  0.00  0.00    +0.000 A 
ATOM     19  C   UNL     1       1.887   7.621  20.139  0.00  0.00    +0.000 A 
ATOM     20  C   UNL     1       1.379   8.752  20.785  0.00  0.00    +0.000 A 
BRANCH  18  21
ATOM     21  N   UNL     1       2.723   6.510  18.149  0.00  0.00    +0.000 N 
ATOM     22  C   UNL     1       4.106   6.450  17.655  0.00  0.00    +0.000 C 
ATOM     23  C   UNL     1       4.831   5.221  18.251  0.00  0.00    +0.000 C 
ATOM     24  N   UNL     1       4.111   3.943  18.092  0.00  0.00    +0.000 NA
ATOM     25  C   UNL     1       2.707   4.041  18.567  0.00  0.00    +0.000 C 
ATOM     26  C   UNL     1       2.657   4.096  20.108  0.00  0.00    +0.000 C 
ATOM     27  C   UNL     1       1.992   2.755  18.114  0.00  0.00    +0.000 C 
ATOM     28  C   UNL     1       1.962   5.265  17.945  0.00  0.00    +0.000 C 
ATOM     29  H   UNL     1       4.601   3.218  18.614  0.00  0.00    +0.000 HD
ENDBRANCH  18  21
ENDBRANCH  10  15
BRANCH   6  30
ATOM     30  C   UNL     1      -2.847  11.043  17.253  0.00  0.00    +0.000 C 
ATOM     31  C   UNL     1      -3.132   9.540  17.191  0.00  0.00    +0.000 C 
ATOM     32  C   UNL     1      -2.842   9.164  15.745  0.00  0.00    +0.000 C 
ATOM     33  C   UNL     1      -3.108  10.416  14.914  0.00  0.00    +0.000 C 
ATOM     34  C   UNL     1      -3.329  11.566  15.894  0.00  0.00    +0.000 C 
ENDBRANCH   6  30
TORSDOF 3
ENDMDL
MODEL 2
REMARK VINA RESULT:      -8.4      0.890      1.407
REMARK  Name = 
REMARK  6 active torsions:
REMARK  status: ('A' for Active; 'I' for Inactive)
REMARK    1  A    between atoms: C_1  and  C_2
REMARK    2  A    between atoms: N_6  and  C_7
REMARK    3  A    between atoms: N_15  and  C_16
REMARK    4  A    between atoms: C_19  and  N_20
REMARK    5  A    between atoms: C_24  and  C_25
REMARK    6  A    between atoms: C_24  and  C_26
REMARK                            x       y       z     vdW  Elec       q    Type
REMARK                         _______ _______ _______ _____ _____    ______ ____
ROOT
ATOM      1  C   UNL     1      -5.501  14.094  21.913  0.00  0.00    +0.000 C 
ATOM      2  C   UNL     1      -5.071  13.198  20.792  0.00  0.00    +0.000 A 
ATOM      3  C   UNL     1      -5.955  12.673  19.935  0.00  0.00    +0.000 A 
ATOM      4  C   UNL     1      -5.566  11.781  18.817  0.00  0.00    +0.000 A 
ATOM      5  O   UNL     1      -6.471  11.364  18.097  0.00  0.00    +0.000 OA
ATOM      6  N   UNL     1      -4.219  11.487  18.675  0.00  0.00    +0.000 N 
ATOM      7  C   UNL     1      -3.245  12.043  19.559  0.00  0.00    +0.000 A 
ATOM      8  N   UNL     1      -1.949  11.744  19.360  0.00  0.00    +0.000 NA
ATOM      9  C   UNL     1      -1.027  12.280  20.170  0.00  0.00    +0.000 A 
ATOM     10  N   UNL     1       0.326  12.015  19.949  0.00  0.00    +0.000 N 
ATOM     11  N   UNL     1      -1.322  13.095  21.185  0.00  0.00    +0.000 NA
ATOM     12  C   UNL     1      -2.629  13.362  21.380  0.00  0.00    +0.000 A 
ATOM     13  C   UNL     1      -3.654  12.876  20.591  0.00  0.00    +0.000 A 
ATOM     14  H   UNL     1       0.863  12.460  20.684  0.00  0.00    +0.000 HD
ENDROOT
BRANCH  10  15
ATOM     15  C   UNL     1       0.876  10.796  19.516  0.00  0.00    +0.000 A 
ATOM     16  C   UNL     1       0.896   9.707  20.385  0.00  0.00    +0.000 A 
ATOM     17  C   UNL     1       1.426   8.474  19.977  0.00  0.00    +0.000 A 
ATOM     18  C   UNL     1       1.929   8.268  18.685  0.00  0.00    +0.000 A 
ATOM     19  C   UNL     1       1.889   9.374  17.826  0.00  0.00    +0.000 A 
ATOM     20  C   UNL     1       1.372  10.610  18.227  0.00  0.00    +0.000 A 
BRANCH  18  21
ATOM     21  N   UNL     1       2.421   7.048  18.276  0.00  0.00    +0.000 N 
ATOM     22  C   UNL     1       3.838   6.828  17.959  0.00  0.00    +0.000 C 
ATOM     23  C   UNL     1       4.393   5.648  18.792  0.00  0.00    +0.000 C 
ATOM     24  N   UNL     1       3.592   4.411  18.720  0.00  0.00    +0.000 NA
ATOM     25  C   UNL     1       2.157   4.668  19.012  0.00  0.00    +0.000 C 
ATOM     26  C   UNL     1       1.948   4.942  20.515  0.00  0.00    +0.000 C 
ATOM     27  C   UNL     1       1.392   3.382  18.651  0.00  0.00    +0.000 C 
ATOM     28  C   UNL     1       1.586   5.841  18.151  0.00  0.00    +0.000 C 
ATOM     29  H   UNL     1       3.962   3.736  19.387  0.00  0.00    +0.000 HD
ENDBRANCH  18  21
ENDBRANCH  10  15
BRANCH   6  30
ATOM     30  C   UNL     1      -3.763  10.599  17.590  0.00  0.00    +0.000 C 
ATOM     31  C   UNL     1      -3.550  11.306  16.248  0.00  0.00    +0.000 C 
ATOM     32  C   UNL     1      -2.673  10.347  15.457  0.00  0.00    +0.000 C 
ATOM     33  C   UNL     1      -1.857   9.565  16.482  0.00  0.00    +0.000 C 
ATOM     34  C   UNL     1      -2.422   9.907  17.860  0.00  0.00    +0.000 C 
ENDBRANCH   6  30
TORSDOF 3
ENDMDL
MODEL 3
REMARK VINA RESULT:      -7.9      0.787      1.148
REMARK  Name = 
REMARK  6 active torsions:
REMARK  status: ('A' for Active; 'I' for Inactive)
REMARK    1  A    between atoms: C_1  and  C_2
REMARK    2  A    between atoms: N_6  and  C_7
REMARK    3  A    between atoms: N_15  and  C_16
REMARK    4  A    between atoms: C_19  and  N_20
REMARK    5  A    between atoms: C_24  and  C_25
REMARK    6  A    between atoms: C_24  and  C_26
REMARK                            x       y       z     vdW  Elec       q    Type
REMARK                         _______ _______ _______ _____ _____    ______ ____
ROOT
ATOM      1  C   UNL     1      -3.976  14.260  21.899  0.00  0.00    +0.000 C 
ATOM      2  C   UNL     1      -3.669  13.368  20.736  0.00  0.00    +0.000 A 
ATOM      3  C   UNL     1      -4.582  13.108  19.792  0.00  0.00    +0.000 A 
ATOM      4  C   UNL     1      -4.315  12.228  18.629  0.00  0.00    +0.000 A 
ATOM      5  O   UNL     1      -5.234  12.068  17.830  0.00  0.00    +0.000 OA
ATOM      6  N   UNL     1      -3.055  11.655  18.538  0.00  0.00    +0.000 N 
ATOM      7  C   UNL     1      -2.051  11.925  19.517  0.00  0.00    +0.000 A 
ATOM      8  N   UNL     1      -0.839  11.363  19.366  0.00  0.00    +0.000 NA
ATOM      9  C   UNL     1       0.117  11.629  20.265  0.00  0.00    +0.000 A 
ATOM     10  N   UNL     1       1.394  11.088  20.100  0.00  0.00    +0.000 N 
ATOM     11  N   UNL     1      -0.068  12.420  21.325  0.00  0.00    +0.000 NA
ATOM     12  C   UNL     1      -1.297  12.954  21.468  0.00  0.00    +0.000 A 
ATOM     13  C   UNL     1      -2.344  12.757  20.588  0.00  0.00    +0.000 A 
ATOM     14  H   UNL     1       1.961  11.355  20.896  0.00  0.00    +0.000 HD
ENDROOT
BRANCH  10  15
ATOM     15  C   UNL     1       1.700   9.810  19.601  0.00  0.00    +0.000 A 
ATOM     16  C   UNL     1       1.624   8.709  20.451  0.00  0.00    +0.000 A 
ATOM     17  C   UNL     1       1.910   7.418  19.980  0.00  0.00    +0.000 A 
ATOM     18  C   UNL     1       2.252   7.171  18.643  0.00  0.00    +0.000 A 
ATOM     19  C   UNL     1       2.312   8.292  17.805  0.00  0.00    +0.000 A 
ATOM     20  C   UNL     1       2.039   9.583  18.268  0.00  0.00    +0.000 A 
BRANCH  18  21
ATOM     21  N   UNL     1       2.502   5.900  18.175  0.00  0.00    +0.000 N 
ATOM     22  C   UNL     1       3.754   5.534  17.499  0.00  0.00    +0.000 C 
ATOM     23  C   UNL     1       4.406   4.322  18.206  0.00  0.00    +0.000 C 
ATOM     24  N   UNL     1       3.508   3.170  18.409  0.00  0.00    +0.000 NA
ATOM     25  C   UNL     1       2.236   3.574  19.064  0.00  0.00    +0.000 C 
ATOM     26  C   UNL     1       2.470   3.898  20.554  0.00  0.00    +0.000 C 
ATOM     27  C   UNL     1       1.289   2.363  18.984  0.00  0.00    +0.000 C 
ATOM     28  C   UNL     1       1.560   4.779  18.336  0.00  0.00    +0.000 C 
ATOM     29  H   UNL     1       3.983   2.475  18.983  0.00  0.00    +0.000 HD
ENDBRANCH  18  21
ENDBRANCH  10  15
BRANCH   6  30
ATOM     30  C   UNL     1      -2.725  10.764  17.413  0.00  0.00    +0.000 C 
ATOM     31  C   UNL     1      -3.734   9.634  17.190  0.00  0.00    +0.000 C 
ATOM     32  C   UNL     1      -3.460   9.163  15.769  0.00  0.00    +0.000 C 
ATOM     33  C   UNL     1      -2.906  10.370  15.016  0.00  0.00    +0.000 C 
ATOM     34  C   UNL     1      -2.648  11.463  16.051  0.00  0.00    +0.000 C 
ENDBRANCH   6  30
TORSDOF 3
ENDMDL
MODEL 4
REMARK VINA RESULT:      -7.9      0.785      1.178
REMARK  Name = 
REMARK  6 active torsions:
REMARK  status: ('A' for Active; 'I' for Inactive)
REMARK    1  A    between atoms: C_1  and  C_2
REMARK    2  A    between atoms: N_6  and  C_7
REMARK    3  A    between atoms: N_15  and  C_16
REMARK    4  A    between atoms: C_19  and  N_20
REMARK    5  A    between atoms: C_24  and  C_25
REMARK    6  A    between atoms: C_24  and  C_26
REMARK                            x       y       z     vdW  Elec       q    Type
REMARK                         _______ _______ _______ _____ _____    ______ ____
ROOT
ATOM      1  C   UNL     1      -5.424  13.580  22.918  0.00  0.00    +0.000 C 
ATOM      2  C   UNL     1      -4.882  13.061  21.621  0.00  0.00    +0.000 A 
ATOM      3  C   UNL     1      -5.646  12.981  20.525  0.00  0.00    +0.000 A 
ATOM      4  C   UNL     1      -5.145  12.469  19.226  0.00  0.00    +0.000 A 
ATOM      5  O   UNL     1      -5.944  12.447  18.293  0.00  0.00    +0.000 OA
ATOM      6  N   UNL     1      -3.823  12.057  19.170  0.00  0.00    +0.000 N 
ATOM      7  C   UNL     1      -2.974  12.146  20.315  0.00  0.00    +0.000 A 
ATOM      8  N   UNL     1      -1.693  11.754  20.198  0.00  0.00    +0.000 NA
ATOM      9  C   UNL     1      -0.883  11.856  21.259  0.00  0.00    +0.000 A 
ATOM     10  N   UNL     1       0.461  11.496  21.141  0.00  0.00    +0.000 N 
ATOM     11  N   UNL     1      -1.279  12.317  22.447  0.00  0.00    +0.000 NA
ATOM     12  C   UNL     1      -2.573  12.681  22.548  0.00  0.00    +0.000 A 
ATOM     13  C   UNL     1      -3.484  12.633  21.510  0.00  0.00    +0.000 A 
ATOM     14  H   UNL     1       0.899  11.591  22.050  0.00  0.00    +0.000 HD
ENDROOT
BRANCH  10  15
ATOM     15  C   UNL     1       0.975  10.429  20.383  0.00  0.00    +0.000 A 
ATOM     16  C   UNL     1       1.209   9.202  21.001  0.00  0.00    +0.000 A 
ATOM     17  C   UNL     1       1.709   8.114  20.269  0.00  0.00    +0.000 A 
ATOM     18  C   UNL     1       1.966   8.196  18.893  0.00  0.00    +0.000 A 
ATOM     19  C   UNL     1       1.713   9.436  18.292  0.00  0.00    +0.000 A 
ATOM     20  C   UNL     1       1.225  10.528  19.016  0.00  0.00    +0.000 A 
BRANCH  18  21
ATOM     21  N   UNL     1       2.427   7.118  18.169  0.00  0.00    +0.000 N 
ATOM     22  C   UNL     1       3.669   7.159  17.386  0.00  0.00    +0.000 C 
ATOM     23  C   UNL     1       4.603   6.001  17.810  0.00  0.00    +0.000 C 
ATOM     24  N   UNL     1       3.972   4.668  17.812  0.00  0.00    +0.000 NA
ATOM     25  C   UNL     1       2.701   4.663  18.582  0.00  0.00    +0.000 C 
ATOM     26  C   UNL     1       2.982   4.742  20.096  0.00  0.00    +0.000 C 
ATOM     27  C   UNL     1       2.011   3.318  18.295  0.00  0.00    +0.000 C 
ATOM     28  C   UNL     1       1.743   5.815  18.137  0.00  0.00    +0.000 C 
ATOM     29  H   UNL     1       4.620   3.993  18.215  0.00  0.00    +0.000 HD
ENDBRANCH  18  21
ENDBRANCH  10  15
BRANCH   6  30
ATOM     30  C   UNL     1      -3.263  11.530  17.914  0.00  0.00    +0.000 C 
ATOM     31  C   UNL     1      -2.922  10.038  17.955  0.00  0.00    +0.000 C 
ATOM     32  C   UNL     1      -2.819   9.637  16.491  0.00  0.00    +0.000 C 
ATOM     33  C   UNL     1      -3.739  10.581  15.722  0.00  0.00    +0.000 C 
ATOM     34  C   UNL     1      -4.192  11.662  16.701  0.00  0.00    +0.000 C 
ENDBRANCH   6  30
TORSDOF 3
ENDMDL
MODEL 5
REMARK VINA RESULT:      -7.7      1.071      1.300
REMARK  Name = 
REMARK  6 active torsions:
REMARK  status: ('A' for Active; 'I' for Inactive)
REMARK    1  A    between atoms: C_1  and  C_2
REMARK    2  A    between atoms: N_6  and  C_7
REMARK    3  A    between atoms: N_15  and  C_16
REMARK    4  A    between atoms: C_19  and  N_20
REMARK    5  A    between atoms: C_24  and  C_25
REMARK    6  A    between atoms: C_24  and  C_26
REMARK                            x       y       z     vdW  Elec       q    Type
REMARK                         _______ _______ _______ _____ _____    ______ ____
ROOT
ATOM      1  C   UNL     1      -3.802  15.059  22.186  0.00  0.00    +0.000 C 
ATOM      2  C   UNL     1      -3.699  13.999  21.132  0.00  0.00    +0.000 A 
ATOM      3  C   UNL     1      -4.778  13.550  20.482  0.00  0.00    +0.000 A 
ATOM      4  C   UNL     1      -4.714  12.500  19.436  0.00  0.00    +0.000 A 
ATOM      5  O   UNL     1      -5.776  12.174  18.910  0.00  0.00    +0.000 OA
ATOM      6  N   UNL     1      -3.468  11.971  19.139  0.00  0.00    +0.000 N 
ATOM      7  C   UNL     1      -2.292  12.439  19.800  0.00  0.00    +0.000 A 
ATOM      8  N   UNL     1      -1.106  11.907  19.455  0.00  0.00    +0.000 NA
ATOM      9  C   UNL     1       0.005  12.356  20.053  0.00  0.00    +0.000 A 
ATOM     10  N   UNL     1       1.249  11.847  19.674  0.00  0.00    +0.000 N 
ATOM     11  N   UNL     1       0.005  13.305  20.992  0.00  0.00    +0.000 NA
ATOM     12  C   UNL     1      -1.198  13.806  21.338  0.00  0.00    +0.000 A 
ATOM     13  C   UNL     1      -2.398  13.425  20.771  0.00  0.00    +0.000 A 
ATOM     14  H   UNL     1       1.959  12.265  20.264  0.00  0.00    +0.000 HD
ENDROOT
BRANCH  10  15
ATOM     15  C   UNL     1       1.532  10.517  19.318  0.00  0.00    +0.000 A 
ATOM     16  C   UNL     1       1.999  10.237  18.036  0.00  0.00    +0.000 A 
ATOM     17  C   UNL     1       2.303   8.921  17.655  0.00  0.00    +0.000 A 
ATOM     18  C   UNL     1       2.182   7.841  18.540  0.00  0.00    +0.000 A 
ATOM     19  C   UNL     1       1.720   8.148  19.826  0.00  0.00    +0.000 A 
ATOM     20  C   UNL     1       1.405   9.455  20.212  0.00  0.00    +0.000 A 
BRANCH  18  21
ATOM     21  N   UNL     1       2.510   6.554  18.174  0.00  0.00    +0.000 N 
ATOM     22  C   UNL     1       3.886   6.144  17.861  0.00  0.00    +0.000 C 
ATOM     23  C   UNL     1       4.292   4.934  18.734  0.00  0.00    +0.000 C 
ATOM     24  N   UNL     1       3.340   3.807  18.709  0.00  0.00    +0.000 NA
ATOM     25  C   UNL     1       1.952   4.255  18.995  0.00  0.00    +0.000 C 
ATOM     26  C   UNL     1       1.791   4.606  20.488  0.00  0.00    +0.000 C 
ATOM     27  C   UNL     1       1.026   3.066  18.683  0.00  0.00    +0.000 C 
ATOM     28  C   UNL     1       1.528   5.460  18.095  0.00  0.00    +0.000 C 
ATOM     29  H   UNL     1       3.626   3.114  19.399  0.00  0.00    +0.000 HD
ENDBRANCH  18  21
ENDBRANCH  10  15
BRANCH   6  30
ATOM     30  C   UNL     1      -3.333  10.918  18.117  0.00  0.00    +0.000 C 
ATOM     31  C   UNL     1      -3.324  11.439  16.677  0.00  0.00    +0.000 C 
ATOM     32  C   UNL     1      -2.727  10.295  15.870  0.00  0.00    +0.000 C 
ATOM     33  C   UNL     1      -1.805   9.535  16.820  0.00  0.00    +0.000 C 
ATOM     34  C   UNL     1      -2.043  10.096  18.221  0.00  0.00    +0.000 C 
ENDBRANCH   6  30
TORSDOF 3
ENDMDL
MODEL 6
REMARK VINA RESULT:      -7.7      2.933      8.975
REMARK  Name = 
REMARK  6 active torsions:
REMARK  status: ('A' for Active; 'I' for Inactive)
REMARK    1  A    between atoms: C_1  and  C_2
REMARK    2  A    between atoms: N_6  and  C_7
REMARK    3  A    between atoms: N_15  and  C_16
REMARK    4  A    between atoms: C_19  and  N_20
REMARK    5  A    between atoms: C_24  and  C_25
REMARK    6  A    between atoms: C_24  and  C_26
REMARK                            x       y       z     vdW  Elec       q    Type
REMARK                         _______ _______ _______ _____ _____    ______ ____
ROOT
ATOM      1  C   UNL     1       3.888   5.197  17.143  0.00  0.00    +0.000 C 
ATOM      2  C   UNL     1       3.155   5.780  18.313  0.00  0.00    +0.000 A 
ATOM      3  C   UNL     1       2.928   5.068  19.423  0.00  0.00    +0.000 A 
ATOM      4  C   UNL     1       2.204   5.612  20.598  0.00  0.00    +0.000 A 
ATOM      5  O   UNL     1       2.060   4.859  21.559  0.00  0.00    +0.000 OA
ATOM      6  N   UNL     1       1.748   6.918  20.518  0.00  0.00    +0.000 N 
ATOM      7  C   UNL     1       1.988   7.713  19.356  0.00  0.00    +0.000 A 
ATOM      8  N   UNL     1       1.544   8.982  19.342  0.00  0.00    +0.000 NA
ATOM      9  C   UNL     1       1.786   9.743  18.267  0.00  0.00    +0.000 A 
ATOM     10  N   UNL     1       1.370  11.076  18.255  0.00  0.00    +0.000 N 
ATOM     11  N   UNL     1       2.439   9.307  17.188  0.00  0.00    +0.000 NA
ATOM     12  C   UNL     1       2.854   8.025  17.215  0.00  0.00    +0.000 A 
ATOM     13  C   UNL     1       2.672   7.165  18.281  0.00  0.00    +0.000 A 
ATOM     14  H   UNL     1       1.593  11.472  17.349  0.00  0.00    +0.000 HD
ENDROOT
BRANCH  10  15
ATOM     15  C   UNL     1       0.183  11.584  18.809  0.00  0.00    +0.000 A 
ATOM     16  C   UNL     1       0.243  12.336  19.981  0.00  0.00    +0.000 A 
ATOM     17  C   UNL     1      -0.924  12.868  20.552  0.00  0.00    +0.000 A 
ATOM     18  C   UNL     1      -2.186  12.699  19.965  0.00  0.00    +0.000 A 
ATOM     19  C   UNL     1      -2.220  11.949  18.782  0.00  0.00    +0.000 A 
ATOM     20  C   UNL     1      -1.064  11.406  18.212  0.00  0.00    +0.000 A 
BRANCH  18  21
ATOM     21  N   UNL     1      -3.325  13.249  20.509  0.00  0.00    +0.000 N 
ATOM     22  C   UNL     1      -4.675  12.912  20.036  0.00  0.00    +0.000 C 
ATOM     23  C   UNL     1      -5.547  12.428  21.218  0.00  0.00    +0.000 C 
ATOM     24  N   UNL     1      -5.560  13.329  22.386  0.00  0.00    +0.000 NA
ATOM     25  C   UNL     1      -4.183  13.680  22.822  0.00  0.00    +0.000 C 
ATOM     26  C   UNL     1      -3.509  12.479  23.517  0.00  0.00    +0.000 C 
ATOM     27  C   UNL     1      -4.320  14.813  23.856  0.00  0.00    +0.000 C 
ATOM     28  C   UNL     1      -3.307  14.197  21.636  0.00  0.00    +0.000 C 
ATOM     29  H   UNL     1      -6.057  12.875  23.151  0.00  0.00    +0.000 HD
ENDBRANCH  18  21
ENDBRANCH  10  15
BRANCH   6  30
ATOM     30  C   UNL     1       1.014   7.518  21.646  0.00  0.00    +0.000 C 
ATOM     31  C   UNL     1       1.678   8.765  22.235  0.00  0.00    +0.000 C 
ATOM     32  C   UNL     1       0.565   9.446  23.019  0.00  0.00    +0.000 C 
ATOM     33  C   UNL     1      -0.742   9.061  22.331  0.00  0.00    +0.000 C 
ATOM     34  C   UNL     1      -0.406   7.984  21.301  0.00  0.00    +0.000 C 
ENDBRANCH   6  30
TORSDOF 3
ENDMDL
MODEL 7
REMARK VINA RESULT:      -7.7      3.570      4.995
REMARK  Name = 
REMARK  6 active torsions:
REMARK  status: ('A' for Active; 'I' for Inactive)
REMARK    1  A    between atoms: C_1  and  C_2
REMARK    2  A    between atoms: N_6  and  C_7
REMARK    3  A    between atoms: N_15  and  C_16
REMARK    4  A    between atoms: C_19  and  N_20
REMARK    5  A    between atoms: C_24  and  C_25
REMARK    6  A    between atoms: C_24  and  C_26
REMARK                            x       y       z     vdW  Elec       q    Type
REMARK                         _______ _______ _______ _____ _____    ______ ____
ROOT
ATOM      1  C   UNL     1       2.205  16.263  19.492  0.00  0.00    +0.000 C 
ATOM      2  C   UNL     1       1.591  15.007  20.033  0.00  0.00    +0.000 A 
ATOM      3  C   UNL     1       0.828  15.017  21.131  0.00  0.00    +0.000 A 
ATOM      4  C   UNL     1       0.207  13.794  21.696  0.00  0.00    +0.000 A 
ATOM      5  O   UNL     1      -0.475  13.934  22.708  0.00  0.00    +0.000 OA
ATOM      6  N   UNL     1       0.448  12.596  21.041  0.00  0.00    +0.000 N 
ATOM      7  C   UNL     1       1.243  12.551  19.856  0.00  0.00    +0.000 A 
ATOM      8  N   UNL     1       1.424  11.365  19.247  0.00  0.00    +0.000 NA
ATOM      9  C   UNL     1       2.148  11.316  18.122  0.00  0.00    +0.000 A 
ATOM     10  N   UNL     1       2.308  10.101  17.454  0.00  0.00    +0.000 N 
ATOM     11  N   UNL     1       2.720  12.388  17.567  0.00  0.00    +0.000 NA
ATOM     12  C   UNL     1       2.545  13.561  18.207  0.00  0.00    +0.000 A 
ATOM     13  C   UNL     1       1.802  13.721  19.361  0.00  0.00    +0.000 A 
ATOM     14  H   UNL     1       2.922  10.249  16.662  0.00  0.00    +0.000 HD
ENDROOT
BRANCH  10  15
ATOM     15  C   UNL     1       2.462   8.837  18.049  0.00  0.00    +0.000 A 
ATOM     16  C   UNL     1       1.844   8.577  19.271  0.00  0.00    +0.000 A 
ATOM     17  C   UNL     1       1.968   7.320  19.883  0.00  0.00    +0.000 A 
ATOM     18  C   UNL     1       2.683   6.269  19.293  0.00  0.00    +0.000 A 
ATOM     19  C   UNL     1       3.286   6.550  18.060  0.00  0.00    +0.000 A 
ATOM     20  C   UNL     1       3.177   7.803  17.447  0.00  0.00    +0.000 A 
BRANCH  18  21
ATOM     21  N   UNL     1       2.777   5.026  19.880  0.00  0.00    +0.000 N 
ATOM     22  C   UNL     1       2.059   4.674  21.113  0.00  0.00    +0.000 C 
ATOM     23  C   UNL     1       1.211   3.400  20.889  0.00  0.00    +0.000 C 
ATOM     24  N   UNL     1       1.948   2.261  20.311  0.00  0.00    +0.000 NA
ATOM     25  C   UNL     1       2.692   2.653  19.085  0.00  0.00    +0.000 C 
ATOM     26  C   UNL     1       1.722   2.868  17.906  0.00  0.00    +0.000 C 
ATOM     27  C   UNL     1       3.618   1.476  18.730  0.00  0.00    +0.000 C 
ATOM     28  C   UNL     1       3.572   3.923  19.316  0.00  0.00    +0.000 C 
ATOM     29  H   UNL     1       1.289   1.516  20.089  0.00  0.00    +0.000 HD
ENDBRANCH  18  21
ENDBRANCH  10  15
BRANCH   6  30
ATOM     30  C   UNL     1      -0.130  11.342  21.553  0.00  0.00    +0.000 C 
ATOM     31  C   UNL     1       0.885  10.409  22.220  0.00  0.00    +0.000 C 
ATOM     32  C   UNL     1       0.032   9.459  23.047  0.00  0.00    +0.000 C 
ATOM     33  C   UNL     1      -1.232  10.229  23.419  0.00  0.00    +0.000 C 
ATOM     34  C   UNL     1      -1.213  11.532  22.622  0.00  0.00    +0.000 C 
ENDBRANCH   6  30
TORSDOF 3
ENDMDL
MODEL 8
REMARK VINA RESULT:      -7.7      1.080      1.420
REMARK  Name = 
REMARK  6 active torsions:
REMARK  status: ('A' for Active; 'I' for Inactive)
REMARK    1  A    between atoms: C_1  and  C_2
REMARK    2  A    between atoms: N_6  and  C_7
REMARK    3  A    between atoms: N_15  and  C_16
REMARK    4  A    between atoms: C_19  and  N_20
REMARK    5  A    between atoms: C_24  and  C_25
REMARK    6  A    between atoms: C_24  and  C_26
REMARK                            x       y       z     vdW  Elec       q    Type
REMARK                         _______ _______ _______ _____ _____    ______ ____
ROOT
ATOM      1  C   UNL     1      -4.049  14.208  22.435  0.00  0.00    +0.000 C 
ATOM      2  C   UNL     1      -3.697  13.310  21.288  0.00  0.00    +0.000 A 
ATOM      3  C   UNL     1      -4.512  13.164  20.236  0.00  0.00    +0.000 A 
ATOM      4  C   UNL     1      -4.197  12.283  19.086  0.00  0.00    +0.000 A 
ATOM      5  O   UNL     1      -5.026  12.234  18.180  0.00  0.00    +0.000 OA
ATOM      6  N   UNL     1      -3.000  11.584  19.126  0.00  0.00    +0.000 N 
ATOM      7  C   UNL     1      -2.098  11.730  20.224  0.00  0.00    +0.000 A 
ATOM      8  N   UNL     1      -0.940  11.047  20.199  0.00  0.00    +0.000 NA
ATOM      9  C   UNL     1      -0.077  11.195  21.212  0.00  0.00    +0.000 A 
ATOM     10  N   UNL     1       1.149  10.528  21.181  0.00  0.00    +0.000 N 
ATOM     11  N   UNL     1      -0.307  11.982  22.267  0.00  0.00    +0.000 NA
ATOM     12  C   UNL     1      -1.484  12.638  22.281  0.00  0.00    +0.000 A 
ATOM     13  C   UNL     1      -2.432  12.568  21.278  0.00  0.00    +0.000 A 
ATOM     14  H   UNL     1       1.640  10.720  22.046  0.00  0.00    +0.000 HD
ENDROOT
BRANCH  10  15
ATOM     15  C   UNL     1       1.382   9.235  20.683  0.00  0.00    +0.000 A 
ATOM     16  C   UNL     1       1.872   9.079  19.388  0.00  0.00    +0.000 A 
ATOM     17  C   UNL     1       2.127   7.801  18.866  0.00  0.00    +0.000 A 
ATOM     18  C   UNL     1       1.933   6.635  19.620  0.00  0.00    +0.000 A 
ATOM     19  C   UNL     1       1.450   6.817  20.923  0.00  0.00    +0.000 A 
ATOM     20  C   UNL     1       1.183   8.086  21.447  0.00  0.00    +0.000 A 
BRANCH  18  21
ATOM     21  N   UNL     1       2.214   5.384  19.118  0.00  0.00    +0.000 N 
ATOM     22  C   UNL     1       1.989   5.023  17.712  0.00  0.00    +0.000 C 
ATOM     23  C   UNL     1       3.292   4.470  17.090  0.00  0.00    +0.000 C 
ATOM     24  N   UNL     1       3.935   3.388  17.862  0.00  0.00    +0.000 NA
ATOM     25  C   UNL     1       4.119   3.767  19.287  0.00  0.00    +0.000 C 
ATOM     26  C   UNL     1       5.252   4.803  19.433  0.00  0.00    +0.000 C 
ATOM     27  C   UNL     1       4.542   2.491  20.036  0.00  0.00    +0.000 C 
ATOM     28  C   UNL     1       2.797   4.300  19.927  0.00  0.00    +0.000 C 
ATOM     29  H   UNL     1       4.839   3.173  17.444  0.00  0.00    +0.000 HD
ENDBRANCH  18  21
ENDBRANCH  10  15
BRANCH   6  30
ATOM     30  C   UNL     1      -2.629  10.684  18.021  0.00  0.00    +0.000 C 
ATOM     31  C   UNL     1      -3.726   9.691  17.625  0.00  0.00    +0.000 C 
ATOM     32  C   UNL     1      -3.320   9.222  16.235  0.00  0.00    +0.000 C 
ATOM     33  C   UNL     1      -2.532  10.368  15.608  0.00  0.00    +0.000 C 
ATOM     34  C   UNL     1      -2.288  11.399  16.708  0.00  0.00    +0.000 C 
ENDBRANCH   6  30
TORSDOF 3
ENDMDL
MODEL 9
REMARK VINA RESULT:      -7.6      0.867      1.574
REMARK  Name = 
REMARK  6 active torsions:
REMARK  status: ('A' for Active; 'I' for Inactive)
REMARK    1  A    between atoms: C_1  and  C_2
REMARK    2  A    between atoms: N_6  and  C_7
REMARK    3  A    between atoms: N_15  and  C_16
REMARK    4  A    between atoms: C_19  and  N_20
REMARK    5  A    between atoms: C_24  and  C_25
REMARK    6  A    between atoms: C_24  and  C_26
REMARK                            x       y       z     vdW  Elec       q    Type
REMARK                         _______ _______ _______ _____ _____    ______ ____
ROOT
ATOM      1  C   UNL     1      -4.752  14.395  21.982  0.00  0.00    +0.000 C 
ATOM      2  C   UNL     1      -4.252  13.483  20.905  0.00  0.00    +0.000 A 
ATOM      3  C   UNL     1      -4.980  13.221  19.813  0.00  0.00    +0.000 A 
ATOM      4  C   UNL     1      -4.518  12.322  18.728  0.00  0.00    +0.000 A 
ATOM      5  O   UNL     1      -5.278  12.163  17.776  0.00  0.00    +0.000 OA
ATOM      6  N   UNL     1      -3.273  11.732  18.877  0.00  0.00    +0.000 N 
ATOM      7  C   UNL     1      -2.460  12.002  20.020  0.00  0.00    +0.000 A 
ATOM      8  N   UNL     1      -1.250  11.421  20.100  0.00  0.00    +0.000 NA
ATOM      9  C   UNL     1      -0.471  11.687  21.156  0.00  0.00    +0.000 A 
ATOM     10  N   UNL     1       0.806  11.128  21.233  0.00  0.00    +0.000 N 
ATOM     11  N   UNL     1      -0.834  12.496  22.154  0.00  0.00    +0.000 NA
ATOM     12  C   UNL     1      -2.061  13.047  22.064  0.00  0.00    +0.000 A 
ATOM     13  C   UNL     1      -2.931  12.853  21.009  0.00  0.00    +0.000 A 
ATOM     14  H   UNL     1       1.222  11.398  22.117  0.00  0.00    +0.000 HD
ENDROOT
BRANCH  10  15
ATOM     15  C   UNL     1       1.178   9.838  20.813  0.00  0.00    +0.000 A 
ATOM     16  C   UNL     1       1.598   9.643  19.499  0.00  0.00    +0.000 A 
ATOM     17  C   UNL     1       1.989   8.370  19.054  0.00  0.00    +0.000 A 
ATOM     18  C   UNL     1       2.004   7.255  19.903  0.00  0.00    +0.000 A 
ATOM     19  C   UNL     1       1.588   7.478  21.222  0.00  0.00    +0.000 A 
ATOM     20  C   UNL     1       1.187   8.740  21.671  0.00  0.00    +0.000 A 
BRANCH  18  21
ATOM     21  N   UNL     1       2.418   6.013  19.473  0.00  0.00    +0.000 N 
ATOM     22  C   UNL     1       1.484   4.987  18.991  0.00  0.00    +0.000 C 
ATOM     23  C   UNL     1       1.899   4.510  17.579  0.00  0.00    +0.000 C 
ATOM     24  N   UNL     1       3.312   4.100  17.457  0.00  0.00    +0.000 NA
ATOM     25  C   UNL     1       4.232   5.142  17.982  0.00  0.00    +0.000 C 
ATOM     26  C   UNL     1       4.300   6.345  17.019  0.00  0.00    +0.000 C 
ATOM     27  C   UNL     1       5.633   4.506  18.048  0.00  0.00    +0.000 C 
ATOM     28  C   UNL     1       3.832   5.606  19.420  0.00  0.00    +0.000 C 
ATOM     29  H   UNL     1       3.522   3.920  16.476  0.00  0.00    +0.000 HD
ENDBRANCH  18  21
ENDBRANCH  10  15
BRANCH   6  30
ATOM     30  C   UNL     1      -2.756  10.820  17.841  0.00  0.00    +0.000 C 
ATOM     31  C   UNL     1      -3.659   9.616  17.557  0.00  0.00    +0.000 C 
ATOM     32  C   UNL     1      -3.189   9.109  16.202  0.00  0.00    +0.000 C 
ATOM     33  C   UNL     1      -2.626  10.319  15.461  0.00  0.00    +0.000 C 
ATOM     34  C   UNL     1      -2.562  11.468  16.465  0.00  0.00    +0.000 C 
ENDBRANCH   6  30
TORSDOF 3
ENDMDL
