MODEL 1
REMARK VINA RESULT:      -8.3      0.000      0.000
REMARK  Name = 
REMARK  3 active torsions:
REMARK  status: ('A' for Active; 'I' for Inactive)
REMARK    1  A    between atoms: C_5  and  N_6
REMARK    2  A    between atoms: N_6  and  C_7
REMARK    3  A    between atoms: C_17  and  C_18
REMARK                            x       y       z     vdW  Elec       q    Type
REMARK                         _______ _______ _______ _____ _____    ______ ____
ROOT
ATOM      1  C   UNL     1       2.882   6.589  18.729  0.00  0.00    +0.000 A 
ATOM      2  N   UNL     1       2.215   5.978  19.774  0.00  0.00    +0.000 N 
ATOM      3  C   UNL     1       2.103   4.583  19.902  0.00  0.00    +0.000 A 
ATOM      4  C   UNL     1       1.420   4.016  20.978  0.00  0.00    +0.000 A 
ATOM      5  C   UNL     1       1.373   2.627  21.126  0.00  0.00    +0.000 A 
ATOM      6  C   UNL     1       2.012   1.793  20.203  0.00  0.00    +0.000 A 
ATOM      7  C   UNL     1       2.705   2.341  19.123  0.00  0.00    +0.000 A 
ATOM      8  C   UNL     1       2.748   3.726  18.982  0.00  0.00    +0.000 A 
ATOM      9  C   UNL     1       3.478   4.369  17.894  0.00  0.00    +0.000 A 
ATOM     10  N   UNL     1       4.208   3.871  16.934  0.00  0.00    +0.000 NA
ATOM     11  C   UNL     1       4.654   5.018  16.271  0.00  0.00    +0.000 A 
ATOM     12  N   UNL     1       4.232   6.174  16.708  0.00  0.00    +0.000 NA
ATOM     13  C   UNL     1       3.475   5.826  17.790  0.00  0.00    +0.000 A 
ATOM     14  H   UNL     1       1.664   6.592  20.358  0.00  0.00    +0.000 HD
ENDROOT
BRANCH  11  15
ATOM     15  C   UNL     1       5.582   4.842  15.191  0.00  0.00    +0.000 A 
ATOM     16  C   UNL     1       5.572   4.038  14.067  0.00  0.00    +0.000 A 
ATOM     17  C   UNL     1       6.803   4.249  13.398  0.00  0.00    +0.000 A 
ATOM     18  C   UNL     1       7.490   5.174  14.146  0.00  0.00    +0.000 A 
ATOM     19  O   UNL     1       6.759   5.547  15.225  0.00  0.00    +0.000 OA
ENDBRANCH  11  15
BRANCH   1  20
ATOM     20  N   UNL     1       2.947   7.979  18.631  0.00  0.00    +0.000 N 
ATOM     21  H   UNL     1       3.609   8.304  19.346  0.00  0.00    +0.000 HD
BRANCH  20  26
ATOM     22 CL   UNL     1      -1.939  11.306  19.482  0.00  0.00    +0.000 Cl
ATOM     23  C   UNL     1      -0.513  10.354  19.271  0.00  0.00    +0.000 A 
ATOM     24  C   UNL     1      -0.073  10.120  17.968  0.00  0.00    +0.000 A 
ATOM     25  C   UNL     1       1.070   9.347  17.737  0.00  0.00    +0.000 A 
ATOM     26  C   UNL     1       1.773   8.773  18.805  0.00  0.00    +0.000 A 
ATOM     27  C   UNL     1       1.348   9.055  20.112  0.00  0.00    +0.000 A 
ATOM     28  C   UNL     1       0.204   9.826  20.347  0.00  0.00    +0.000 A 
ATOM     29 CL   UNL     1      -0.270  10.077  21.990  0.00  0.00    +0.000 Cl
ENDBRANCH  20  26
ENDBRANCH   1  20
TORSDOF 3
ENDMDL
MODEL 2
REMARK VINA RESULT:      -8.2      0.815      1.468
REMARK  Name = 
REMARK  3 active torsions:
REMARK  status: ('A' for Active; 'I' for Inactive)
REMARK    1  A    between atoms: C_5  and  N_6
REMARK    2  A    between atoms: N_6  and  C_7
REMARK    3  A    between atoms: C_17  and  C_18
REMARK                            x       y       z     vdW  Elec       q    Type
REMARK                         _______ _______ _______ _____ _____    ______ ____
ROOT
ATOM      1  C   UNL     1       2.939   6.945  18.491  0.00  0.00    +0.000 A 
ATOM      2  N   UNL     1       2.415   6.469  19.677  0.00  0.00    +0.000 N 
ATOM      3  C   UNL     1       2.493   5.120  20.063  0.00  0.00    +0.000 A 
ATOM      4  C   UNL     1       1.949   4.690  21.274  0.00  0.00    +0.000 A 
ATOM      5  C   UNL     1       2.092   3.358  21.673  0.00  0.00    +0.000 A 
ATOM      6  C   UNL     1       2.784   2.446  20.870  0.00  0.00    +0.000 A 
ATOM      7  C   UNL     1       3.340   2.858  19.658  0.00  0.00    +0.000 A 
ATOM      8  C   UNL     1       3.195   4.187  19.267  0.00  0.00    +0.000 A 
ATOM      9  C   UNL     1       3.775   4.695  18.028  0.00  0.00    +0.000 A 
ATOM     10  N   UNL     1       4.511   4.113  17.120  0.00  0.00    +0.000 NA
ATOM     11  C   UNL     1       4.767   5.159  16.228  0.00  0.00    +0.000 A 
ATOM     12  N   UNL     1       4.222   6.319  16.481  0.00  0.00    +0.000 NA
ATOM     13  C   UNL     1       3.576   6.094  17.662  0.00  0.00    +0.000 A 
ATOM     14  H   UNL     1       1.820   7.113  20.181  0.00  0.00    +0.000 HD
ENDROOT
BRANCH  11  15
ATOM     15  C   UNL     1       5.651   4.894  15.130  0.00  0.00    +0.000 A 
ATOM     16  C   UNL     1       5.600   3.995  14.081  0.00  0.00    +0.000 A 
ATOM     17  C   UNL     1       6.801   4.152  13.346  0.00  0.00    +0.000 A 
ATOM     18  C   UNL     1       7.512   5.141  13.981  0.00  0.00    +0.000 A 
ATOM     19  O   UNL     1       6.824   5.604  15.054  0.00  0.00    +0.000 OA
ENDBRANCH  11  15
BRANCH   1  20
ATOM     20  N   UNL     1       2.817   8.290  18.139  0.00  0.00    +0.000 N 
ATOM     21  H   UNL     1       3.642   8.778  18.509  0.00  0.00    +0.000 HD
BRANCH  20  26
ATOM     22 CL   UNL     1      -1.956  11.444  19.852  0.00  0.00    +0.000 Cl
ATOM     23  C   UNL     1      -0.598  10.512  19.331  0.00  0.00    +0.000 A 
ATOM     24  C   UNL     1       0.453  10.333  20.231  0.00  0.00    +0.000 A 
ATOM     25  C   UNL     1       1.583   9.597  19.860  0.00  0.00    +0.000 A 
ATOM     26  C   UNL     1       1.691   9.053  18.573  0.00  0.00    +0.000 A 
ATOM     27  C   UNL     1       0.607   9.199  17.693  0.00  0.00    +0.000 A 
ATOM     28  C   UNL     1      -0.523   9.937  18.060  0.00  0.00    +0.000 A 
ATOM     29 CL   UNL     1      -1.785  10.105  16.891  0.00  0.00    +0.000 Cl
ENDBRANCH  20  26
ENDBRANCH   1  20
TORSDOF 3
ENDMDL
MODEL 3
REMARK VINA RESULT:      -8.0      4.852      9.503
REMARK  Name = 
REMARK  3 active torsions:
REMARK  status: ('A' for Active; 'I' for Inactive)
REMARK    1  A    between atoms: C_5  and  N_6
REMARK    2  A    between atoms: N_6  and  C_7
REMARK    3  A    between atoms: C_17  and  C_18
REMARK                            x       y       z     vdW  Elec       q    Type
REMARK                         _______ _______ _______ _____ _____    ______ ____
ROOT
ATOM      1  C   UNL     1       0.041  10.427  18.647  0.00  0.00    +0.000 A 
ATOM      2  N   UNL     1      -0.604  10.057  17.483  0.00  0.00    +0.000 N 
ATOM      3  C   UNL     1      -1.936  10.404  17.200  0.00  0.00    +0.000 A 
ATOM      4  C   UNL     1      -2.540  10.006  16.006  0.00  0.00    +0.000 A 
ATOM      5  C   UNL     1      -3.844  10.415  15.711  0.00  0.00    +0.000 A 
ATOM      6  C   UNL     1      -4.553  11.228  16.600  0.00  0.00    +0.000 A 
ATOM      7  C   UNL     1      -3.964  11.641  17.797  0.00  0.00    +0.000 A 
ATOM      8  C   UNL     1      -2.663  11.231  18.085  0.00  0.00    +0.000 A 
ATOM      9  C   UNL     1      -1.974  11.648  19.301  0.00  0.00    +0.000 A 
ATOM     10  N   UNL     1      -2.343  12.438  20.273  0.00  0.00    +0.000 NA
ATOM     11  C   UNL     1      -1.211  12.452  21.093  0.00  0.00    +0.000 A 
ATOM     12  N   UNL     1      -0.196  11.710  20.739  0.00  0.00    +0.000 NA
ATOM     13  C   UNL     1      -0.617  11.173  19.556  0.00  0.00    +0.000 A 
ATOM     14  H   UNL     1      -0.120   9.375  16.914  0.00  0.00    +0.000 HD
ENDROOT
BRANCH  11  15
ATOM     15  C   UNL     1      -1.231  13.318  22.236  0.00  0.00    +0.000 A 
ATOM     16  C   UNL     1      -2.054  13.391  23.345  0.00  0.00    +0.000 A 
ATOM     17  C   UNL     1      -1.622  14.505  24.107  0.00  0.00    +0.000 A 
ATOM     18  C   UNL     1      -0.557  15.044  23.425  0.00  0.00    +0.000 A 
ATOM     19  O   UNL     1      -0.305  14.330  22.300  0.00  0.00    +0.000 OA
ENDBRANCH  11  15
BRANCH   1  20
ATOM     20  N   UNL     1       1.357  10.039  18.896  0.00  0.00    +0.000 N 
ATOM     21  H   UNL     1       1.891  10.202  18.033  0.00  0.00    +0.000 HD
BRANCH  20  26
ATOM     22 CL   UNL     1       2.678   4.417  20.418  0.00  0.00    +0.000 Cl
ATOM     23  C   UNL     1       2.326   6.042  19.953  0.00  0.00    +0.000 A 
ATOM     24  C   UNL     1       1.668   6.856  20.876  0.00  0.00    +0.000 A 
ATOM     25  C   UNL     1       1.348   8.178  20.549  0.00  0.00    +0.000 A 
ATOM     26  C   UNL     1       1.656   8.697  19.284  0.00  0.00    +0.000 A 
ATOM     27  C   UNL     1       2.360   7.884  18.383  0.00  0.00    +0.000 A 
ATOM     28  C   UNL     1       2.679   6.561  18.705  0.00  0.00    +0.000 A 
ATOM     29 CL   UNL     1       3.503   5.621  17.510  0.00  0.00    +0.000 Cl
ENDBRANCH  20  26
ENDBRANCH   1  20
TORSDOF 3
ENDMDL
MODEL 4
REMARK VINA RESULT:      -7.8      4.892      9.635
REMARK  Name = 
REMARK  3 active torsions:
REMARK  status: ('A' for Active; 'I' for Inactive)
REMARK    1  A    between atoms: C_5  and  N_6
REMARK    2  A    between atoms: N_6  and  C_7
REMARK    3  A    between atoms: C_17  and  C_18
REMARK                            x       y       z     vdW  Elec       q    Type
REMARK                         _______ _______ _______ _____ _____    ______ ____
ROOT
ATOM      1  C   UNL     1      -0.023  10.525  19.007  0.00  0.00    +0.000 A 
ATOM      2  N   UNL     1      -0.530  10.140  17.781  0.00  0.00    +0.000 N 
ATOM      3  C   UNL     1      -1.841  10.432  17.368  0.00  0.00    +0.000 A 
ATOM      4  C   UNL     1      -2.305  10.022  16.117  0.00  0.00    +0.000 A 
ATOM      5  C   UNL     1      -3.589  10.377  15.694  0.00  0.00    +0.000 A 
ATOM      6  C   UNL     1      -4.419  11.149  16.514  0.00  0.00    +0.000 A 
ATOM      7  C   UNL     1      -3.971  11.574  17.766  0.00  0.00    +0.000 A 
ATOM      8  C   UNL     1      -2.690  11.217  18.181  0.00  0.00    +0.000 A 
ATOM      9  C   UNL     1      -2.145  11.650  19.463  0.00  0.00    +0.000 A 
ATOM     10  N   UNL     1      -2.644  12.413  20.398  0.00  0.00    +0.000 NA
ATOM     11  C   UNL     1      -1.602  12.466  21.328  0.00  0.00    +0.000 A 
ATOM     12  N   UNL     1      -0.525  11.774  21.073  0.00  0.00    +0.000 NA
ATOM     13  C   UNL     1      -0.801  11.232  19.850  0.00  0.00    +0.000 A 
ATOM     14  H   UNL     1       0.038   9.486  17.260  0.00  0.00    +0.000 HD
ENDROOT
BRANCH  11  15
ATOM     15  C   UNL     1      -1.774  13.319  22.469  0.00  0.00    +0.000 A 
ATOM     16  C   UNL     1      -0.911  14.148  23.160  0.00  0.00    +0.000 A 
ATOM     17  C   UNL     1      -1.640  14.686  24.250  0.00  0.00    +0.000 A 
ATOM     18  C   UNL     1      -2.906  14.162  24.158  0.00  0.00    +0.000 A 
ATOM     19  O   UNL     1      -3.003  13.343  23.081  0.00  0.00    +0.000 OA
ENDBRANCH  11  15
BRANCH   1  20
ATOM     20  N   UNL     1       1.278  10.191  19.384  0.00  0.00    +0.000 N 
ATOM     21  H   UNL     1       1.906  10.886  18.962  0.00  0.00    +0.000 HD
BRANCH  20  26
ATOM     22 CL   UNL     1       3.518   4.818  18.052  0.00  0.00    +0.000 Cl
ATOM     23  C   UNL     1       2.845   6.354  18.461  0.00  0.00    +0.000 A 
ATOM     24  C   UNL     1       2.964   7.387  17.530  0.00  0.00    +0.000 A 
ATOM     25  C   UNL     1       2.446   8.655  17.812  0.00  0.00    +0.000 A 
ATOM     26  C   UNL     1       1.828   8.918  19.042  0.00  0.00    +0.000 A 
ATOM     27  C   UNL     1       1.672   7.860  19.950  0.00  0.00    +0.000 A 
ATOM     28  C   UNL     1       2.190   6.590  19.673  0.00  0.00    +0.000 A 
ATOM     29 CL   UNL     1       1.993   5.364  20.874  0.00  0.00    +0.000 Cl
ENDBRANCH  20  26
ENDBRANCH   1  20
TORSDOF 3
ENDMDL
MODEL 5
REMARK VINA RESULT:      -7.8      4.197      7.134
REMARK  Name = 
REMARK  3 active torsions:
REMARK  status: ('A' for Active; 'I' for Inactive)
REMARK    1  A    between atoms: C_5  and  N_6
REMARK    2  A    between atoms: N_6  and  C_7
REMARK    3  A    between atoms: C_17  and  C_18
REMARK                            x       y       z     vdW  Elec       q    Type
REMARK                         _______ _______ _______ _____ _____    ______ ____
ROOT
ATOM      1  C   UNL     1       4.731   5.621  18.104  0.00  0.00    +0.000 A 
ATOM      2  N   UNL     1       4.891   4.337  18.587  0.00  0.00    +0.000 N 
ATOM      3  C   UNL     1       4.095   3.799  19.613  0.00  0.00    +0.000 A 
ATOM      4  C   UNL     1       4.296   2.494  20.065  0.00  0.00    +0.000 A 
ATOM      5  C   UNL     1       3.454   1.952  21.040  0.00  0.00    +0.000 A 
ATOM      6  C   UNL     1       2.400   2.705  21.567  0.00  0.00    +0.000 A 
ATOM      7  C   UNL     1       2.180   4.010  21.124  0.00  0.00    +0.000 A 
ATOM      8  C   UNL     1       3.022   4.544  20.152  0.00  0.00    +0.000 A 
ATOM      9  C   UNL     1       2.833   5.890  19.621  0.00  0.00    +0.000 A 
ATOM     10  N   UNL     1       1.921   6.792  19.865  0.00  0.00    +0.000 NA
ATOM     11  C   UNL     1       2.286   7.827  18.999  0.00  0.00    +0.000 A 
ATOM     12  N   UNL     1       3.361   7.663  18.275  0.00  0.00    +0.000 NA
ATOM     13  C   UNL     1       3.758   6.401  18.613  0.00  0.00    +0.000 A 
ATOM     14  H   UNL     1       5.726   3.856  18.281  0.00  0.00    +0.000 HD
ENDROOT
BRANCH  11  15
ATOM     15  C   UNL     1       1.423   8.972  18.933  0.00  0.00    +0.000 A 
ATOM     16  C   UNL     1       1.199   9.923  17.955  0.00  0.00    +0.000 A 
ATOM     17  C   UNL     1       0.278  10.856  18.491  0.00  0.00    +0.000 A 
ATOM     18  C   UNL     1      -0.015  10.418  19.760  0.00  0.00    +0.000 A 
ATOM     19  O   UNL     1       0.663   9.276  20.034  0.00  0.00    +0.000 OA
ENDBRANCH  11  15
BRANCH   1  20
ATOM     20  N   UNL     1       5.562   6.120  17.100  0.00  0.00    +0.000 N 
ATOM     21  H   UNL     1       5.174   7.025  16.806  0.00  0.00    +0.000 HD
BRANCH  20  26
ATOM     22 CL   UNL     1       6.533   3.086  12.048  0.00  0.00    +0.000 Cl
ATOM     23  C   UNL     1       6.290   3.973  13.510  0.00  0.00    +0.000 A 
ATOM     24  C   UNL     1       5.231   3.592  14.335  0.00  0.00    +0.000 A 
ATOM     25  C   UNL     1       4.981   4.282  15.526  0.00  0.00    +0.000 A 
ATOM     26  C   UNL     1       5.767   5.381  15.896  0.00  0.00    +0.000 A 
ATOM     27  C   UNL     1       6.858   5.725  15.082  0.00  0.00    +0.000 A 
ATOM     28  C   UNL     1       7.110   5.039  13.889  0.00  0.00    +0.000 A 
ATOM     29 CL   UNL     1       8.447   5.567  12.928  0.00  0.00    +0.000 Cl
ENDBRANCH  20  26
ENDBRANCH   1  20
TORSDOF 3
ENDMDL
MODEL 6
REMARK VINA RESULT:      -7.6      4.470      8.873
REMARK  Name = 
REMARK  3 active torsions:
REMARK  status: ('A' for Active; 'I' for Inactive)
REMARK    1  A    between atoms: C_5  and  N_6
REMARK    2  A    between atoms: N_6  and  C_7
REMARK    3  A    between atoms: C_17  and  C_18
REMARK                            x       y       z     vdW  Elec       q    Type
REMARK                         _______ _______ _______ _____ _____    ______ ____
ROOT
ATOM      1  C   UNL     1       0.658  10.387  18.183  0.00  0.00    +0.000 A 
ATOM      2  N   UNL     1      -0.520   9.955  17.604  0.00  0.00    +0.000 N 
ATOM      3  C   UNL     1      -1.778  10.482  17.942  0.00  0.00    +0.000 A 
ATOM      4  C   UNL     1      -2.939  10.012  17.326  0.00  0.00    +0.000 A 
ATOM      5  C   UNL     1      -4.176  10.591  17.626  0.00  0.00    +0.000 A 
ATOM      6  C   UNL     1      -4.263  11.647  18.538  0.00  0.00    +0.000 A 
ATOM      7  C   UNL     1      -3.113  12.135  19.160  0.00  0.00    +0.000 A 
ATOM      8  C   UNL     1      -1.884  11.554  18.857  0.00  0.00    +0.000 A 
ATOM      9  C   UNL     1      -0.637  12.032  19.446  0.00  0.00    +0.000 A 
ATOM     10  N   UNL     1      -0.395  13.019  20.265  0.00  0.00    +0.000 NA
ATOM     11  C   UNL     1       0.996  12.964  20.396  0.00  0.00    +0.000 A 
ATOM     12  N   UNL     1       1.627  12.009  19.767  0.00  0.00    +0.000 NA
ATOM     13  C   UNL     1       0.619  11.373  19.101  0.00  0.00    +0.000 A 
ATOM     14  H   UNL     1      -0.449   9.118  17.043  0.00  0.00    +0.000 HD
ENDROOT
BRANCH  11  15
ATOM     15  C   UNL     1       1.631  13.991  21.170  0.00  0.00    +0.000 A 
ATOM     16  C   UNL     1       1.164  15.160  21.742  0.00  0.00    +0.000 A 
ATOM     17  C   UNL     1       2.279  15.806  22.331  0.00  0.00    +0.000 A 
ATOM     18  C   UNL     1       3.360  14.993  22.093  0.00  0.00    +0.000 A 
ATOM     19  O   UNL     1       2.980  13.889  21.402  0.00  0.00    +0.000 OA
ENDBRANCH  11  15
BRANCH   1  20
ATOM     20  N   UNL     1       1.883   9.818  17.833  0.00  0.00    +0.000 N 
ATOM     21  H   UNL     1       1.902   9.743  16.809  0.00  0.00    +0.000 HD
BRANCH  20  26
ATOM     22 CL   UNL     1       3.488   4.404  19.777  0.00  0.00    +0.000 Cl
ATOM     23  C   UNL     1       3.056   5.971  19.193  0.00  0.00    +0.000 A 
ATOM     24  C   UNL     1       2.255   6.773  20.008  0.00  0.00    +0.000 A 
ATOM     25  C   UNL     1       1.866   8.046  19.581  0.00  0.00    +0.000 A 
ATOM     26  C   UNL     1       2.247   8.526  18.321  0.00  0.00    +0.000 A 
ATOM     27  C   UNL     1       3.091   7.730  17.531  0.00  0.00    +0.000 A 
ATOM     28  C   UNL     1       3.480   6.455  17.953  0.00  0.00    +0.000 A 
ATOM     29 CL   UNL     1       4.480   5.529  16.889  0.00  0.00    +0.000 Cl
ENDBRANCH  20  26
ENDBRANCH   1  20
TORSDOF 3
ENDMDL
MODEL 7
REMARK VINA RESULT:      -7.5      4.227      6.351
REMARK  Name = 
REMARK  3 active torsions:
REMARK  status: ('A' for Active; 'I' for Inactive)
REMARK    1  A    between atoms: C_5  and  N_6
REMARK    2  A    between atoms: N_6  and  C_7
REMARK    3  A    between atoms: C_17  and  C_18
REMARK                            x       y       z     vdW  Elec       q    Type
REMARK                         _______ _______ _______ _____ _____    ______ ____
ROOT
ATOM      1  C   UNL     1       1.142  11.554  18.888  0.00  0.00    +0.000 A 
ATOM      2  N   UNL     1       0.416  12.009  19.972  0.00  0.00    +0.000 N 
ATOM      3  C   UNL     1      -0.018  11.168  21.011  0.00  0.00    +0.000 A 
ATOM      4  C   UNL     1      -0.748  11.678  22.085  0.00  0.00    +0.000 A 
ATOM      5  C   UNL     1      -1.116  10.841  23.143  0.00  0.00    +0.000 A 
ATOM      6  C   UNL     1      -0.753   9.491  23.140  0.00  0.00    +0.000 A 
ATOM      7  C   UNL     1      -0.018   8.963  22.076  0.00  0.00    +0.000 A 
ATOM      8  C   UNL     1       0.346   9.803  21.026  0.00  0.00    +0.000 A 
ATOM      9  C   UNL     1       1.139   9.327  19.897  0.00  0.00    +0.000 A 
ATOM     10  N   UNL     1       1.668   8.160  19.646  0.00  0.00    +0.000 NA
ATOM     11  C   UNL     1       2.332   8.387  18.437  0.00  0.00    +0.000 A 
ATOM     12  N   UNL     1       2.226   9.573  17.900  0.00  0.00    +0.000 NA
ATOM     13  C   UNL     1       1.477  10.251  18.818  0.00  0.00    +0.000 A 
ATOM     14  H   UNL     1       0.064  12.953  19.896  0.00  0.00    +0.000 HD
ENDROOT
BRANCH  11  15
ATOM     15  C   UNL     1       3.122   7.315  17.903  0.00  0.00    +0.000 A 
ATOM     16  C   UNL     1       4.241   7.288  17.093  0.00  0.00    +0.000 A 
ATOM     17  C   UNL     1       4.535   5.925  16.842  0.00  0.00    +0.000 A 
ATOM     18  C   UNL     1       3.586   5.198  17.519  0.00  0.00    +0.000 A 
ATOM     19  O   UNL     1       2.733   6.026  18.172  0.00  0.00    +0.000 OA
ENDBRANCH  11  15
BRANCH   1  20
ATOM     20  N   UNL     1       1.531  12.422  17.867  0.00  0.00    +0.000 N 
ATOM     21  H   UNL     1       2.071  11.872  17.188  0.00  0.00    +0.000 HD
BRANCH  20  26
ATOM     22 CL   UNL     1       4.980  17.159  19.022  0.00  0.00    +0.000 Cl
ATOM     23  C   UNL     1       4.009  15.778  18.661  0.00  0.00    +0.000 A 
ATOM     24  C   UNL     1       2.636  15.868  18.894  0.00  0.00    +0.000 A 
ATOM     25  C   UNL     1       1.802  14.776  18.630  0.00  0.00    +0.000 A 
ATOM     26  C   UNL     1       2.333  13.568  18.157  0.00  0.00    +0.000 A 
ATOM     27  C   UNL     1       3.708  13.506  17.883  0.00  0.00    +0.000 A 
ATOM     28  C   UNL     1       4.545  14.594  18.147  0.00  0.00    +0.000 A 
ATOM     29 CL   UNL     1       6.233  14.405  17.824  0.00  0.00    +0.000 Cl
ENDBRANCH  20  26
ENDBRANCH   1  20
TORSDOF 3
ENDMDL
MODEL 8
REMARK VINA RESULT:      -7.5      4.076      7.230
REMARK  Name = 
REMARK  3 active torsions:
REMARK  status: ('A' for Active; 'I' for Inactive)
REMARK    1  A    between atoms: C_5  and  N_6
REMARK    2  A    between atoms: N_6  and  C_7
REMARK    3  A    between atoms: C_17  and  C_18
REMARK                            x       y       z     vdW  Elec       q    Type
REMARK                         _______ _______ _______ _____ _____    ______ ____
ROOT
ATOM      1  C   UNL     1      -0.896  11.202  20.330  0.00  0.00    +0.000 A 
ATOM      2  N   UNL     1      -2.103  11.684  19.863  0.00  0.00    +0.000 N 
ATOM      3  C   UNL     1      -2.588  11.416  18.571  0.00  0.00    +0.000 A 
ATOM      4  C   UNL     1      -3.816  11.926  18.148  0.00  0.00    +0.000 A 
ATOM      5  C   UNL     1      -4.315  11.597  16.884  0.00  0.00    +0.000 A 
ATOM      6  C   UNL     1      -3.595  10.751  16.035  0.00  0.00    +0.000 A 
ATOM      7  C   UNL     1      -2.367  10.226  16.442  0.00  0.00    +0.000 A 
ATOM      8  C   UNL     1      -1.877  10.558  17.703  0.00  0.00    +0.000 A 
ATOM      9  C   UNL     1      -0.616  10.023  18.206  0.00  0.00    +0.000 A 
ATOM     10  N   UNL     1       0.232   9.179  17.683  0.00  0.00    +0.000 NA
ATOM     11  C   UNL     1       1.193   9.056  18.691  0.00  0.00    +0.000 A 
ATOM     12  N   UNL     1       1.037   9.778  19.769  0.00  0.00    +0.000 NA
ATOM     13  C   UNL     1      -0.145  10.419  19.531  0.00  0.00    +0.000 A 
ATOM     14  H   UNL     1      -2.546  12.385  20.441  0.00  0.00    +0.000 HD
ENDROOT
BRANCH  11  15
ATOM     15  C   UNL     1       2.251   8.109  18.488  0.00  0.00    +0.000 A 
ATOM     16  C   UNL     1       3.216   7.977  17.508  0.00  0.00    +0.000 A 
ATOM     17  C   UNL     1       3.946   6.799  17.804  0.00  0.00    +0.000 A 
ATOM     18  C   UNL     1       3.391   6.285  18.951  0.00  0.00    +0.000 A 
ATOM     19  O   UNL     1       2.374   7.072  19.379  0.00  0.00    +0.000 OA
ENDBRANCH  11  15
BRANCH   1  20
ATOM     20  N   UNL     1      -0.444  11.514  21.612  0.00  0.00    +0.000 N 
ATOM     21  H   UNL     1      -0.444  10.642  22.156  0.00  0.00    +0.000 HD
BRANCH  20  26
ATOM     22 CL   UNL     1      -3.435  15.407  25.013  0.00  0.00    +0.000 Cl
ATOM     23  C   UNL     1      -2.585  14.252  24.052  0.00  0.00    +0.000 A 
ATOM     24  C   UNL     1      -1.427  14.676  23.396  0.00  0.00    +0.000 A 
ATOM     25  C   UNL     1      -0.704  13.786  22.595  0.00  0.00    +0.000 A 
ATOM     26  C   UNL     1      -1.142  12.467  22.414  0.00  0.00    +0.000 A 
ATOM     27  C   UNL     1      -2.281  12.040  23.116  0.00  0.00    +0.000 A 
ATOM     28  C   UNL     1      -3.008  12.927  23.916  0.00  0.00    +0.000 A 
ATOM     29 CL   UNL     1      -4.425  12.322  24.701  0.00  0.00    +0.000 Cl
ENDBRANCH  20  26
ENDBRANCH   1  20
TORSDOF 3
ENDMDL
MODEL 9
REMARK VINA RESULT:      -7.5      4.216      7.364
REMARK  Name = 
REMARK  3 active torsions:
REMARK  status: ('A' for Active; 'I' for Inactive)
REMARK    1  A    between atoms: C_5  and  N_6
REMARK    2  A    between atoms: N_6  and  C_7
REMARK    3  A    between atoms: C_17  and  C_18
REMARK                            x       y       z     vdW  Elec       q    Type
REMARK                         _______ _______ _______ _____ _____    ______ ____
ROOT
ATOM      1  C   UNL     1       4.445   5.384  16.768  0.00  0.00    +0.000 A 
ATOM      2  N   UNL     1       4.376   4.015  16.944  0.00  0.00    +0.000 N 
ATOM      3  C   UNL     1       3.553   3.406  17.906  0.00  0.00    +0.000 A 
ATOM      4  C   UNL     1       3.519   2.017  18.043  0.00  0.00    +0.000 A 
ATOM      5  C   UNL     1       2.647   1.424  18.960  0.00  0.00    +0.000 A 
ATOM      6  C   UNL     1       1.798   2.211  19.745  0.00  0.00    +0.000 A 
ATOM      7  C   UNL     1       1.814   3.601  19.620  0.00  0.00    +0.000 A 
ATOM      8  C   UNL     1       2.685   4.186  18.702  0.00  0.00    +0.000 A 
ATOM      9  C   UNL     1       2.734   5.630  18.497  0.00  0.00    +0.000 A 
ATOM     10  N   UNL     1       2.036   6.599  19.024  0.00  0.00    +0.000 NA
ATOM     11  C   UNL     1       2.544   7.724  18.368  0.00  0.00    +0.000 A 
ATOM     12  N   UNL     1       3.519   7.542  17.518  0.00  0.00    +0.000 NA
ATOM     13  C   UNL     1       3.678   6.186  17.532  0.00  0.00    +0.000 A 
ATOM     14  H   UNL     1       5.079   3.477  16.455  0.00  0.00    +0.000 HD
ENDROOT
BRANCH  11  15
ATOM     15  C   UNL     1       1.923   8.988  18.641  0.00  0.00    +0.000 A 
ATOM     16  C   UNL     1       1.926  10.199  17.973  0.00  0.00    +0.000 A 
ATOM     17  C   UNL     1       1.183  11.108  18.766  0.00  0.00    +0.000 A 
ATOM     18  C   UNL     1       0.763  10.401  19.866  0.00  0.00    +0.000 A 
ATOM     19  O   UNL     1       1.195   9.118  19.797  0.00  0.00    +0.000 OA
ENDBRANCH  11  15
BRANCH   1  20
ATOM     20  N   UNL     1       5.294   5.945  15.814  0.00  0.00    +0.000 N 
ATOM     21  H   UNL     1       4.787   6.722  15.374  0.00  0.00    +0.000 HD
BRANCH  20  26
ATOM     22 CL   UNL     1       7.280   2.635  11.257  0.00  0.00    +0.000 Cl
ATOM     23  C   UNL     1       6.673   3.600  12.554  0.00  0.00    +0.000 A 
ATOM     24  C   UNL     1       7.599   4.177  13.425  0.00  0.00    +0.000 A 
ATOM     25  C   UNL     1       7.164   4.960  14.499  0.00  0.00    +0.000 A 
ATOM     26  C   UNL     1       5.797   5.154  14.736  0.00  0.00    +0.000 A 
ATOM     27  C   UNL     1       4.878   4.608  13.827  0.00  0.00    +0.000 A 
ATOM     28  C   UNL     1       5.308   3.822  12.752  0.00  0.00    +0.000 A 
ATOM     29 CL   UNL     1       4.100   3.151  11.715  0.00  0.00    +0.000 Cl
ENDBRANCH  20  26
ENDBRANCH   1  20
TORSDOF 3
ENDMDL
