MODEL 1
REMARK VINA RESULT:      -6.6      0.000      0.000
REMARK  Name = 
REMARK  15 active torsions:
REMARK  status: ('A' for Active; 'I' for Inactive)
REMARK    1  A    between atoms: C_1  and  N_2
REMARK    2  A    between atoms: N_2  and  C_3
REMARK    3  A    between atoms: N_2  and  C_18
REMARK    4  A    between atoms: C_3  and  C_4
REMARK    5  A    between atoms: C_4  and  C_5
REMARK    6  A    between atoms: C_5  and  O_6
REMARK    7  A    between atoms: O_6  and  C_7
REMARK    8  A    between atoms: C_10  and  N_11
REMARK    9  A    between atoms: N_11  and  S_12
REMARK   10  A    between atoms: S_12  and  C_13
REMARK   11  A    between atoms: C_18  and  C_19
REMARK   12  A    between atoms: C_19  and  C_20
REMARK   13  A    between atoms: C_23  and  N_24
REMARK   14  A    between atoms: N_24  and  S_25
REMARK   15  A    between atoms: S_25  and  C_26
REMARK                            x       y       z     vdW  Elec       q    Type
REMARK                         _______ _______ _______ _____ _____    ______ ____
ROOT
ATOM      1  C   UNL     1      -1.100  11.223  19.486  0.00  0.00    +0.000 C 
ATOM      2  N   UNL     1       0.238  11.339  18.870  0.00  0.00    +0.000 NA
ENDROOT
BRANCH   2   3
ATOM      3  C   UNL     1       0.889  12.583  19.359  0.00  0.00    +0.000 C 
BRANCH   3   4
ATOM      4  C   UNL     1       0.918  12.714  20.898  0.00  0.00    +0.000 C 
BRANCH   4   5
ATOM      5  C   UNL     1       0.188  13.967  21.372  0.00  0.00    +0.000 C 
BRANCH   5   6
ATOM      6  O   UNL     1      -0.107  13.859  22.718  0.00  0.00    +0.000 OA
BRANCH   6   7
ATOM      7  C   UNL     1      -1.332  13.548  23.223  0.00  0.00    +0.000 A 
ATOM      8  C   UNL     1      -2.103  14.481  23.944  0.00  0.00    +0.000 A 
ATOM      9  C   UNL     1      -3.345  14.116  24.458  0.00  0.00    +0.000 A 
ATOM     10  C   UNL     1      -3.849  12.828  24.249  0.00  0.00    +0.000 A 
ATOM     11  C   UNL     1      -3.095  11.896  23.519  0.00  0.00    +0.000 A 
ATOM     12  C   UNL     1      -1.838  12.258  23.020  0.00  0.00    +0.000 A 
BRANCH  10  13
ATOM     13  N   UNL     1      -5.119  12.488  24.778  0.00  0.00    +0.000 N 
ATOM     14  H   UNL     1      -5.308  12.816  25.734  0.00  0.00    +0.000 HD
BRANCH  13  15
ATOM     15  S   UNL     1      -6.523  12.754  23.759  0.00  0.00    +0.000 S 
ATOM     16  C   UNL     1      -6.198  13.229  22.033  0.00  0.00    +0.000 C 
ATOM     17  O   UNL     1      -7.398  11.504  23.922  0.00  0.00    +0.000 OA
ATOM     18  O   UNL     1      -7.336  13.819  24.513  0.00  0.00    +0.000 OA
ENDBRANCH  13  15
ENDBRANCH  10  13
ENDBRANCH   6   7
ENDBRANCH   5   6
ENDBRANCH   4   5
ENDBRANCH   3   4
ENDBRANCH   2   3
BRANCH   2  19
ATOM     19  C   UNL     1       1.065  10.144  19.168  0.00  0.00    +0.000 C 
BRANCH  19  20
ATOM     20  C   UNL     1       1.867   9.640  17.952  0.00  0.00    +0.000 C 
BRANCH  20  21
ATOM     21  C   UNL     1       2.437   8.267  18.217  0.00  0.00    +0.000 A 
ATOM     22  C   UNL     1       3.485   7.767  17.426  0.00  0.00    +0.000 A 
ATOM     23  C   UNL     1       3.995   6.488  17.656  0.00  0.00    +0.000 A 
ATOM     24  C   UNL     1       3.484   5.699  18.695  0.00  0.00    +0.000 A 
ATOM     25  C   UNL     1       2.453   6.199  19.501  0.00  0.00    +0.000 A 
ATOM     26  C   UNL     1       1.927   7.471  19.259  0.00  0.00    +0.000 A 
BRANCH  24  27
ATOM     27  N   UNL     1       4.014   4.407  18.922  0.00  0.00    +0.000 N 
ATOM     28  H   UNL     1       3.974   4.067  19.893  0.00  0.00    +0.000 HD
BRANCH  27  29
ATOM     29  S   UNL     1       3.560   3.140  17.799  0.00  0.00    +0.000 S 
ATOM     30  C   UNL     1       3.658   1.437  18.435  0.00  0.00    +0.000 C 
ATOM     31  O   UNL     1       2.180   3.538  17.258  0.00  0.00    +0.000 OA
ATOM     32  O   UNL     1       4.469   3.369  16.584  0.00  0.00    +0.000 OA
ENDBRANCH  27  29
ENDBRANCH  24  27
ENDBRANCH  20  21
ENDBRANCH  19  20
ENDBRANCH   2  19
TORSDOF 12
ENDMDL
MODEL 2
REMARK VINA RESULT:      -6.5      2.672     11.869
REMARK  Name = 
REMARK  15 active torsions:
REMARK  status: ('A' for Active; 'I' for Inactive)
REMARK    1  A    between atoms: C_1  and  N_2
REMARK    2  A    between atoms: N_2  and  C_3
REMARK    3  A    between atoms: N_2  and  C_18
REMARK    4  A    between atoms: C_3  and  C_4
REMARK    5  A    between atoms: C_4  and  C_5
REMARK    6  A    between atoms: C_5  and  O_6
REMARK    7  A    between atoms: O_6  and  C_7
REMARK    8  A    between atoms: C_10  and  N_11
REMARK    9  A    between atoms: N_11  and  S_12
REMARK   10  A    between atoms: S_12  and  C_13
REMARK   11  A    between atoms: C_18  and  C_19
REMARK   12  A    between atoms: C_19  and  C_20
REMARK   13  A    between atoms: C_23  and  N_24
REMARK   14  A    between atoms: N_24  and  S_25
REMARK   15  A    between atoms: S_25  and  C_26
REMARK                            x       y       z     vdW  Elec       q    Type
REMARK                         _______ _______ _______ _____ _____    ______ ____
ROOT
ATOM      1  C   UNL     1       2.320   9.749  17.752  0.00  0.00    +0.000 C 
ATOM      2  N   UNL     1       1.474   8.757  18.448  0.00  0.00    +0.000 NA
ENDROOT
BRANCH   2   3
ATOM      3  C   UNL     1       2.252   7.503  18.633  0.00  0.00    +0.000 C 
BRANCH   3   4
ATOM      4  C   UNL     1       2.263   6.979  20.086  0.00  0.00    +0.000 C 
BRANCH   4   5
ATOM      5  C   UNL     1       1.830   5.518  20.162  0.00  0.00    +0.000 C 
BRANCH   5   6
ATOM      6  O   UNL     1       2.941   4.703  20.278  0.00  0.00    +0.000 OA
BRANCH   6   7
ATOM      7  C   UNL     1       3.912   4.574  19.334  0.00  0.00    +0.000 A 
ATOM      8  C   UNL     1       5.169   5.198  19.462  0.00  0.00    +0.000 A 
ATOM      9  C   UNL     1       6.130   5.052  18.464  0.00  0.00    +0.000 A 
ATOM     10  C   UNL     1       5.867   4.270  17.334  0.00  0.00    +0.000 A 
ATOM     11  C   UNL     1       4.623   3.632  17.205  0.00  0.00    +0.000 A 
ATOM     12  C   UNL     1       3.651   3.795  18.199  0.00  0.00    +0.000 A 
BRANCH  10  13
ATOM     13  N   UNL     1       6.866   4.134  16.340  0.00  0.00    +0.000 N 
ATOM     14  H   UNL     1       7.248   3.186  16.216  0.00  0.00    +0.000 HD
BRANCH  13  15
ATOM     15  S   UNL     1       6.566   4.872  14.776  0.00  0.00    +0.000 S 
ATOM     16  C   UNL     1       5.982   3.767  13.453  0.00  0.00    +0.000 C 
ATOM     17  O   UNL     1       5.652   6.074  15.052  0.00  0.00    +0.000 OA
ATOM     18  O   UNL     1       7.897   5.552  14.421  0.00  0.00    +0.000 OA
ENDBRANCH  13  15
ENDBRANCH  10  13
ENDBRANCH   6   7
ENDBRANCH   5   6
ENDBRANCH   4   5
ENDBRANCH   3   4
ENDBRANCH   2   3
BRANCH   2  19
ATOM     19  C   UNL     1       0.991   9.289  19.746  0.00  0.00    +0.000 C 
BRANCH  19  20
ATOM     20  C   UNL     1       0.830  10.822  19.753  0.00  0.00    +0.000 C 
BRANCH  20  21
ATOM     21  C   UNL     1      -0.212  11.247  20.761  0.00  0.00    +0.000 A 
ATOM     22  C   UNL     1      -1.202  12.179  20.409  0.00  0.00    +0.000 A 
ATOM     23  C   UNL     1      -2.151  12.589  21.348  0.00  0.00    +0.000 A 
ATOM     24  C   UNL     1      -2.139  12.057  22.644  0.00  0.00    +0.000 A 
ATOM     25  C   UNL     1      -1.167  11.113  22.996  0.00  0.00    +0.000 A 
ATOM     26  C   UNL     1      -0.204  10.715  22.064  0.00  0.00    +0.000 A 
BRANCH  24  27
ATOM     27  N   UNL     1      -3.109  12.477  23.584  0.00  0.00    +0.000 N 
ATOM     28  H   UNL     1      -3.278  11.838  24.374  0.00  0.00    +0.000 HD
BRANCH  27  29
ATOM     29  S   UNL     1      -3.034  14.140  24.134  0.00  0.00    +0.000 S 
ATOM     30  C   UNL     1      -3.995  15.345  23.164  0.00  0.00    +0.000 C 
ATOM     31  O   UNL     1      -3.386  14.101  25.627  0.00  0.00    +0.000 OA
ATOM     32  O   UNL     1      -1.534  14.463  24.156  0.00  0.00    +0.000 OA
ENDBRANCH  27  29
ENDBRANCH  24  27
ENDBRANCH  20  21
ENDBRANCH  19  20
ENDBRANCH   2  19
TORSDOF 12
ENDMDL
MODEL 3
REMARK VINA RESULT:      -6.5      5.651      9.211
REMARK  Name = 
REMARK  15 active torsions:
REMARK  status: ('A' for Active; 'I' for Inactive)
REMARK    1  A    between atoms: C_1  and  N_2
REMARK    2  A    between atoms: N_2  and  C_3
REMARK    3  A    between atoms: N_2  and  C_18
REMARK    4  A    between atoms: C_3  and  C_4
REMARK    5  A    between atoms: C_4  and  C_5
REMARK    6  A    between atoms: C_5  and  O_6
REMARK    7  A    between atoms: O_6  and  C_7
REMARK    8  A    between atoms: C_10  and  N_11
REMARK    9  A    between atoms: N_11  and  S_12
REMARK   10  A    between atoms: S_12  and  C_13
REMARK   11  A    between atoms: C_18  and  C_19
REMARK   12  A    between atoms: C_19  and  C_20
REMARK   13  A    between atoms: C_23  and  N_24
REMARK   14  A    between atoms: N_24  and  S_25
REMARK   15  A    between atoms: S_25  and  C_26
REMARK                            x       y       z     vdW  Elec       q    Type
REMARK                         _______ _______ _______ _____ _____    ______ ____
ROOT
ATOM      1  C   UNL     1       7.401   5.887  17.720  0.00  0.00    +0.000 C 
ATOM      2  N   UNL     1       6.861   6.992  16.900  0.00  0.00    +0.000 NA
ENDROOT
BRANCH   2   3
ATOM      3  C   UNL     1       5.413   6.755  16.661  0.00  0.00    +0.000 C 
BRANCH   3   4
ATOM      4  C   UNL     1       4.869   5.471  17.324  0.00  0.00    +0.000 C 
BRANCH   4   5
ATOM      5  C   UNL     1       3.413   5.630  17.754  0.00  0.00    +0.000 C 
BRANCH   5   6
ATOM      6  O   UNL     1       3.338   6.440  18.871  0.00  0.00    +0.000 OA
BRANCH   6   7
ATOM      7  C   UNL     1       2.498   7.502  19.007  0.00  0.00    +0.000 A 
ATOM      8  C   UNL     1       1.879   7.814  20.233  0.00  0.00    +0.000 A 
ATOM      9  C   UNL     1       1.012   8.902  20.325  0.00  0.00    +0.000 A 
ATOM     10  C   UNL     1       0.762   9.706  19.207  0.00  0.00    +0.000 A 
ATOM     11  C   UNL     1       1.386   9.411  17.986  0.00  0.00    +0.000 A 
ATOM     12  C   UNL     1       2.242   8.307  17.889  0.00  0.00    +0.000 A 
BRANCH  10  13
ATOM     13  N   UNL     1      -0.118  10.809  19.333  0.00  0.00    +0.000 N 
ATOM     14  H   UNL     1      -1.018  10.613  19.790  0.00  0.00    +0.000 HD
BRANCH  13  15
ATOM     15  S   UNL     1       0.549  12.318  19.931  0.00  0.00    +0.000 S 
ATOM     16  C   UNL     1      -0.408  13.826  19.580  0.00  0.00    +0.000 C 
ATOM     17  O   UNL     1       0.842  12.082  21.420  0.00  0.00    +0.000 OA
ATOM     18  O   UNL     1       1.960  12.370  19.327  0.00  0.00    +0.000 OA
ENDBRANCH  13  15
ENDBRANCH  10  13
ENDBRANCH   6   7
ENDBRANCH   5   6
ENDBRANCH   4   5
ENDBRANCH   3   4
ENDBRANCH   2   3
BRANCH   2  19
ATOM     19  C   UNL     1       7.092   8.302  17.558  0.00  0.00    +0.000 C 
BRANCH  19  20
ATOM     20  C   UNL     1       8.422   8.366  18.336  0.00  0.00    +0.000 C 
BRANCH  20  21
ATOM     21  C   UNL     1       8.817   9.799  18.605  0.00  0.00    +0.000 A 
ATOM     22  C   UNL     1       9.423  10.152  19.822  0.00  0.00    +0.000 A 
ATOM     23  C   UNL     1       9.766  11.481  20.079  0.00  0.00    +0.000 A 
ATOM     24  C   UNL     1       9.531  12.471  19.117  0.00  0.00    +0.000 A 
ATOM     25  C   UNL     1       8.945  12.123  17.894  0.00  0.00    +0.000 A 
ATOM     26  C   UNL     1       8.582  10.797  17.642  0.00  0.00    +0.000 A 
BRANCH  24  27
ATOM     27  N   UNL     1       9.888  13.813  19.388  0.00  0.00    +0.000 N 
ATOM     28  H   UNL     1      10.651  14.202  18.816  0.00  0.00    +0.000 HD
BRANCH  27  29
ATOM     29  S   UNL     1       8.587  14.975  19.564  0.00  0.00    +0.000 S 
ATOM     30  C   UNL     1       7.960  15.710  18.021  0.00  0.00    +0.000 C 
ATOM     31  O   UNL     1       7.519  14.277  20.417  0.00  0.00    +0.000 OA
ATOM     32  O   UNL     1       9.148  16.026  20.532  0.00  0.00    +0.000 OA
ENDBRANCH  27  29
ENDBRANCH  24  27
ENDBRANCH  20  21
ENDBRANCH  19  20
ENDBRANCH   2  19
TORSDOF 12
ENDMDL
MODEL 4
REMARK VINA RESULT:      -6.5      3.877     11.475
REMARK  Name = 
REMARK  15 active torsions:
REMARK  status: ('A' for Active; 'I' for Inactive)
REMARK    1  A    between atoms: C_1  and  N_2
REMARK    2  A    between atoms: N_2  and  C_3
REMARK    3  A    between atoms: N_2  and  C_18
REMARK    4  A    between atoms: C_3  and  C_4
REMARK    5  A    between atoms: C_4  and  C_5
REMARK    6  A    between atoms: C_5  and  O_6
REMARK    7  A    between atoms: O_6  and  C_7
REMARK    8  A    between atoms: C_10  and  N_11
REMARK    9  A    between atoms: N_11  and  S_12
REMARK   10  A    between atoms: S_12  and  C_13
REMARK   11  A    between atoms: C_18  and  C_19
REMARK   12  A    between atoms: C_19  and  C_20
REMARK   13  A    between atoms: C_23  and  N_24
REMARK   14  A    between atoms: N_24  and  S_25
REMARK   15  A    between atoms: S_25  and  C_26
REMARK                            x       y       z     vdW  Elec       q    Type
REMARK                         _______ _______ _______ _____ _____    ______ ____
ROOT
ATOM      1  C   UNL     1       2.508   7.346  19.143  0.00  0.00    +0.000 C 
ATOM      2  N   UNL     1       1.464   7.092  20.157  0.00  0.00    +0.000 NA
ENDROOT
BRANCH   2   3
ATOM      3  C   UNL     1       1.741   5.790  20.821  0.00  0.00    +0.000 C 
BRANCH   3   4
ATOM      4  C   UNL     1       0.841   4.633  20.336  0.00  0.00    +0.000 C 
BRANCH   4   5
ATOM      5  C   UNL     1       1.263   3.298  20.942  0.00  0.00    +0.000 C 
BRANCH   5   6
ATOM      6  O   UNL     1       1.859   2.510  19.975  0.00  0.00    +0.000 OA
BRANCH   6   7
ATOM      7  C   UNL     1       2.936   2.877  19.228  0.00  0.00    +0.000 A 
ATOM      8  C   UNL     1       4.170   3.222  19.814  0.00  0.00    +0.000 A 
ATOM      9  C   UNL     1       5.244   3.608  19.013  0.00  0.00    +0.000 A 
ATOM     10  C   UNL     1       5.115   3.638  17.620  0.00  0.00    +0.000 A 
ATOM     11  C   UNL     1       3.894   3.281  17.027  0.00  0.00    +0.000 A 
ATOM     12  C   UNL     1       2.810   2.913  17.833  0.00  0.00    +0.000 A 
BRANCH  10  13
ATOM     13  N   UNL     1       6.225   4.027  16.832  0.00  0.00    +0.000 N 
ATOM     14  H   UNL     1       6.721   3.264  16.351  0.00  0.00    +0.000 HD
BRANCH  13  15
ATOM     15  S   UNL     1       6.018   5.391  15.747  0.00  0.00    +0.000 S 
ATOM     16  C   UNL     1       4.963   6.749  16.341  0.00  0.00    +0.000 C 
ATOM     17  O   UNL     1       7.435   5.816  15.338  0.00  0.00    +0.000 OA
ATOM     18  O   UNL     1       5.482   4.761  14.452  0.00  0.00    +0.000 OA
ENDBRANCH  13  15
ENDBRANCH  10  13
ENDBRANCH   6   7
ENDBRANCH   5   6
ENDBRANCH   4   5
ENDBRANCH   3   4
ENDBRANCH   2   3
BRANCH   2  19
ATOM     19  C   UNL     1       1.402   8.198  21.143  0.00  0.00    +0.000 C 
BRANCH  19  20
ATOM     20  C   UNL     1      -0.039   8.616  21.498  0.00  0.00    +0.000 C 
BRANCH  20  21
ATOM     21  C   UNL     1      -0.365   9.969  20.910  0.00  0.00    +0.000 A 
ATOM     22  C   UNL     1      -0.357  10.159  19.518  0.00  0.00    +0.000 A 
ATOM     23  C   UNL     1      -0.636  11.415  18.976  0.00  0.00    +0.000 A 
ATOM     24  C   UNL     1      -0.949  12.493  19.814  0.00  0.00    +0.000 A 
ATOM     25  C   UNL     1      -0.977  12.307  21.202  0.00  0.00    +0.000 A 
ATOM     26  C   UNL     1      -0.680  11.055  21.747  0.00  0.00    +0.000 A 
BRANCH  24  27
ATOM     27  N   UNL     1      -1.234  13.760  19.252  0.00  0.00    +0.000 N 
ATOM     28  H   UNL     1      -2.175  14.135  19.437  0.00  0.00    +0.000 HD
BRANCH  27  29
ATOM     29  S   UNL     1      -0.019  15.013  19.426  0.00  0.00    +0.000 S 
ATOM     30  C   UNL     1       1.713  14.453  19.395  0.00  0.00    +0.000 C 
ATOM     31  O   UNL     1      -0.363  16.075  18.373  0.00  0.00    +0.000 OA
ATOM     32  O   UNL     1      -0.388  15.716  20.738  0.00  0.00    +0.000 OA
ENDBRANCH  27  29
ENDBRANCH  24  27
ENDBRANCH  20  21
ENDBRANCH  19  20
ENDBRANCH   2  19
TORSDOF 12
ENDMDL
MODEL 5
REMARK VINA RESULT:      -6.4      7.454     12.191
REMARK  Name = 
REMARK  15 active torsions:
REMARK  status: ('A' for Active; 'I' for Inactive)
REMARK    1  A    between atoms: C_1  and  N_2
REMARK    2  A    between atoms: N_2  and  C_3
REMARK    3  A    between atoms: N_2  and  C_18
REMARK    4  A    between atoms: C_3  and  C_4
REMARK    5  A    between atoms: C_4  and  C_5
REMARK    6  A    between atoms: C_5  and  O_6
REMARK    7  A    between atoms: O_6  and  C_7
REMARK    8  A    between atoms: C_10  and  N_11
REMARK    9  A    between atoms: N_11  and  S_12
REMARK   10  A    between atoms: S_12  and  C_13
REMARK   11  A    between atoms: C_18  and  C_19
REMARK   12  A    between atoms: C_19  and  C_20
REMARK   13  A    between atoms: C_23  and  N_24
REMARK   14  A    between atoms: N_24  and  S_25
REMARK   15  A    between atoms: S_25  and  C_26
REMARK                            x       y       z     vdW  Elec       q    Type
REMARK                         _______ _______ _______ _____ _____    ______ ____
ROOT
ATOM      1  C   UNL     1      11.012  11.423  18.840  0.00  0.00    +0.000 C 
ATOM      2  N   UNL     1       9.780  12.204  18.604  0.00  0.00    +0.000 NA
ENDROOT
BRANCH   2   3
ATOM      3  C   UNL     1       8.769  11.328  17.954  0.00  0.00    +0.000 C 
BRANCH   3   4
ATOM      4  C   UNL     1       8.811   9.860  18.430  0.00  0.00    +0.000 C 
BRANCH   4   5
ATOM      5  C   UNL     1       7.808   8.993  17.674  0.00  0.00    +0.000 C 
BRANCH   5   6
ATOM      6  O   UNL     1       8.002   7.662  17.994  0.00  0.00    +0.000 OA
BRANCH   6   7
ATOM      7  C   UNL     1       7.125   6.659  17.717  0.00  0.00    +0.000 A 
ATOM      8  C   UNL     1       7.472   5.302  17.856  0.00  0.00    +0.000 A 
ATOM      9  C   UNL     1       6.548   4.305  17.547  0.00  0.00    +0.000 A 
ATOM     10  C   UNL     1       5.261   4.641  17.112  0.00  0.00    +0.000 A 
ATOM     11  C   UNL     1       4.901   5.992  16.986  0.00  0.00    +0.000 A 
ATOM     12  C   UNL     1       5.836   6.992  17.278  0.00  0.00    +0.000 A 
BRANCH  10  13
ATOM     13  N   UNL     1       4.341   3.607  16.812  0.00  0.00    +0.000 N 
ATOM     14  H   UNL     1       4.754   2.695  16.575  0.00  0.00    +0.000 HD
BRANCH  13  15
ATOM     15  S   UNL     1       2.978   3.389  17.896  0.00  0.00    +0.000 S 
ATOM     16  C   UNL     1       3.285   3.702  19.662  0.00  0.00    +0.000 C 
ATOM     17  O   UNL     1       1.831   4.212  17.293  0.00  0.00    +0.000 OA
ATOM     18  O   UNL     1       2.516   1.948  17.632  0.00  0.00    +0.000 OA
ENDBRANCH  13  15
ENDBRANCH  10  13
ENDBRANCH   6   7
ENDBRANCH   5   6
ENDBRANCH   4   5
ENDBRANCH   3   4
ENDBRANCH   2   3
BRANCH   2  19
ATOM     19  C   UNL     1       9.262  12.775  19.872  0.00  0.00    +0.000 C 
BRANCH  19  20
ATOM     20  C   UNL     1       9.536  11.881  21.098  0.00  0.00    +0.000 C 
BRANCH  20  21
ATOM     21  C   UNL     1       8.893  12.458  22.337  0.00  0.00    +0.000 A 
ATOM     22  C   UNL     1       8.995  13.831  22.616  0.00  0.00    +0.000 A 
ATOM     23  C   UNL     1       8.420  14.360  23.774  0.00  0.00    +0.000 A 
ATOM     24  C   UNL     1       7.716  13.531  24.656  0.00  0.00    +0.000 A 
ATOM     25  C   UNL     1       7.593  12.165  24.374  0.00  0.00    +0.000 A 
ATOM     26  C   UNL     1       8.184  11.629  23.226  0.00  0.00    +0.000 A 
BRANCH  24  27
ATOM     27  N   UNL     1       7.133  14.080  25.823  0.00  0.00    +0.000 N 
ATOM     28  H   UNL     1       7.606  14.905  26.218  0.00  0.00    +0.000 HD
BRANCH  27  29
ATOM     29  S   UNL     1       5.393  14.296  25.831  0.00  0.00    +0.000 S 
ATOM     30  C   UNL     1       4.777  15.779  26.690  0.00  0.00    +0.000 C 
ATOM     31  O   UNL     1       4.953  14.181  24.365  0.00  0.00    +0.000 OA
ATOM     32  O   UNL     1       4.854  12.995  26.441  0.00  0.00    +0.000 OA
ENDBRANCH  27  29
ENDBRANCH  24  27
ENDBRANCH  20  21
ENDBRANCH  19  20
ENDBRANCH   2  19
TORSDOF 12
ENDMDL
MODEL 6
REMARK VINA RESULT:      -6.4      2.614      3.578
REMARK  Name = 
REMARK  15 active torsions:
REMARK  status: ('A' for Active; 'I' for Inactive)
REMARK    1  A    between atoms: C_1  and  N_2
REMARK    2  A    between atoms: N_2  and  C_3
REMARK    3  A    between atoms: N_2  and  C_18
REMARK    4  A    between atoms: C_3  and  C_4
REMARK    5  A    between atoms: C_4  and  C_5
REMARK    6  A    between atoms: C_5  and  O_6
REMARK    7  A    between atoms: O_6  and  C_7
REMARK    8  A    between atoms: C_10  and  N_11
REMARK    9  A    between atoms: N_11  and  S_12
REMARK   10  A    between atoms: S_12  and  C_13
REMARK   11  A    between atoms: C_18  and  C_19
REMARK   12  A    between atoms: C_19  and  C_20
REMARK   13  A    between atoms: C_23  and  N_24
REMARK   14  A    between atoms: N_24  and  S_25
REMARK   15  A    between atoms: S_25  and  C_26
REMARK                            x       y       z     vdW  Elec       q    Type
REMARK                         _______ _______ _______ _____ _____    ______ ____
ROOT
ATOM      1  C   UNL     1       1.740   8.187  19.307  0.00  0.00    +0.000 C 
ATOM      2  N   UNL     1       1.515   7.925  20.744  0.00  0.00    +0.000 NA
ENDROOT
BRANCH   2   3
ATOM      3  C   UNL     1       0.062   8.048  21.036  0.00  0.00    +0.000 C 
BRANCH   3   4
ATOM      4  C   UNL     1      -0.262   8.952  22.244  0.00  0.00    +0.000 C 
BRANCH   4   5
ATOM      5  C   UNL     1       0.264  10.371  22.044  0.00  0.00    +0.000 C 
BRANCH   5   6
ATOM      6  O   UNL     1      -0.427  11.248  22.860  0.00  0.00    +0.000 OA
BRANCH   6   7
ATOM      7  C   UNL     1      -1.607  11.843  22.538  0.00  0.00    +0.000 A 
ATOM      8  C   UNL     1      -1.903  12.258  21.225  0.00  0.00    +0.000 A 
ATOM      9  C   UNL     1      -3.118  12.879  20.942  0.00  0.00    +0.000 A 
ATOM     10  C   UNL     1      -4.065  13.079  21.953  0.00  0.00    +0.000 A 
ATOM     11  C   UNL     1      -3.785  12.655  23.261  0.00  0.00    +0.000 A 
ATOM     12  C   UNL     1      -2.556  12.049  23.549  0.00  0.00    +0.000 A 
BRANCH  10  13
ATOM     13  N   UNL     1      -5.295  13.705  21.634  0.00  0.00    +0.000 N 
ATOM     14  H   UNL     1      -5.294  14.285  20.784  0.00  0.00    +0.000 HD
BRANCH  13  15
ATOM     15  S   UNL     1      -6.749  12.725  21.695  0.00  0.00    +0.000 S 
ATOM     16  C   UNL     1      -7.469  12.439  23.341  0.00  0.00    +0.000 C 
ATOM     17  O   UNL     1      -7.714  13.348  20.676  0.00  0.00    +0.000 OA
ATOM     18  O   UNL     1      -6.346  11.415  21.000  0.00  0.00    +0.000 OA
ENDBRANCH  13  15
ENDBRANCH  10  13
ENDBRANCH   6   7
ENDBRANCH   5   6
ENDBRANCH   4   5
ENDBRANCH   3   4
ENDBRANCH   2   3
BRANCH   2  19
ATOM     19  C   UNL     1       2.031   6.588  21.127  0.00  0.00    +0.000 C 
BRANCH  19  20
ATOM     20  C   UNL     1       1.464   5.446  20.259  0.00  0.00    +0.000 C 
BRANCH  20  21
ATOM     21  C   UNL     1       2.522   4.908  19.325  0.00  0.00    +0.000 A 
ATOM     22  C   UNL     1       2.157   4.310  18.107  0.00  0.00    +0.000 A 
ATOM     23  C   UNL     1       3.134   3.792  17.255  0.00  0.00    +0.000 A 
ATOM     24  C   UNL     1       4.490   3.884  17.594  0.00  0.00    +0.000 A 
ATOM     25  C   UNL     1       4.863   4.496  18.797  0.00  0.00    +0.000 A 
ATOM     26  C   UNL     1       3.886   4.998  19.661  0.00  0.00    +0.000 A 
BRANCH  24  27
ATOM     27  N   UNL     1       5.471   3.359  16.719  0.00  0.00    +0.000 N 
ATOM     28  H   UNL     1       5.219   2.490  16.228  0.00  0.00    +0.000 HD
BRANCH  27  29
ATOM     29  S   UNL     1       6.266   4.482  15.632  0.00  0.00    +0.000 S 
ATOM     30  C   UNL     1       5.467   6.107  15.440  0.00  0.00    +0.000 C 
ATOM     31  O   UNL     1       7.728   4.542  16.093  0.00  0.00    +0.000 OA
ATOM     32  O   UNL     1       6.369   3.715  14.307  0.00  0.00    +0.000 OA
ENDBRANCH  27  29
ENDBRANCH  24  27
ENDBRANCH  20  21
ENDBRANCH  19  20
ENDBRANCH   2  19
TORSDOF 12
ENDMDL
MODEL 7
REMARK VINA RESULT:      -6.4      5.307     11.511
REMARK  Name = 
REMARK  15 active torsions:
REMARK  status: ('A' for Active; 'I' for Inactive)
REMARK    1  A    between atoms: C_1  and  N_2
REMARK    2  A    between atoms: N_2  and  C_3
REMARK    3  A    between atoms: N_2  and  C_18
REMARK    4  A    between atoms: C_3  and  C_4
REMARK    5  A    between atoms: C_4  and  C_5
REMARK    6  A    between atoms: C_5  and  O_6
REMARK    7  A    between atoms: O_6  and  C_7
REMARK    8  A    between atoms: C_10  and  N_11
REMARK    9  A    between atoms: N_11  and  S_12
REMARK   10  A    between atoms: S_12  and  C_13
REMARK   11  A    between atoms: C_18  and  C_19
REMARK   12  A    between atoms: C_19  and  C_20
REMARK   13  A    between atoms: C_23  and  N_24
REMARK   14  A    between atoms: N_24  and  S_25
REMARK   15  A    between atoms: S_25  and  C_26
REMARK                            x       y       z     vdW  Elec       q    Type
REMARK                         _______ _______ _______ _____ _____    ______ ____
ROOT
ATOM      1  C   UNL     1       0.850   8.319  21.114  0.00  0.00    +0.000 C 
ATOM      2  N   UNL     1       1.950   8.178  20.137  0.00  0.00    +0.000 NA
ENDROOT
BRANCH   2   3
ATOM      3  C   UNL     1       2.061   6.750  19.736  0.00  0.00    +0.000 C 
BRANCH   3   4
ATOM      4  C   UNL     1       1.838   5.753  20.894  0.00  0.00    +0.000 C 
BRANCH   4   5
ATOM      5  C   UNL     1       0.968   4.575  20.466  0.00  0.00    +0.000 C 
BRANCH   5   6
ATOM      6  O   UNL     1       1.768   3.510  20.097  0.00  0.00    +0.000 OA
BRANCH   6   7
ATOM      7  C   UNL     1       2.753   3.565  19.160  0.00  0.00    +0.000 A 
ATOM      8  C   UNL     1       4.118   3.526  19.507  0.00  0.00    +0.000 A 
ATOM      9  C   UNL     1       5.096   3.601  18.517  0.00  0.00    +0.000 A 
ATOM     10  C   UNL     1       4.735   3.696  17.169  0.00  0.00    +0.000 A 
ATOM     11  C   UNL     1       3.378   3.719  16.813  0.00  0.00    +0.000 A 
ATOM     12  C   UNL     1       2.395   3.664  17.809  0.00  0.00    +0.000 A 
BRANCH  10  13
ATOM     13  N   UNL     1       5.751   3.763  16.184  0.00  0.00    +0.000 N 
ATOM     14  H   UNL     1       5.432   3.712  15.207  0.00  0.00    +0.000 HD
BRANCH  13  15
ATOM     15  S   UNL     1       6.972   5.012  16.356  0.00  0.00    +0.000 S 
ATOM     16  C   UNL     1       6.405   6.622  16.986  0.00  0.00    +0.000 C 
ATOM     17  O   UNL     1       8.108   4.374  17.167  0.00  0.00    +0.000 OA
ATOM     18  O   UNL     1       7.596   5.121  14.956  0.00  0.00    +0.000 OA
ENDBRANCH  13  15
ENDBRANCH  10  13
ENDBRANCH   6   7
ENDBRANCH   5   6
ENDBRANCH   4   5
ENDBRANCH   3   4
ENDBRANCH   2   3
BRANCH   2  19
ATOM     19  C   UNL     1       1.728   9.053  18.960  0.00  0.00    +0.000 C 
BRANCH  19  20
ATOM     20  C   UNL     1       0.517   9.992  19.120  0.00  0.00    +0.000 C 
BRANCH  20  21
ATOM     21  C   UNL     1       0.932  11.436  18.957  0.00  0.00    +0.000 A 
ATOM     22  C   UNL     1       0.101  12.471  19.417  0.00  0.00    +0.000 A 
ATOM     23  C   UNL     1       0.475  13.805  19.245  0.00  0.00    +0.000 A 
ATOM     24  C   UNL     1       1.694  14.125  18.633  0.00  0.00    +0.000 A 
ATOM     25  C   UNL     1       2.537  13.098  18.190  0.00  0.00    +0.000 A 
ATOM     26  C   UNL     1       2.155  11.762  18.343  0.00  0.00    +0.000 A 
BRANCH  24  27
ATOM     27  N   UNL     1       2.064  15.481  18.469  0.00  0.00    +0.000 N 
ATOM     28  H   UNL     1       1.320  16.174  18.630  0.00  0.00    +0.000 HD
BRANCH  27  29
ATOM     29  S   UNL     1       3.569  16.001  19.202  0.00  0.00    +0.000 S 
ATOM     30  C   UNL     1       5.092  15.480  18.351  0.00  0.00    +0.000 C 
ATOM     31  O   UNL     1       3.435  17.517  19.396  0.00  0.00    +0.000 OA
ATOM     32  O   UNL     1       3.490  15.475  20.641  0.00  0.00    +0.000 OA
ENDBRANCH  27  29
ENDBRANCH  24  27
ENDBRANCH  20  21
ENDBRANCH  19  20
ENDBRANCH   2  19
TORSDOF 12
ENDMDL
MODEL 8
REMARK VINA RESULT:      -6.4      2.528     11.784
REMARK  Name = 
REMARK  15 active torsions:
REMARK  status: ('A' for Active; 'I' for Inactive)
REMARK    1  A    between atoms: C_1  and  N_2
REMARK    2  A    between atoms: N_2  and  C_3
REMARK    3  A    between atoms: N_2  and  C_18
REMARK    4  A    between atoms: C_3  and  C_4
REMARK    5  A    between atoms: C_4  and  C_5
REMARK    6  A    between atoms: C_5  and  O_6
REMARK    7  A    between atoms: O_6  and  C_7
REMARK    8  A    between atoms: C_10  and  N_11
REMARK    9  A    between atoms: N_11  and  S_12
REMARK   10  A    between atoms: S_12  and  C_13
REMARK   11  A    between atoms: C_18  and  C_19
REMARK   12  A    between atoms: C_19  and  C_20
REMARK   13  A    between atoms: C_23  and  N_24
REMARK   14  A    between atoms: N_24  and  S_25
REMARK   15  A    between atoms: S_25  and  C_26
REMARK                            x       y       z     vdW  Elec       q    Type
REMARK                         _______ _______ _______ _____ _____    ______ ____
ROOT
ATOM      1  C   UNL     1       2.209   8.239  18.484  0.00  0.00    +0.000 C 
ATOM      2  N   UNL     1       1.158   8.468  19.498  0.00  0.00    +0.000 NA
ENDROOT
BRANCH   2   3
ATOM      3  C   UNL     1       1.436   7.613  20.682  0.00  0.00    +0.000 C 
BRANCH   3   4
ATOM      4  C   UNL     1       2.146   6.284  20.345  0.00  0.00    +0.000 C 
BRANCH   4   5
ATOM      5  C   UNL     1       1.330   5.076  20.799  0.00  0.00    +0.000 C 
BRANCH   5   6
ATOM      6  O   UNL     1       1.548   4.013  19.944  0.00  0.00    +0.000 OA
BRANCH   6   7
ATOM      7  C   UNL     1       2.594   3.912  19.079  0.00  0.00    +0.000 A 
ATOM      8  C   UNL     1       3.927   3.830  19.524  0.00  0.00    +0.000 A 
ATOM      9  C   UNL     1       4.971   3.744  18.604  0.00  0.00    +0.000 A 
ATOM     10  C   UNL     1       4.704   3.719  17.230  0.00  0.00    +0.000 A 
ATOM     11  C   UNL     1       3.378   3.784  16.778  0.00  0.00    +0.000 A 
ATOM     12  C   UNL     1       2.331   3.890  17.703  0.00  0.00    +0.000 A 
BRANCH  10  13
ATOM     13  N   UNL     1       5.784   3.623  16.319  0.00  0.00    +0.000 N 
ATOM     14  H   UNL     1       5.527   3.465  15.335  0.00  0.00    +0.000 HD
BRANCH  13  15
ATOM     15  S   UNL     1       7.051   4.834  16.425  0.00  0.00    +0.000 S 
ATOM     16  C   UNL     1       6.544   6.497  16.962  0.00  0.00    +0.000 C 
ATOM     17  O   UNL     1       8.161   4.200  17.275  0.00  0.00    +0.000 OA
ATOM     18  O   UNL     1       7.680   4.841  15.023  0.00  0.00    +0.000 OA
ENDBRANCH  13  15
ENDBRANCH  10  13
ENDBRANCH   6   7
ENDBRANCH   5   6
ENDBRANCH   4   5
ENDBRANCH   3   4
ENDBRANCH   2   3
BRANCH   2  19
ATOM     19  C   UNL     1       1.085   9.901  19.872  0.00  0.00    +0.000 C 
BRANCH  19  20
ATOM     20  C   UNL     1       0.026  10.685  19.072  0.00  0.00    +0.000 C 
BRANCH  20  21
ATOM     21  C   UNL     1      -0.825  11.528  19.993  0.00  0.00    +0.000 A 
ATOM     22  C   UNL     1      -1.551  12.620  19.489  0.00  0.00    +0.000 A 
ATOM     23  C   UNL     1      -2.319  13.412  20.344  0.00  0.00    +0.000 A 
ATOM     24  C   UNL     1      -2.392  13.113  21.711  0.00  0.00    +0.000 A 
ATOM     25  C   UNL     1      -1.686  12.014  22.217  0.00  0.00    +0.000 A 
ATOM     26  C   UNL     1      -0.901  11.231  21.366  0.00  0.00    +0.000 A 
BRANCH  24  27
ATOM     27  N   UNL     1      -3.178  13.921  22.566  0.00  0.00    +0.000 N 
ATOM     28  H   UNL     1      -3.354  14.882  22.243  0.00  0.00    +0.000 HD
BRANCH  27  29
ATOM     29  S   UNL     1      -4.635  13.210  23.234  0.00  0.00    +0.000 S 
ATOM     30  C   UNL     1      -4.446  12.356  24.831  0.00  0.00    +0.000 C 
ATOM     31  O   UNL     1      -5.683  14.331  23.232  0.00  0.00    +0.000 OA
ATOM     32  O   UNL     1      -5.143  12.280  22.125  0.00  0.00    +0.000 OA
ENDBRANCH  27  29
ENDBRANCH  24  27
ENDBRANCH  20  21
ENDBRANCH  19  20
ENDBRANCH   2  19
TORSDOF 12
ENDMDL
MODEL 9
REMARK VINA RESULT:      -6.3      3.590      5.763
REMARK  Name = 
REMARK  15 active torsions:
REMARK  status: ('A' for Active; 'I' for Inactive)
REMARK    1  A    between atoms: C_1  and  N_2
REMARK    2  A    between atoms: N_2  and  C_3
REMARK    3  A    between atoms: N_2  and  C_18
REMARK    4  A    between atoms: C_3  and  C_4
REMARK    5  A    between atoms: C_4  and  C_5
REMARK    6  A    between atoms: C_5  and  O_6
REMARK    7  A    between atoms: O_6  and  C_7
REMARK    8  A    between atoms: C_10  and  N_11
REMARK    9  A    between atoms: N_11  and  S_12
REMARK   10  A    between atoms: S_12  and  C_13
REMARK   11  A    between atoms: C_18  and  C_19
REMARK   12  A    between atoms: C_19  and  C_20
REMARK   13  A    between atoms: C_23  and  N_24
REMARK   14  A    between atoms: N_24  and  S_25
REMARK   15  A    between atoms: S_25  and  C_26
REMARK                            x       y       z     vdW  Elec       q    Type
REMARK                         _______ _______ _______ _____ _____    ______ ____
ROOT
ATOM      1  C   UNL     1       2.282   3.037  21.850  0.00  0.00    +0.000 C 
ATOM      2  N   UNL     1       1.077   3.080  20.995  0.00  0.00    +0.000 NA
ENDROOT
BRANCH   2   3
ATOM      3  C   UNL     1       0.875   4.473  20.514  0.00  0.00    +0.000 C 
BRANCH   3   4
ATOM      4  C   UNL     1       1.938   5.473  21.020  0.00  0.00    +0.000 C 
BRANCH   4   5
ATOM      5  C   UNL     1       1.614   6.903  20.598  0.00  0.00    +0.000 C 
BRANCH   5   6
ATOM      6  O   UNL     1       0.591   7.405  21.381  0.00  0.00    +0.000 OA
BRANCH   6   7
ATOM      7  C   UNL     1       0.333   8.727  21.569  0.00  0.00    +0.000 A 
ATOM      8  C   UNL     1      -0.466   9.189  22.633  0.00  0.00    +0.000 A 
ATOM      9  C   UNL     1      -0.719  10.552  22.781  0.00  0.00    +0.000 A 
ATOM     10  C   UNL     1      -0.169  11.476  21.886  0.00  0.00    +0.000 A 
ATOM     11  C   UNL     1       0.641  11.026  20.832  0.00  0.00    +0.000 A 
ATOM     12  C   UNL     1       0.879   9.655  20.673  0.00  0.00    +0.000 A 
BRANCH  10  13
ATOM     13  N   UNL     1      -0.437  12.856  22.065  0.00  0.00    +0.000 N 
ATOM     14  H   UNL     1       0.369  13.438  22.330  0.00  0.00    +0.000 HD
BRANCH  13  15
ATOM     15  S   UNL     1      -1.389  13.668  20.834  0.00  0.00    +0.000 S 
ATOM     16  C   UNL     1      -0.877  13.409  19.107  0.00  0.00    +0.000 C 
ATOM     17  O   UNL     1      -2.850  13.300  21.128  0.00  0.00    +0.000 OA
ATOM     18  O   UNL     1      -1.340  15.149  21.240  0.00  0.00    +0.000 OA
ENDBRANCH  13  15
ENDBRANCH  10  13
ENDBRANCH   6   7
ENDBRANCH   5   6
ENDBRANCH   4   5
ENDBRANCH   3   4
ENDBRANCH   2   3
BRANCH   2  19
ATOM     19  C   UNL     1       1.196   2.130  19.862  0.00  0.00    +0.000 C 
BRANCH  19  20
ATOM     20  C   UNL     1       1.080   2.810  18.483  0.00  0.00    +0.000 C 
BRANCH  20  21
ATOM     21  C   UNL     1       2.350   3.555  18.144  0.00  0.00    +0.000 A 
ATOM     22  C   UNL     1       2.292   4.861  17.628  0.00  0.00    +0.000 A 
ATOM     23  C   UNL     1       3.465   5.539  17.293  0.00  0.00    +0.000 A 
ATOM     24  C   UNL     1       4.713   4.935  17.490  0.00  0.00    +0.000 A 
ATOM     25  C   UNL     1       4.780   3.641  18.022  0.00  0.00    +0.000 A 
ATOM     26  C   UNL     1       3.606   2.952  18.340  0.00  0.00    +0.000 A 
BRANCH  24  27
ATOM     27  N   UNL     1       5.895   5.635  17.152  0.00  0.00    +0.000 N 
ATOM     28  H   UNL     1       6.433   6.020  17.940  0.00  0.00    +0.000 HD
BRANCH  27  29
ATOM     29  S   UNL     1       6.961   4.897  15.971  0.00  0.00    +0.000 S 
ATOM     30  C   UNL     1       6.165   3.807  14.750  0.00  0.00    +0.000 C 
ATOM     31  O   UNL     1       7.770   6.050  15.363  0.00  0.00    +0.000 OA
ATOM     32  O   UNL     1       8.012   4.166  16.817  0.00  0.00    +0.000 OA
ENDBRANCH  27  29
ENDBRANCH  24  27
ENDBRANCH  20  21
ENDBRANCH  19  20
ENDBRANCH   2  19
TORSDOF 12
ENDMDL
