MODEL 1
REMARK VINA RESULT:      -7.1      0.000      0.000
REMARK  Name = 
REMARK  7 active torsions:
REMARK  status: ('A' for Active; 'I' for Inactive)
REMARK    1  A    between atoms: C_1  and  C_2
REMARK    2  A    between atoms: C_2  and  C_3
REMARK    3  A    between atoms: C_3  and  C_4
REMARK    4  A    between atoms: C_4  and  N_5
REMARK    5  A    between atoms: C_9  and  C_10
REMARK    6  A    between atoms: N_12  and  C_13
REMARK    7  A    between atoms: C_13  and  C_14
REMARK                            x       y       z     vdW  Elec       q    Type
REMARK                         _______ _______ _______ _____ _____    ______ ____
ROOT
ATOM      1  C   UNL     1       6.195   4.569  18.802  0.00  0.00    +0.000 C 
ATOM      2  O   UNL     1       6.612   4.828  19.930  0.00  0.00    +0.000 OA
ATOM      3  N   UNL     1       5.321   3.533  18.548  0.00  0.00    +0.000 N 
ATOM      4  H   UNL     1       4.848   3.598  17.648  0.00  0.00    +0.000 HD
ENDROOT
BRANCH   1   9
ATOM      5  N   UNL     1       5.537   5.919  16.816  0.00  0.00    +0.000 NA
ATOM      6  C   UNL     1       5.634   7.354  17.152  0.00  0.00    +0.000 C 
ATOM      7  C   UNL     1       7.119   7.651  17.212  0.00  0.00    +0.000 C 
ATOM      8  C   UNL     1       7.697   6.404  17.852  0.00  0.00    +0.000 C 
ATOM      9  C   UNL     1       6.696   5.291  17.531  0.00  0.00    +0.000 C 
BRANCH   5  10
ATOM     10  C   UNL     1       5.608   5.720  15.355  0.00  0.00    +0.000 C 
BRANCH  10  11
ATOM     11  C   UNL     1       5.727   4.242  14.959  0.00  0.00    +0.000 C 
BRANCH  11  13
ATOM     12  C   UNL     1       5.741   3.402  12.589  0.00  0.00    +0.000 C 
ATOM     13  C   UNL     1       6.555   4.075  13.683  0.00  0.00    +0.000 C 
ENDBRANCH  11  13
ENDBRANCH  10  11
ENDBRANCH   5  10
ENDBRANCH   1   9
BRANCH   3  14
ATOM     14  C   UNL     1       4.701   2.800  19.625  0.00  0.00    +0.000 C 
BRANCH  14  15
ATOM     15  C   UNL     1       3.309   3.297  19.918  0.00  0.00    +0.000 A 
ATOM     16  C   UNL     1       2.207   2.433  19.853  0.00  0.00    +0.000 A 
ATOM     17  C   UNL     1       0.911   2.914  20.065  0.00  0.00    +0.000 A 
ATOM     18  C   UNL     1       0.703   4.265  20.342  0.00  0.00    +0.000 A 
ATOM     19  C   UNL     1       1.792   5.130  20.407  0.00  0.00    +0.000 A 
ATOM     20 CL   UNL     1       1.538   6.799  20.741  0.00  0.00    +0.000 Cl
ATOM     21  C   UNL     1       3.087   4.657  20.194  0.00  0.00    +0.000 A 
ENDBRANCH  14  15
ENDBRANCH   3  14
TORSDOF 6
ENDMDL
MODEL 2
REMARK VINA RESULT:      -6.9      2.577      3.330
REMARK  Name = 
REMARK  7 active torsions:
REMARK  status: ('A' for Active; 'I' for Inactive)
REMARK    1  A    between atoms: C_1  and  C_2
REMARK    2  A    between atoms: C_2  and  C_3
REMARK    3  A    between atoms: C_3  and  C_4
REMARK    4  A    between atoms: C_4  and  N_5
REMARK    5  A    between atoms: C_9  and  C_10
REMARK    6  A    between atoms: N_12  and  C_13
REMARK    7  A    between atoms: C_13  and  C_14
REMARK                            x       y       z     vdW  Elec       q    Type
REMARK                         _______ _______ _______ _____ _____    ______ ____
ROOT
ATOM      1  C   UNL     1       4.417   4.875  18.312  0.00  0.00    +0.000 C 
ATOM      2  O   UNL     1       3.562   4.416  17.555  0.00  0.00    +0.000 OA
ATOM      3  N   UNL     1       4.105   5.644  19.413  0.00  0.00    +0.000 N 
ATOM      4  H   UNL     1       4.859   5.722  20.093  0.00  0.00    +0.000 HD
ENDROOT
BRANCH   1   9
ATOM      5  N   UNL     1       6.283   5.439  16.765  0.00  0.00    +0.000 NA
ATOM      6  C   UNL     1       6.898   6.713  17.190  0.00  0.00    +0.000 C 
ATOM      7  C   UNL     1       7.671   6.382  18.452  0.00  0.00    +0.000 C 
ATOM      8  C   UNL     1       6.772   5.387  19.159  0.00  0.00    +0.000 C 
ATOM      9  C   UNL     1       5.934   4.747  18.048  0.00  0.00    +0.000 C 
BRANCH   5  10
ATOM     10  C   UNL     1       7.229   4.653  15.947  0.00  0.00    +0.000 C 
BRANCH  10  11
ATOM     11  C   UNL     1       6.998   4.824  14.439  0.00  0.00    +0.000 C 
BRANCH  11  13
ATOM     12  C   UNL     1       6.041   3.471  12.548  0.00  0.00    +0.000 C 
ATOM     13  C   UNL     1       5.812   3.984  13.961  0.00  0.00    +0.000 C 
ENDBRANCH  11  13
ENDBRANCH  10  11
ENDBRANCH   5  10
ENDBRANCH   1   9
BRANCH   3  14
ATOM     14  C   UNL     1       2.738   5.807  19.846  0.00  0.00    +0.000 C 
BRANCH  14  15
ATOM     15  C   UNL     1       2.185   7.159  19.475  0.00  0.00    +0.000 A 
ATOM     16  C   UNL     1       2.342   7.670  18.179  0.00  0.00    +0.000 A 
ATOM     17  C   UNL     1       1.882   8.951  17.858  0.00  0.00    +0.000 A 
ATOM     18  C   UNL     1       1.263   9.736  18.830  0.00  0.00    +0.000 A 
ATOM     19  C   UNL     1       1.105   9.237  20.121  0.00  0.00    +0.000 A 
ATOM     20 CL   UNL     1       0.349  10.205  21.325  0.00  0.00    +0.000 Cl
ATOM     21  C   UNL     1       1.564   7.960  20.448  0.00  0.00    +0.000 A 
ENDBRANCH  14  15
ENDBRANCH   3  14
TORSDOF 6
ENDMDL
MODEL 3
REMARK VINA RESULT:      -6.8      1.334      1.370
REMARK  Name = 
REMARK  7 active torsions:
REMARK  status: ('A' for Active; 'I' for Inactive)
REMARK    1  A    between atoms: C_1  and  C_2
REMARK    2  A    between atoms: C_2  and  C_3
REMARK    3  A    between atoms: C_3  and  C_4
REMARK    4  A    between atoms: C_4  and  N_5
REMARK    5  A    between atoms: C_9  and  C_10
REMARK    6  A    between atoms: N_12  and  C_13
REMARK    7  A    between atoms: C_13  and  C_14
REMARK                            x       y       z     vdW  Elec       q    Type
REMARK                         _______ _______ _______ _____ _____    ______ ____
ROOT
ATOM      1  C   UNL     1       6.572   4.604  19.072  0.00  0.00    +0.000 C 
ATOM      2  O   UNL     1       6.901   5.020  20.182  0.00  0.00    +0.000 OA
ATOM      3  N   UNL     1       5.727   3.528  18.898  0.00  0.00    +0.000 N 
ATOM      4  H   UNL     1       5.323   3.462  17.966  0.00  0.00    +0.000 HD
ENDROOT
BRANCH   1   9
ATOM      5  N   UNL     1       6.134   5.067  16.666  0.00  0.00    +0.000 NA
ATOM      6  C   UNL     1       5.633   6.449  16.521  0.00  0.00    +0.000 C 
ATOM      7  C   UNL     1       6.837   7.338  16.763  0.00  0.00    +0.000 C 
ATOM      8  C   UNL     1       7.578   6.624  17.876  0.00  0.00    +0.000 C 
ATOM      9  C   UNL     1       7.161   5.155  17.755  0.00  0.00    +0.000 C 
BRANCH   5  10
ATOM     10  C   UNL     1       6.710   4.587  15.394  0.00  0.00    +0.000 C 
BRANCH  10  11
ATOM     11  C   UNL     1       5.646   4.323  14.320  0.00  0.00    +0.000 C 
BRANCH  11  13
ATOM     12  C   UNL     1       5.196   3.280  12.077  0.00  0.00    +0.000 C 
ATOM     13  C   UNL     1       6.269   3.731  13.054  0.00  0.00    +0.000 C 
ENDBRANCH  11  13
ENDBRANCH  10  11
ENDBRANCH   5  10
ENDBRANCH   1   9
BRANCH   3  14
ATOM     14  C   UNL     1       5.033   2.936  20.016  0.00  0.00    +0.000 C 
BRANCH  14  15
ATOM     15  C   UNL     1       3.546   3.162  19.942  0.00  0.00    +0.000 A 
ATOM     16  C   UNL     1       2.707   2.794  21.003  0.00  0.00    +0.000 A 
ATOM     17  C   UNL     1       1.321   2.950  20.903  0.00  0.00    +0.000 A 
ATOM     18  C   UNL     1       0.758   3.471  19.739  0.00  0.00    +0.000 A 
ATOM     19  C   UNL     1       1.583   3.837  18.679  0.00  0.00    +0.000 A 
ATOM     20 CL   UNL     1       0.892   4.474  17.238  0.00  0.00    +0.000 Cl
ATOM     21  C   UNL     1       2.967   3.683  18.772  0.00  0.00    +0.000 A 
ENDBRANCH  14  15
ENDBRANCH   3  14
TORSDOF 6
ENDMDL
MODEL 4
REMARK VINA RESULT:      -6.8      1.232      1.309
REMARK  Name = 
REMARK  7 active torsions:
REMARK  status: ('A' for Active; 'I' for Inactive)
REMARK    1  A    between atoms: C_1  and  C_2
REMARK    2  A    between atoms: C_2  and  C_3
REMARK    3  A    between atoms: C_3  and  C_4
REMARK    4  A    between atoms: C_4  and  N_5
REMARK    5  A    between atoms: C_9  and  C_10
REMARK    6  A    between atoms: N_12  and  C_13
REMARK    7  A    between atoms: C_13  and  C_14
REMARK                            x       y       z     vdW  Elec       q    Type
REMARK                         _______ _______ _______ _____ _____    ______ ____
ROOT
ATOM      1  C   UNL     1       5.118   3.535  17.667  0.00  0.00    +0.000 C 
ATOM      2  O   UNL     1       4.071   3.130  17.164  0.00  0.00    +0.000 OA
ATOM      3  N   UNL     1       5.395   3.418  19.012  0.00  0.00    +0.000 N 
ATOM      4  H   UNL     1       6.379   3.533  19.247  0.00  0.00    +0.000 HD
ENDROOT
BRANCH   1   9
ATOM      5  N   UNL     1       5.510   5.207  15.865  0.00  0.00    +0.000 NA
ATOM      6  C   UNL     1       5.562   6.558  16.459  0.00  0.00    +0.000 C 
ATOM      7  C   UNL     1       6.887   6.622  17.193  0.00  0.00    +0.000 C 
ATOM      8  C   UNL     1       7.024   5.232  17.784  0.00  0.00    +0.000 C 
ATOM      9  C   UNL     1       6.182   4.329  16.877  0.00  0.00    +0.000 C 
BRANCH   5  10
ATOM     10  C   UNL     1       6.202   5.186  14.561  0.00  0.00    +0.000 C 
BRANCH  10  11
ATOM     11  C   UNL     1       6.303   3.777  13.961  0.00  0.00    +0.000 C 
BRANCH  11  13
ATOM     12  C   UNL     1       5.546   2.779  11.782  0.00  0.00    +0.000 C 
ATOM     13  C   UNL     1       6.428   3.830  12.437  0.00  0.00    +0.000 C 
ENDBRANCH  11  13
ENDBRANCH  10  11
ENDBRANCH   5  10
ENDBRANCH   1   9
BRANCH   3  14
ATOM     14  C   UNL     1       4.543   2.646  19.885  0.00  0.00    +0.000 C 
BRANCH  14  15
ATOM     15  C   UNL     1       3.217   3.321  20.122  0.00  0.00    +0.000 A 
ATOM     16  C   UNL     1       2.030   2.576  20.183  0.00  0.00    +0.000 A 
ATOM     17  C   UNL     1       0.796   3.214  20.341  0.00  0.00    +0.000 A 
ATOM     18  C   UNL     1       0.735   4.604  20.437  0.00  0.00    +0.000 A 
ATOM     19  C   UNL     1       1.908   5.351  20.376  0.00  0.00    +0.000 A 
ATOM     20 CL   UNL     1       1.835   7.067  20.485  0.00  0.00    +0.000 Cl
ATOM     21  C   UNL     1       3.142   4.720  20.216  0.00  0.00    +0.000 A 
ENDBRANCH  14  15
ENDBRANCH   3  14
TORSDOF 6
ENDMDL
MODEL 5
REMARK VINA RESULT:      -6.7      1.966      2.522
REMARK  Name = 
REMARK  7 active torsions:
REMARK  status: ('A' for Active; 'I' for Inactive)
REMARK    1  A    between atoms: C_1  and  C_2
REMARK    2  A    between atoms: C_2  and  C_3
REMARK    3  A    between atoms: C_3  and  C_4
REMARK    4  A    between atoms: C_4  and  N_5
REMARK    5  A    between atoms: C_9  and  C_10
REMARK    6  A    between atoms: N_12  and  C_13
REMARK    7  A    between atoms: C_13  and  C_14
REMARK                            x       y       z     vdW  Elec       q    Type
REMARK                         _______ _______ _______ _____ _____    ______ ____
ROOT
ATOM      1  C   UNL     1       5.158   4.398  18.451  0.00  0.00    +0.000 C 
ATOM      2  O   UNL     1       5.104   3.763  19.504  0.00  0.00    +0.000 OA
ATOM      3  N   UNL     1       4.032   4.837  17.787  0.00  0.00    +0.000 N 
ATOM      4  H   UNL     1       4.212   5.569  17.102  0.00  0.00    +0.000 HD
ENDROOT
BRANCH   1   9
ATOM      5  N   UNL     1       6.196   5.478  16.464  0.00  0.00    +0.000 NA
ATOM      6  C   UNL     1       6.625   6.845  16.824  0.00  0.00    +0.000 C 
ATOM      7  C   UNL     1       7.842   6.662  17.711  0.00  0.00    +0.000 C 
ATOM      8  C   UNL     1       7.486   5.443  18.540  0.00  0.00    +0.000 C 
ATOM      9  C   UNL     1       6.476   4.665  17.692  0.00  0.00    +0.000 C 
BRANCH   5  10
ATOM     10  C   UNL     1       6.946   4.991  15.289  0.00  0.00    +0.000 C 
BRANCH  10  11
ATOM     11  C   UNL     1       6.177   3.929  14.490  0.00  0.00    +0.000 C 
BRANCH  11  13
ATOM     12  C   UNL     1       5.582   3.185  12.164  0.00  0.00    +0.000 C 
ATOM     13  C   UNL     1       6.592   3.936  13.017  0.00  0.00    +0.000 C 
ENDBRANCH  11  13
ENDBRANCH  10  11
ENDBRANCH   5  10
ENDBRANCH   1   9
BRANCH   3  14
ATOM     14  C   UNL     1       2.723   4.734  18.387  0.00  0.00    +0.000 C 
BRANCH  14  15
ATOM     15  C   UNL     1       2.305   6.017  19.056  0.00  0.00    +0.000 A 
ATOM     16  C   UNL     1       1.862   6.025  20.387  0.00  0.00    +0.000 A 
ATOM     17  C   UNL     1       1.417   7.209  20.982  0.00  0.00    +0.000 A 
ATOM     18  C   UNL     1       1.406   8.397  20.254  0.00  0.00    +0.000 A 
ATOM     19  C   UNL     1       1.843   8.399  18.931  0.00  0.00    +0.000 A 
ATOM     20 CL   UNL     1       1.825   9.862  18.027  0.00  0.00    +0.000 Cl
ATOM     21  C   UNL     1       2.287   7.220  18.331  0.00  0.00    +0.000 A 
ENDBRANCH  14  15
ENDBRANCH   3  14
TORSDOF 6
ENDMDL
MODEL 6
REMARK VINA RESULT:      -6.7      2.346      4.105
REMARK  Name = 
REMARK  7 active torsions:
REMARK  status: ('A' for Active; 'I' for Inactive)
REMARK    1  A    between atoms: C_1  and  C_2
REMARK    2  A    between atoms: C_2  and  C_3
REMARK    3  A    between atoms: C_3  and  C_4
REMARK    4  A    between atoms: C_4  and  N_5
REMARK    5  A    between atoms: C_9  and  C_10
REMARK    6  A    between atoms: N_12  and  C_13
REMARK    7  A    between atoms: C_13  and  C_14
REMARK                            x       y       z     vdW  Elec       q    Type
REMARK                         _______ _______ _______ _____ _____    ______ ____
ROOT
ATOM      1  C   UNL     1       4.219   6.998  17.470  0.00  0.00    +0.000 C 
ATOM      2  O   UNL     1       3.357   7.719  16.968  0.00  0.00    +0.000 OA
ATOM      3  N   UNL     1       4.051   6.371  18.687  0.00  0.00    +0.000 N 
ATOM      4  H   UNL     1       4.700   5.604  18.852  0.00  0.00    +0.000 HD
ENDROOT
BRANCH   1   9
ATOM      5  N   UNL     1       6.564   6.288  17.904  0.00  0.00    +0.000 NA
ATOM      6  C   UNL     1       6.704   4.854  17.582  0.00  0.00    +0.000 C 
ATOM      7  C   UNL     1       6.665   4.778  16.068  0.00  0.00    +0.000 C 
ATOM      8  C   UNL     1       5.628   5.820  15.696  0.00  0.00    +0.000 C 
ATOM      9  C   UNL     1       5.626   6.815  16.861  0.00  0.00    +0.000 C 
BRANCH   5  10
ATOM     10  C   UNL     1       7.878   6.961  17.864  0.00  0.00    +0.000 C 
BRANCH  10  11
ATOM     11  C   UNL     1       7.764   8.483  17.705  0.00  0.00    +0.000 C 
BRANCH  11  13
ATOM     12  C   UNL     1       9.005  10.618  18.180  0.00  0.00    +0.000 C 
ATOM     13  C   UNL     1       8.695   9.214  18.674  0.00  0.00    +0.000 C 
ENDBRANCH  11  13
ENDBRANCH  10  11
ENDBRANCH   5  10
ENDBRANCH   1   9
BRANCH   3  14
ATOM     14  C   UNL     1       2.775   6.379  19.361  0.00  0.00    +0.000 C 
BRANCH  14  15
ATOM     15  C   UNL     1       2.161   5.004  19.424  0.00  0.00    +0.000 A 
ATOM     16  C   UNL     1       1.685   4.374  18.266  0.00  0.00    +0.000 A 
ATOM     17  C   UNL     1       1.060   3.126  18.340  0.00  0.00    +0.000 A 
ATOM     18  C   UNL     1       0.901   2.495  19.573  0.00  0.00    +0.000 A 
ATOM     19  C   UNL     1       1.369   3.115  20.729  0.00  0.00    +0.000 A 
ATOM     20 CL   UNL     1       1.167   2.344  22.254  0.00  0.00    +0.000 Cl
ATOM     21  C   UNL     1       1.992   4.362  20.662  0.00  0.00    +0.000 A 
ENDBRANCH  14  15
ENDBRANCH   3  14
TORSDOF 6
ENDMDL
MODEL 7
REMARK VINA RESULT:      -6.6      2.990      7.000
REMARK  Name = 
REMARK  7 active torsions:
REMARK  status: ('A' for Active; 'I' for Inactive)
REMARK    1  A    between atoms: C_1  and  C_2
REMARK    2  A    between atoms: C_2  and  C_3
REMARK    3  A    between atoms: C_3  and  C_4
REMARK    4  A    between atoms: C_4  and  N_5
REMARK    5  A    between atoms: C_9  and  C_10
REMARK    6  A    between atoms: N_12  and  C_13
REMARK    7  A    between atoms: C_13  and  C_14
REMARK                            x       y       z     vdW  Elec       q    Type
REMARK                         _______ _______ _______ _____ _____    ______ ____
ROOT
ATOM      1  C   UNL     1       4.900   4.801  17.362  0.00  0.00    +0.000 C 
ATOM      2  O   UNL     1       5.442   3.977  18.097  0.00  0.00    +0.000 OA
ATOM      3  N   UNL     1       5.569   5.449  16.346  0.00  0.00    +0.000 N 
ATOM      4  H   UNL     1       4.959   5.881  15.654  0.00  0.00    +0.000 HD
ENDROOT
BRANCH   1   9
ATOM      5  N   UNL     1       2.887   4.692  18.822  0.00  0.00    +0.000 NA
ATOM      6  C   UNL     1       2.946   5.786  19.812  0.00  0.00    +0.000 C 
ATOM      7  C   UNL     1       2.655   7.051  19.028  0.00  0.00    +0.000 C 
ATOM      8  C   UNL     1       3.369   6.815  17.711  0.00  0.00    +0.000 C 
ATOM      9  C   UNL     1       3.450   5.292  17.569  0.00  0.00    +0.000 C 
BRANCH   5  10
ATOM     10  C   UNL     1       1.497   4.228  18.642  0.00  0.00    +0.000 C 
BRANCH  10  11
ATOM     11  C   UNL     1       1.223   2.883  19.329  0.00  0.00    +0.000 C 
BRANCH  11  13
ATOM     12  C   UNL     1       2.080   2.578  21.674  0.00  0.00    +0.000 C 
ATOM     13  C   UNL     1       0.924   3.071  20.818  0.00  0.00    +0.000 C 
ENDBRANCH  11  13
ENDBRANCH  10  11
ENDBRANCH   5  10
ENDBRANCH   1   9
BRANCH   3  14
ATOM     14  C   UNL     1       6.908   5.064  15.969  0.00  0.00    +0.000 C 
BRANCH  14  15
ATOM     15  C   UNL     1       7.022   4.791  14.492  0.00  0.00    +0.000 A 
ATOM     16  C   UNL     1       7.890   5.542  13.686  0.00  0.00    +0.000 A 
ATOM     17  C   UNL     1       7.946   5.326  12.306  0.00  0.00    +0.000 A 
ATOM     18  C   UNL     1       7.133   4.359  11.715  0.00  0.00    +0.000 A 
ATOM     19  C   UNL     1       6.268   3.609  12.508  0.00  0.00    +0.000 A 
ATOM     20 CL   UNL     1       5.258   2.420  11.783  0.00  0.00    +0.000 Cl
ATOM     21  C   UNL     1       6.206   3.822  13.886  0.00  0.00    +0.000 A 
ENDBRANCH  14  15
ENDBRANCH   3  14
TORSDOF 6
ENDMDL
MODEL 8
REMARK VINA RESULT:      -6.6      2.424      6.084
REMARK  Name = 
REMARK  7 active torsions:
REMARK  status: ('A' for Active; 'I' for Inactive)
REMARK    1  A    between atoms: C_1  and  C_2
REMARK    2  A    between atoms: C_2  and  C_3
REMARK    3  A    between atoms: C_3  and  C_4
REMARK    4  A    between atoms: C_4  and  N_5
REMARK    5  A    between atoms: C_9  and  C_10
REMARK    6  A    between atoms: N_12  and  C_13
REMARK    7  A    between atoms: C_13  and  C_14
REMARK                            x       y       z     vdW  Elec       q    Type
REMARK                         _______ _______ _______ _____ _____    ______ ____
ROOT
ATOM      1  C   UNL     1       4.015   3.192  19.406  0.00  0.00    +0.000 C 
ATOM      2  O   UNL     1       5.003   2.502  19.653  0.00  0.00    +0.000 OA
ATOM      3  N   UNL     1       3.669   3.569  18.126  0.00  0.00    +0.000 N 
ATOM      4  H   UNL     1       2.707   3.890  18.032  0.00  0.00    +0.000 HD
ENDROOT
BRANCH   1   9
ATOM      5  N   UNL     1       1.911   4.434  19.880  0.00  0.00    +0.000 NA
ATOM      6  C   UNL     1       0.827   3.467  20.147  0.00  0.00    +0.000 C 
ATOM      7  C   UNL     1       1.129   2.897  21.519  0.00  0.00    +0.000 C 
ATOM      8  C   UNL     1       2.640   2.773  21.518  0.00  0.00    +0.000 C 
ATOM      9  C   UNL     1       3.125   3.815  20.504  0.00  0.00    +0.000 C 
BRANCH   5  10
ATOM     10  C   UNL     1       1.591   5.750  20.467  0.00  0.00    +0.000 C 
BRANCH  10  11
ATOM     11  C   UNL     1       2.462   6.882  19.906  0.00  0.00    +0.000 C 
BRANCH  11  13
ATOM     12  C   UNL     1       2.231   8.298  17.842  0.00  0.00    +0.000 C 
ATOM     13  C   UNL     1       2.444   6.891  18.376  0.00  0.00    +0.000 C 
ENDBRANCH  11  13
ENDBRANCH  10  11
ENDBRANCH   5  10
ENDBRANCH   1   9
BRANCH   3  14
ATOM     14  C   UNL     1       4.350   3.023  16.977  0.00  0.00    +0.000 C 
BRANCH  14  15
ATOM     15  C   UNL     1       5.354   3.989  16.403  0.00  0.00    +0.000 A 
ATOM     16  C   UNL     1       5.835   3.835  15.095  0.00  0.00    +0.000 A 
ATOM     17  C   UNL     1       6.812   4.697  14.590  0.00  0.00    +0.000 A 
ATOM     18  C   UNL     1       7.322   5.721  15.387  0.00  0.00    +0.000 A 
ATOM     19  C   UNL     1       6.851   5.880  16.688  0.00  0.00    +0.000 A 
ATOM     20 CL   UNL     1       7.483   7.137  17.679  0.00  0.00    +0.000 Cl
ATOM     21  C   UNL     1       5.877   5.021  17.199  0.00  0.00    +0.000 A 
ENDBRANCH  14  15
ENDBRANCH   3  14
TORSDOF 6
ENDMDL
MODEL 9
REMARK VINA RESULT:      -6.6      2.986      6.828
REMARK  Name = 
REMARK  7 active torsions:
REMARK  status: ('A' for Active; 'I' for Inactive)
REMARK    1  A    between atoms: C_1  and  C_2
REMARK    2  A    between atoms: C_2  and  C_3
REMARK    3  A    between atoms: C_3  and  C_4
REMARK    4  A    between atoms: C_4  and  N_5
REMARK    5  A    between atoms: C_9  and  C_10
REMARK    6  A    between atoms: N_12  and  C_13
REMARK    7  A    between atoms: C_13  and  C_14
REMARK                            x       y       z     vdW  Elec       q    Type
REMARK                         _______ _______ _______ _____ _____    ______ ____
ROOT
ATOM      1  C   UNL     1       4.853   5.595  16.848  0.00  0.00    +0.000 C 
ATOM      2  O   UNL     1       4.949   6.759  16.464  0.00  0.00    +0.000 OA
ATOM      3  N   UNL     1       5.811   4.639  16.579  0.00  0.00    +0.000 N 
ATOM      4  H   UNL     1       5.753   3.813  17.172  0.00  0.00    +0.000 HD
ENDROOT
BRANCH   1   9
ATOM      5  N   UNL     1       4.005   4.350  18.829  0.00  0.00    +0.000 NA
ATOM      6  C   UNL     1       3.663   5.312  19.897  0.00  0.00    +0.000 C 
ATOM      7  C   UNL     1       2.392   5.993  19.430  0.00  0.00    +0.000 C 
ATOM      8  C   UNL     1       2.610   6.147  17.937  0.00  0.00    +0.000 C 
ATOM      9  C   UNL     1       3.600   5.041  17.562  0.00  0.00    +0.000 C 
BRANCH   5  10
ATOM     10  C   UNL     1       3.283   3.077  19.026  0.00  0.00    +0.000 C 
BRANCH  10  11
ATOM     11  C   UNL     1       2.208   2.830  17.958  0.00  0.00    +0.000 C 
BRANCH  11  13
ATOM     12  C   UNL     1       0.742   2.944  19.998  0.00  0.00    +0.000 C 
ATOM     13  C   UNL     1       0.888   2.385  18.592  0.00  0.00    +0.000 C 
ENDBRANCH  11  13
ENDBRANCH  10  11
ENDBRANCH   5  10
ENDBRANCH   1   9
BRANCH   3  14
ATOM     14  C   UNL     1       7.074   4.997  15.982  0.00  0.00    +0.000 C 
BRANCH  14  15
ATOM     15  C   UNL     1       7.088   4.749  14.496  0.00  0.00    +0.000 A 
ATOM     16  C   UNL     1       7.890   5.521  13.644  0.00  0.00    +0.000 A 
ATOM     17  C   UNL     1       7.851   5.328  12.260  0.00  0.00    +0.000 A 
ATOM     18  C   UNL     1       7.007   4.363  11.712  0.00  0.00    +0.000 A 
ATOM     19  C   UNL     1       6.205   3.592  12.550  0.00  0.00    +0.000 A 
ATOM     20 CL   UNL     1       5.157   2.406  11.877  0.00  0.00    +0.000 Cl
ATOM     21  C   UNL     1       6.238   3.782  13.932  0.00  0.00    +0.000 A 
ENDBRANCH  14  15
ENDBRANCH   3  14
TORSDOF 6
ENDMDL
