MODEL 1
REMARK VINA RESULT:      -7.8      0.000      0.000
REMARK  Name = 
REMARK  10 active torsions:
REMARK  status: ('A' for Active; 'I' for Inactive)
REMARK    1  A    between atoms: C_1  and  C_2
REMARK    2  A    between atoms: C_2  and  O_3
REMARK    3  A    between atoms: O_3  and  C_4
REMARK    4  A    between atoms: C_7  and  O_8
REMARK    5  A    between atoms: O_8  and  C_9
REMARK    6  A    between atoms: C_9  and  C_10
REMARK    7  A    between atoms: N_12  and  C_13
REMARK    8  A    between atoms: C_16  and  O_17
REMARK    9  A    between atoms: O_17  and  C_18
REMARK   10  A    between atoms: C_20  and  N_21
REMARK                            x       y       z     vdW  Elec       q    Type
REMARK                         _______ _______ _______ _____ _____    ______ ____
ROOT
ATOM      1  C   UNL     1       7.488   7.522  17.945  0.00  0.00    +0.000 C 
ATOM      2  O   UNL     1       7.850   6.658  18.742  0.00  0.00    +0.000 OA
ATOM      3  N   UNL     1       6.422   7.385  17.074  0.00  0.00    +0.000 N 
ATOM      4  H   UNL     1       6.463   7.966  16.234  0.00  0.00    +0.000 HD
ENDROOT
BRANCH   3   5
ATOM      5  C   UNL     1       5.560   6.267  17.086  0.00  0.00    +0.000 A 
ATOM      6  C   UNL     1       4.308   6.364  17.699  0.00  0.00    +0.000 A 
ATOM      7  C   UNL     1       3.422   5.282  17.673  0.00  0.00    +0.000 A 
ATOM      8  C   UNL     1       3.770   4.077  17.065  0.00  0.00    +0.000 A 
ATOM      9  C   UNL     1       5.021   3.954  16.467  0.00  0.00    +0.000 A 
ATOM     10  C   UNL     1       5.895   5.052  16.470  0.00  0.00    +0.000 A 
BRANCH  10  11
ATOM     11  N   UNL     1       7.231   4.854  15.931  0.00  0.00    +0.000 N 
ATOM     12  O   UNL     1       7.492   5.389  14.846  0.00  0.00    +0.000 OA
ATOM     13  O   UNL     1       8.016   4.172  16.605  0.00  0.00    +0.000 OA
ENDBRANCH  10  11
BRANCH   8  14
ATOM     14  O   UNL     1       2.809   3.103  17.119  0.00  0.00    +0.000 OA
ATOM     15  C   UNL     1       2.991   2.070  18.073  0.00  0.00    +0.000 C 
ENDBRANCH   8  14
ENDBRANCH   3   5
BRANCH   1  16
ATOM     16  C   UNL     1       8.244   8.846  17.822  0.00  0.00    +0.000 C 
BRANCH  16  17
ATOM     17  O   UNL     1       8.932   9.142  19.031  0.00  0.00    +0.000 OA
BRANCH  17  21
ATOM     18  C   UNL     1      10.150  13.120  19.196  0.00  0.00    +0.000 A 
ATOM     19  C   UNL     1      10.052  12.423  17.993  0.00  0.00    +0.000 A 
ATOM     20  C   UNL     1       9.644  11.088  17.984  0.00  0.00    +0.000 A 
ATOM     21  C   UNL     1       9.367  10.428  19.182  0.00  0.00    +0.000 A 
ATOM     22  C   UNL     1       9.499  11.113  20.389  0.00  0.00    +0.000 A 
ATOM     23  C   UNL     1       9.896  12.458  20.396  0.00  0.00    +0.000 A 
BRANCH  18  24
ATOM     24  O   UNL     1      10.510  14.433  19.074  0.00  0.00    +0.000 OA
BRANCH  24  26
ATOM     25  C   UNL     1       8.531  15.716  18.757  0.00  0.00    +0.000 C 
ATOM     26  C   UNL     1       9.794  15.190  18.099  0.00  0.00    +0.000 C 
ENDBRANCH  24  26
ENDBRANCH  18  24
ENDBRANCH  17  21
ENDBRANCH  16  17
ENDBRANCH   1  16
TORSDOF 8
ENDMDL
MODEL 2
REMARK VINA RESULT:      -7.4      0.939      1.154
REMARK  Name = 
REMARK  10 active torsions:
REMARK  status: ('A' for Active; 'I' for Inactive)
REMARK    1  A    between atoms: C_1  and  C_2
REMARK    2  A    between atoms: C_2  and  O_3
REMARK    3  A    between atoms: O_3  and  C_4
REMARK    4  A    between atoms: C_7  and  O_8
REMARK    5  A    between atoms: O_8  and  C_9
REMARK    6  A    between atoms: C_9  and  C_10
REMARK    7  A    between atoms: N_12  and  C_13
REMARK    8  A    between atoms: C_16  and  O_17
REMARK    9  A    between atoms: O_17  and  C_18
REMARK   10  A    between atoms: C_20  and  N_21
REMARK                            x       y       z     vdW  Elec       q    Type
REMARK                         _______ _______ _______ _____ _____    ______ ____
ROOT
ATOM      1  C   UNL     1       7.493   7.530  17.937  0.00  0.00    +0.000 C 
ATOM      2  O   UNL     1       7.869   6.643  18.702  0.00  0.00    +0.000 OA
ATOM      3  N   UNL     1       6.395   7.429  17.102  0.00  0.00    +0.000 N 
ATOM      4  H   UNL     1       6.415   8.028  16.274  0.00  0.00    +0.000 HD
ENDROOT
BRANCH   3   5
ATOM      5  C   UNL     1       5.516   6.325  17.121  0.00  0.00    +0.000 A 
ATOM      6  C   UNL     1       4.353   6.377  17.893  0.00  0.00    +0.000 A 
ATOM      7  C   UNL     1       3.446   5.312  17.881  0.00  0.00    +0.000 A 
ATOM      8  C   UNL     1       3.687   4.166  17.126  0.00  0.00    +0.000 A 
ATOM      9  C   UNL     1       4.851   4.086  16.365  0.00  0.00    +0.000 A 
ATOM     10  C   UNL     1       5.743   5.168  16.359  0.00  0.00    +0.000 A 
BRANCH  10  11
ATOM     11  N   UNL     1       6.997   5.008  15.639  0.00  0.00    +0.000 N 
ATOM     12  O   UNL     1       7.932   4.465  16.239  0.00  0.00    +0.000 OA
ATOM     13  O   UNL     1       7.032   5.419  14.470  0.00  0.00    +0.000 OA
ENDBRANCH  10  11
BRANCH   8  14
ATOM     14  O   UNL     1       2.720   3.201  17.212  0.00  0.00    +0.000 OA
ATOM     15  C   UNL     1       1.599   3.483  18.035  0.00  0.00    +0.000 C 
ENDBRANCH   8  14
ENDBRANCH   3   5
BRANCH   1  16
ATOM     16  C   UNL     1       8.266   8.845  17.816  0.00  0.00    +0.000 C 
BRANCH  16  17
ATOM     17  O   UNL     1       8.977   9.118  19.016  0.00  0.00    +0.000 OA
BRANCH  17  21
ATOM     18  C   UNL     1       9.768  13.181  19.467  0.00  0.00    +0.000 A 
ATOM     19  C   UNL     1       9.677  12.577  18.214  0.00  0.00    +0.000 A 
ATOM     20  C   UNL     1       9.415  11.210  18.109  0.00  0.00    +0.000 A 
ATOM     21  C   UNL     1       9.279  10.428  19.257  0.00  0.00    +0.000 A 
ATOM     22  C   UNL     1       9.404  11.024  20.512  0.00  0.00    +0.000 A 
ATOM     23  C   UNL     1       9.654  12.400  20.616  0.00  0.00    +0.000 A 
BRANCH  18  24
ATOM     24  O   UNL     1       9.977  14.532  19.442  0.00  0.00    +0.000 OA
BRANCH  24  26
ATOM     25  C   UNL     1      10.850  15.876  21.200  0.00  0.00    +0.000 C 
ATOM     26  C   UNL     1       9.597  15.245  20.619  0.00  0.00    +0.000 C 
ENDBRANCH  24  26
ENDBRANCH  18  24
ENDBRANCH  17  21
ENDBRANCH  16  17
ENDBRANCH   1  16
TORSDOF 8
ENDMDL
MODEL 3
REMARK VINA RESULT:      -7.4      0.848      1.436
REMARK  Name = 
REMARK  10 active torsions:
REMARK  status: ('A' for Active; 'I' for Inactive)
REMARK    1  A    between atoms: C_1  and  C_2
REMARK    2  A    between atoms: C_2  and  O_3
REMARK    3  A    between atoms: O_3  and  C_4
REMARK    4  A    between atoms: C_7  and  O_8
REMARK    5  A    between atoms: O_8  and  C_9
REMARK    6  A    between atoms: C_9  and  C_10
REMARK    7  A    between atoms: N_12  and  C_13
REMARK    8  A    between atoms: C_16  and  O_17
REMARK    9  A    between atoms: O_17  and  C_18
REMARK   10  A    between atoms: C_20  and  N_21
REMARK                            x       y       z     vdW  Elec       q    Type
REMARK                         _______ _______ _______ _____ _____    ______ ____
ROOT
ATOM      1  C   UNL     1       7.572   7.545  17.891  0.00  0.00    +0.000 C 
ATOM      2  O   UNL     1       7.900   6.669  18.690  0.00  0.00    +0.000 OA
ATOM      3  N   UNL     1       6.494   7.452  17.029  0.00  0.00    +0.000 N 
ATOM      4  H   UNL     1       6.555   8.026  16.185  0.00  0.00    +0.000 HD
ENDROOT
BRANCH   3   5
ATOM      5  C   UNL     1       5.582   6.375  17.054  0.00  0.00    +0.000 A 
ATOM      6  C   UNL     1       4.403   6.483  17.794  0.00  0.00    +0.000 A 
ATOM      7  C   UNL     1       3.464   5.446  17.787  0.00  0.00    +0.000 A 
ATOM      8  C   UNL     1       3.689   4.273  17.069  0.00  0.00    +0.000 A 
ATOM      9  C   UNL     1       4.869   4.138  16.341  0.00  0.00    +0.000 A 
ATOM     10  C   UNL     1       5.793   5.193  16.329  0.00  0.00    +0.000 A 
BRANCH  10  11
ATOM     11  N   UNL     1       7.059   4.976  15.646  0.00  0.00    +0.000 N 
ATOM     12  O   UNL     1       7.960   4.416  16.282  0.00  0.00    +0.000 OA
ATOM     13  O   UNL     1       7.138   5.359  14.470  0.00  0.00    +0.000 OA
ENDBRANCH  10  11
BRANCH   8  14
ATOM     14  O   UNL     1       2.691   3.340  17.155  0.00  0.00    +0.000 OA
ATOM     15  C   UNL     1       1.495   3.734  17.807  0.00  0.00    +0.000 C 
ENDBRANCH   8  14
ENDBRANCH   3   5
BRANCH   1  16
ATOM     16  C   UNL     1       8.387   8.831  17.755  0.00  0.00    +0.000 C 
BRANCH  16  17
ATOM     17  O   UNL     1       8.822   9.285  19.031  0.00  0.00    +0.000 OA
BRANCH  17  21
ATOM     18  C   UNL     1      10.670  12.996  19.415  0.00  0.00    +0.000 A 
ATOM     19  C   UNL     1      10.501  12.135  20.498  0.00  0.00    +0.000 A 
ATOM     20  C   UNL     1       9.871  10.902  20.326  0.00  0.00    +0.000 A 
ATOM     21  C   UNL     1       9.371  10.535  19.075  0.00  0.00    +0.000 A 
ATOM     22  C   UNL     1       9.506  11.410  17.998  0.00  0.00    +0.000 A 
ATOM     23  C   UNL     1      10.151  12.643  18.170  0.00  0.00    +0.000 A 
BRANCH  18  24
ATOM     24  O   UNL     1      11.344  14.151  19.696  0.00  0.00    +0.000 OA
BRANCH  24  26
ATOM     25  C   UNL     1       9.708  15.818  20.150  0.00  0.00    +0.000 C 
ATOM     26  C   UNL     1      10.804  14.952  20.746  0.00  0.00    +0.000 C 
ENDBRANCH  24  26
ENDBRANCH  18  24
ENDBRANCH  17  21
ENDBRANCH  16  17
ENDBRANCH   1  16
TORSDOF 8
ENDMDL
MODEL 4
REMARK VINA RESULT:      -7.0      5.771      8.403
REMARK  Name = 
REMARK  10 active torsions:
REMARK  status: ('A' for Active; 'I' for Inactive)
REMARK    1  A    between atoms: C_1  and  C_2
REMARK    2  A    between atoms: C_2  and  O_3
REMARK    3  A    between atoms: O_3  and  C_4
REMARK    4  A    between atoms: C_7  and  O_8
REMARK    5  A    between atoms: O_8  and  C_9
REMARK    6  A    between atoms: C_9  and  C_10
REMARK    7  A    between atoms: N_12  and  C_13
REMARK    8  A    between atoms: C_16  and  O_17
REMARK    9  A    between atoms: O_17  and  C_18
REMARK   10  A    between atoms: C_20  and  N_21
REMARK                            x       y       z     vdW  Elec       q    Type
REMARK                         _______ _______ _______ _____ _____    ______ ____
ROOT
ATOM      1  C   UNL     1       2.224   5.675  20.248  0.00  0.00    +0.000 C 
ATOM      2  O   UNL     1       1.135   5.261  20.644  0.00  0.00    +0.000 OA
ATOM      3  N   UNL     1       2.527   7.010  20.051  0.00  0.00    +0.000 N 
ATOM      4  H   UNL     1       3.275   7.196  19.379  0.00  0.00    +0.000 HD
ENDROOT
BRANCH   3   5
ATOM      5  C   UNL     1       1.644   8.057  20.392  0.00  0.00    +0.000 A 
ATOM      6  C   UNL     1       1.105   8.116  21.680  0.00  0.00    +0.000 A 
ATOM      7  C   UNL     1       0.271   9.176  22.050  0.00  0.00    +0.000 A 
ATOM      8  C   UNL     1      -0.068  10.180  21.144  0.00  0.00    +0.000 A 
ATOM      9  C   UNL     1       0.443  10.127  19.849  0.00  0.00    +0.000 A 
ATOM     10  C   UNL     1       1.303   9.078  19.492  0.00  0.00    +0.000 A 
BRANCH  10  11
ATOM     11  N   UNL     1       1.731   8.996  18.105  0.00  0.00    +0.000 N 
ATOM     12  O   UNL     1       2.192  10.022  17.590  0.00  0.00    +0.000 OA
ATOM     13  O   UNL     1       1.612   7.899  17.541  0.00  0.00    +0.000 OA
ENDBRANCH  10  11
BRANCH   8  14
ATOM     14  O   UNL     1      -0.896  11.151  21.639  0.00  0.00    +0.000 OA
ATOM     15  C   UNL     1      -1.285  11.037  22.997  0.00  0.00    +0.000 C 
ENDBRANCH   8  14
ENDBRANCH   3   5
BRANCH   1  16
ATOM     16  C   UNL     1       3.351   4.706  19.889  0.00  0.00    +0.000 C 
BRANCH  16  17
ATOM     17  O   UNL     1       4.568   5.410  19.682  0.00  0.00    +0.000 OA
BRANCH  17  21
ATOM     18  C   UNL     1       6.417   4.650  16.029  0.00  0.00    +0.000 A 
ATOM     19  C   UNL     1       5.033   4.775  16.150  0.00  0.00    +0.000 A 
ATOM     20  C   UNL     1       4.455   5.025  17.395  0.00  0.00    +0.000 A 
ATOM     21  C   UNL     1       5.252   5.115  18.537  0.00  0.00    +0.000 A 
ATOM     22  C   UNL     1       6.633   4.955  18.425  0.00  0.00    +0.000 A 
ATOM     23  C   UNL     1       7.214   4.717  17.171  0.00  0.00    +0.000 A 
BRANCH  18  24
ATOM     24  O   UNL     1       6.870   4.457  14.754  0.00  0.00    +0.000 OA
BRANCH  24  26
ATOM     25  C   UNL     1       6.618   3.763  12.493  0.00  0.00    +0.000 C 
ATOM     26  C   UNL     1       5.978   3.780  13.869  0.00  0.00    +0.000 C 
ENDBRANCH  24  26
ENDBRANCH  18  24
ENDBRANCH  17  21
ENDBRANCH  16  17
ENDBRANCH   1  16
TORSDOF 8
ENDMDL
MODEL 5
REMARK VINA RESULT:      -7.0      1.339      1.682
REMARK  Name = 
REMARK  10 active torsions:
REMARK  status: ('A' for Active; 'I' for Inactive)
REMARK    1  A    between atoms: C_1  and  C_2
REMARK    2  A    between atoms: C_2  and  O_3
REMARK    3  A    between atoms: O_3  and  C_4
REMARK    4  A    between atoms: C_7  and  O_8
REMARK    5  A    between atoms: O_8  and  C_9
REMARK    6  A    between atoms: C_9  and  C_10
REMARK    7  A    between atoms: N_12  and  C_13
REMARK    8  A    between atoms: C_16  and  O_17
REMARK    9  A    between atoms: O_17  and  C_18
REMARK   10  A    between atoms: C_20  and  N_21
REMARK                            x       y       z     vdW  Elec       q    Type
REMARK                         _______ _______ _______ _____ _____    ______ ____
ROOT
ATOM      1  C   UNL     1       7.170   7.506  17.717  0.00  0.00    +0.000 C 
ATOM      2  O   UNL     1       6.622   7.846  16.670  0.00  0.00    +0.000 OA
ATOM      3  N   UNL     1       6.774   6.431  18.494  0.00  0.00    +0.000 N 
ATOM      4  H   UNL     1       7.030   6.485  19.482  0.00  0.00    +0.000 HD
ENDROOT
BRANCH   3   5
ATOM      5  C   UNL     1       5.755   5.536  18.103  0.00  0.00    +0.000 A 
ATOM      6  C   UNL     1       4.516   5.573  18.747  0.00  0.00    +0.000 A 
ATOM      7  C   UNL     1       3.479   4.729  18.336  0.00  0.00    +0.000 A 
ATOM      8  C   UNL     1       3.659   3.814  17.300  0.00  0.00    +0.000 A 
ATOM      9  C   UNL     1       4.894   3.748  16.660  0.00  0.00    +0.000 A 
ATOM     10  C   UNL     1       5.921   4.617  17.056  0.00  0.00    +0.000 A 
BRANCH  10  11
ATOM     11  N   UNL     1       7.227   4.447  16.439  0.00  0.00    +0.000 N 
ATOM     12  O   UNL     1       7.308   4.631  15.218  0.00  0.00    +0.000 OA
ATOM     13  O   UNL     1       8.168   4.141  17.184  0.00  0.00    +0.000 OA
ENDBRANCH  10  11
BRANCH   8  14
ATOM     14  O   UNL     1       2.563   3.048  17.007  0.00  0.00    +0.000 OA
ATOM     15  C   UNL     1       1.909   2.415  18.094  0.00  0.00    +0.000 C 
ENDBRANCH   8  14
ENDBRANCH   3   5
BRANCH   1  16
ATOM     16  C   UNL     1       8.348   8.301  18.283  0.00  0.00    +0.000 C 
BRANCH  16  17
ATOM     17  O   UNL     1       8.491   9.538  17.596  0.00  0.00    +0.000 OA
BRANCH  17  21
ATOM     18  C   UNL     1      10.091  12.532  20.007  0.00  0.00    +0.000 A 
ATOM     19  C   UNL     1       9.938  11.221  20.455  0.00  0.00    +0.000 A 
ATOM     20  C   UNL     1       9.392  10.249  19.615  0.00  0.00    +0.000 A 
ATOM     21  C   UNL     1       8.960  10.589  18.332  0.00  0.00    +0.000 A 
ATOM     22  C   UNL     1       9.079  11.907  17.894  0.00  0.00    +0.000 A 
ATOM     23  C   UNL     1       9.640  12.880  18.734  0.00  0.00    +0.000 A 
BRANCH  18  24
ATOM     24  O   UNL     1      10.682  13.381  20.900  0.00  0.00    +0.000 OA
BRANCH  24  26
ATOM     25  C   UNL     1       9.924  15.195  22.239  0.00  0.00    +0.000 C 
ATOM     26  C   UNL     1      10.272  14.746  20.831  0.00  0.00    +0.000 C 
ENDBRANCH  24  26
ENDBRANCH  18  24
ENDBRANCH  17  21
ENDBRANCH  16  17
ENDBRANCH   1  16
TORSDOF 8
ENDMDL
MODEL 6
REMARK VINA RESULT:      -6.9      1.348      1.537
REMARK  Name = 
REMARK  10 active torsions:
REMARK  status: ('A' for Active; 'I' for Inactive)
REMARK    1  A    between atoms: C_1  and  C_2
REMARK    2  A    between atoms: C_2  and  O_3
REMARK    3  A    between atoms: O_3  and  C_4
REMARK    4  A    between atoms: C_7  and  O_8
REMARK    5  A    between atoms: O_8  and  C_9
REMARK    6  A    between atoms: C_9  and  C_10
REMARK    7  A    between atoms: N_12  and  C_13
REMARK    8  A    between atoms: C_16  and  O_17
REMARK    9  A    between atoms: O_17  and  C_18
REMARK   10  A    between atoms: C_20  and  N_21
REMARK                            x       y       z     vdW  Elec       q    Type
REMARK                         _______ _______ _______ _____ _____    ______ ____
ROOT
ATOM      1  C   UNL     1       7.070   7.395  17.671  0.00  0.00    +0.000 C 
ATOM      2  O   UNL     1       6.440   7.782  16.688  0.00  0.00    +0.000 OA
ATOM      3  N   UNL     1       6.736   6.286  18.427  0.00  0.00    +0.000 N 
ATOM      4  H   UNL     1       7.070   6.295  19.393  0.00  0.00    +0.000 HD
ENDROOT
BRANCH   3   5
ATOM      5  C   UNL     1       5.687   5.408  18.079  0.00  0.00    +0.000 A 
ATOM      6  C   UNL     1       4.489   5.440  18.797  0.00  0.00    +0.000 A 
ATOM      7  C   UNL     1       3.422   4.613  18.431  0.00  0.00    +0.000 A 
ATOM      8  C   UNL     1       3.531   3.720  17.367  0.00  0.00    +0.000 A 
ATOM      9  C   UNL     1       4.725   3.658  16.652  0.00  0.00    +0.000 A 
ATOM     10  C   UNL     1       5.782   4.510  17.005  0.00  0.00    +0.000 A 
BRANCH  10  11
ATOM     11  N   UNL     1       7.047   4.344  16.307  0.00  0.00    +0.000 N 
ATOM     12  O   UNL     1       7.024   4.385  15.070  0.00  0.00    +0.000 OA
ATOM     13  O   UNL     1       8.059   4.184  17.004  0.00  0.00    +0.000 OA
ENDBRANCH  10  11
BRANCH   8  14
ATOM     14  O   UNL     1       2.413   2.969  17.123  0.00  0.00    +0.000 OA
ATOM     15  C   UNL     1       1.745   2.422  18.248  0.00  0.00    +0.000 C 
ENDBRANCH   8  14
ENDBRANCH   3   5
BRANCH   1  16
ATOM     16  C   UNL     1       8.291   8.166  18.176  0.00  0.00    +0.000 C 
BRANCH  16  17
ATOM     17  O   UNL     1       8.286   9.496  17.672  0.00  0.00    +0.000 OA
BRANCH  17  21
ATOM     18  C   UNL     1      10.048  12.584  19.838  0.00  0.00    +0.000 A 
ATOM     19  C   UNL     1       9.581  12.762  18.537  0.00  0.00    +0.000 A 
ATOM     20  C   UNL     1       9.001  11.698  17.845  0.00  0.00    +0.000 A 
ATOM     21  C   UNL     1       8.917  10.436  18.435  0.00  0.00    +0.000 A 
ATOM     22  C   UNL     1       9.416  10.246  19.724  0.00  0.00    +0.000 A 
ATOM     23  C   UNL     1       9.987  11.320  20.423  0.00  0.00    +0.000 A 
BRANCH  18  24
ATOM     24  O   UNL     1      10.549  13.709  20.431  0.00  0.00    +0.000 OA
BRANCH  24  26
ATOM     25  C   UNL     1      10.399  15.507  21.981  0.00  0.00    +0.000 C 
ATOM     26  C   UNL     1       9.925  14.103  21.652  0.00  0.00    +0.000 C 
ENDBRANCH  24  26
ENDBRANCH  18  24
ENDBRANCH  17  21
ENDBRANCH  16  17
ENDBRANCH   1  16
TORSDOF 8
ENDMDL
MODEL 7
REMARK VINA RESULT:      -6.9      6.203      8.122
REMARK  Name = 
REMARK  10 active torsions:
REMARK  status: ('A' for Active; 'I' for Inactive)
REMARK    1  A    between atoms: C_1  and  C_2
REMARK    2  A    between atoms: C_2  and  O_3
REMARK    3  A    between atoms: O_3  and  C_4
REMARK    4  A    between atoms: C_7  and  O_8
REMARK    5  A    between atoms: O_8  and  C_9
REMARK    6  A    between atoms: C_9  and  C_10
REMARK    7  A    between atoms: N_12  and  C_13
REMARK    8  A    between atoms: C_16  and  O_17
REMARK    9  A    between atoms: O_17  and  C_18
REMARK   10  A    between atoms: C_20  and  N_21
REMARK                            x       y       z     vdW  Elec       q    Type
REMARK                         _______ _______ _______ _____ _____    ______ ____
ROOT
ATOM      1  C   UNL     1       2.317   7.420  19.163  0.00  0.00    +0.000 C 
ATOM      2  O   UNL     1       2.130   7.875  18.036  0.00  0.00    +0.000 OA
ATOM      3  N   UNL     1       3.071   6.293  19.436  0.00  0.00    +0.000 N 
ATOM      4  H   UNL     1       2.838   5.807  20.304  0.00  0.00    +0.000 HD
ENDROOT
BRANCH   3   5
ATOM      5  C   UNL     1       3.805   5.603  18.447  0.00  0.00    +0.000 A 
ATOM      6  C   UNL     1       5.044   6.096  18.032  0.00  0.00    +0.000 A 
ATOM      7  C   UNL     1       5.806   5.396  17.091  0.00  0.00    +0.000 A 
ATOM      8  C   UNL     1       5.343   4.210  16.524  0.00  0.00    +0.000 A 
ATOM      9  C   UNL     1       4.101   3.713  16.910  0.00  0.00    +0.000 A 
ATOM     10  C   UNL     1       3.353   4.404  17.874  0.00  0.00    +0.000 A 
BRANCH  10  11
ATOM     11  N   UNL     1       2.017   3.914  18.174  0.00  0.00    +0.000 N 
ATOM     12  O   UNL     1       1.169   3.987  17.276  0.00  0.00    +0.000 OA
ATOM     13  O   UNL     1       1.828   3.448  19.306  0.00  0.00    +0.000 OA
ENDBRANCH  10  11
BRANCH   8  14
ATOM     14  O   UNL     1       6.189   3.634  15.615  0.00  0.00    +0.000 OA
ATOM     15  C   UNL     1       6.047   4.030  14.261  0.00  0.00    +0.000 C 
ENDBRANCH   8  14
ENDBRANCH   3   5
BRANCH   1  16
ATOM     16  C   UNL     1       1.669   8.065  20.390  0.00  0.00    +0.000 C 
BRANCH  16  17
ATOM     17  O   UNL     1       1.136   9.341  20.061  0.00  0.00    +0.000 OA
BRANCH  17  21
ATOM     18  C   UNL     1      -1.118  11.479  22.833  0.00  0.00    +0.000 A 
ATOM     19  C   UNL     1      -0.603  12.070  21.680  0.00  0.00    +0.000 A 
ATOM     20  C   UNL     1       0.152  11.317  20.780  0.00  0.00    +0.000 A 
ATOM     21  C   UNL     1       0.430   9.975  21.043  0.00  0.00    +0.000 A 
ATOM     22  C   UNL     1      -0.054   9.390  22.213  0.00  0.00    +0.000 A 
ATOM     23  C   UNL     1      -0.824  10.144  23.110  0.00  0.00    +0.000 A 
BRANCH  18  24
ATOM     24  O   UNL     1      -1.883  12.302  23.611  0.00  0.00    +0.000 OA
BRANCH  24  26
ATOM     25  C   UNL     1      -4.096  12.422  24.475  0.00  0.00    +0.000 C 
ATOM     26  C   UNL     1      -3.247  12.446  23.217  0.00  0.00    +0.000 C 
ENDBRANCH  24  26
ENDBRANCH  18  24
ENDBRANCH  17  21
ENDBRANCH  16  17
ENDBRANCH   1  16
TORSDOF 8
ENDMDL
MODEL 8
REMARK VINA RESULT:      -6.9      5.809      7.401
REMARK  Name = 
REMARK  10 active torsions:
REMARK  status: ('A' for Active; 'I' for Inactive)
REMARK    1  A    between atoms: C_1  and  C_2
REMARK    2  A    between atoms: C_2  and  O_3
REMARK    3  A    between atoms: O_3  and  C_4
REMARK    4  A    between atoms: C_7  and  O_8
REMARK    5  A    between atoms: O_8  and  C_9
REMARK    6  A    between atoms: C_9  and  C_10
REMARK    7  A    between atoms: N_12  and  C_13
REMARK    8  A    between atoms: C_16  and  O_17
REMARK    9  A    between atoms: O_17  and  C_18
REMARK   10  A    between atoms: C_20  and  N_21
REMARK                            x       y       z     vdW  Elec       q    Type
REMARK                         _______ _______ _______ _____ _____    ______ ____
ROOT
ATOM      1  C   UNL     1       2.760   6.146  18.527  0.00  0.00    +0.000 C 
ATOM      2  O   UNL     1       1.967   5.452  17.891  0.00  0.00    +0.000 OA
ATOM      3  N   UNL     1       4.122   6.192  18.290  0.00  0.00    +0.000 N 
ATOM      4  H   UNL     1       4.697   6.472  19.088  0.00  0.00    +0.000 HD
ENDROOT
BRANCH   3   5
ATOM      5  C   UNL     1       4.737   5.525  17.209  0.00  0.00    +0.000 A 
ATOM      6  C   UNL     1       5.039   6.228  16.041  0.00  0.00    +0.000 A 
ATOM      7  C   UNL     1       5.695   5.594  14.982  0.00  0.00    +0.000 A 
ATOM      8  C   UNL     1       6.039   4.245  15.048  0.00  0.00    +0.000 A 
ATOM      9  C   UNL     1       5.727   3.521  16.197  0.00  0.00    +0.000 A 
ATOM     10  C   UNL     1       5.095   4.169  17.268  0.00  0.00    +0.000 A 
BRANCH  10  11
ATOM     11  N   UNL     1       4.690   3.359  18.406  0.00  0.00    +0.000 N 
ATOM     12  O   UNL     1       5.276   3.552  19.478  0.00  0.00    +0.000 OA
ATOM     13  O   UNL     1       3.779   2.541  18.220  0.00  0.00    +0.000 OA
ENDBRANCH  10  11
BRANCH   8  14
ATOM     14  O   UNL     1       6.672   3.753  13.939  0.00  0.00    +0.000 OA
ATOM     15  C   UNL     1       5.876   3.533  12.786  0.00  0.00    +0.000 C 
ENDBRANCH   8  14
ENDBRANCH   3   5
BRANCH   1  16
ATOM     16  C   UNL     1       2.287   7.007  19.699  0.00  0.00    +0.000 C 
BRANCH  16  17
ATOM     17  O   UNL     1       1.889   8.294  19.245  0.00  0.00    +0.000 OA
BRANCH  17  21
ATOM     18  C   UNL     1      -0.006  10.494  22.229  0.00  0.00    +0.000 A 
ATOM     19  C   UNL     1       0.251   9.130  22.362  0.00  0.00    +0.000 A 
ATOM     20  C   UNL     1       0.885   8.430  21.334  0.00  0.00    +0.000 A 
ATOM     21  C   UNL     1       1.233   9.080  20.149  0.00  0.00    +0.000 A 
ATOM     22  C   UNL     1       0.944  10.436  20.000  0.00  0.00    +0.000 A 
ATOM     23  C   UNL     1       0.320  11.141  21.038  0.00  0.00    +0.000 A 
BRANCH  18  24
ATOM     24  O   UNL     1      -0.584  11.081  23.320  0.00  0.00    +0.000 OA
BRANCH  24  26
ATOM     25  C   UNL     1      -2.036  12.963  23.232  0.00  0.00    +0.000 C 
ATOM     26  C   UNL     1      -1.956  11.448  23.180  0.00  0.00    +0.000 C 
ENDBRANCH  24  26
ENDBRANCH  18  24
ENDBRANCH  17  21
ENDBRANCH  16  17
ENDBRANCH   1  16
TORSDOF 8
ENDMDL
MODEL 9
REMARK VINA RESULT:      -6.9      1.351      1.585
REMARK  Name = 
REMARK  10 active torsions:
REMARK  status: ('A' for Active; 'I' for Inactive)
REMARK    1  A    between atoms: C_1  and  C_2
REMARK    2  A    between atoms: C_2  and  O_3
REMARK    3  A    between atoms: O_3  and  C_4
REMARK    4  A    between atoms: C_7  and  O_8
REMARK    5  A    between atoms: O_8  and  C_9
REMARK    6  A    between atoms: C_9  and  C_10
REMARK    7  A    between atoms: N_12  and  C_13
REMARK    8  A    between atoms: C_16  and  O_17
REMARK    9  A    between atoms: O_17  and  C_18
REMARK   10  A    between atoms: C_20  and  N_21
REMARK                            x       y       z     vdW  Elec       q    Type
REMARK                         _______ _______ _______ _____ _____    ______ ____
ROOT
ATOM      1  C   UNL     1       7.620   7.658  17.871  0.00  0.00    +0.000 C 
ATOM      2  O   UNL     1       8.225   6.962  18.685  0.00  0.00    +0.000 OA
ATOM      3  N   UNL     1       6.487   7.254  17.187  0.00  0.00    +0.000 N 
ATOM      4  H   UNL     1       6.318   7.729  16.297  0.00  0.00    +0.000 HD
ENDROOT
BRANCH   3   5
ATOM      5  C   UNL     1       5.836   6.027  17.437  0.00  0.00    +0.000 A 
ATOM      6  C   UNL     1       5.227   5.805  18.674  0.00  0.00    +0.000 A 
ATOM      7  C   UNL     1       4.532   4.616  18.919  0.00  0.00    +0.000 A 
ATOM      8  C   UNL     1       4.453   3.614  17.954  0.00  0.00    +0.000 A 
ATOM      9  C   UNL     1       5.072   3.808  16.721  0.00  0.00    +0.000 A 
ATOM     10  C   UNL     1       5.742   5.014  16.471  0.00  0.00    +0.000 A 
BRANCH  10  11
ATOM     11  N   UNL     1       6.465   5.139  15.215  0.00  0.00    +0.000 N 
ATOM     12  O   UNL     1       5.862   4.834  14.178  0.00  0.00    +0.000 OA
ATOM     13  O   UNL     1       7.632   5.552  15.274  0.00  0.00    +0.000 OA
ENDBRANCH  10  11
BRANCH   8  14
ATOM     14  O   UNL     1       3.748   2.502  18.329  0.00  0.00    +0.000 OA
ATOM     15  C   UNL     1       2.463   2.328  17.755  0.00  0.00    +0.000 C 
ENDBRANCH   8  14
ENDBRANCH   3   5
BRANCH   1  16
ATOM     16  C   UNL     1       8.118   9.057  17.507  0.00  0.00    +0.000 C 
BRANCH  16  17
ATOM     17  O   UNL     1       8.509   9.767  18.675  0.00  0.00    +0.000 OA
BRANCH  17  21
ATOM     18  C   UNL     1      11.048  13.017  18.100  0.00  0.00    +0.000 A 
ATOM     19  C   UNL     1      11.436  11.890  18.823  0.00  0.00    +0.000 A 
ATOM     20  C   UNL     1      10.551  10.825  18.996  0.00  0.00    +0.000 A 
ATOM     21  C   UNL     1       9.256  10.893  18.479  0.00  0.00    +0.000 A 
ATOM     22  C   UNL     1       8.854  12.035  17.786  0.00  0.00    +0.000 A 
ATOM     23  C   UNL     1       9.748  13.098  17.601  0.00  0.00    +0.000 A 
BRANCH  18  24
ATOM     24  O   UNL     1      12.015  13.971  17.955  0.00  0.00    +0.000 OA
BRANCH  24  26
ATOM     25  C   UNL     1      11.796  15.448  19.808  0.00  0.00    +0.000 C 
ATOM     26  C   UNL     1      11.638  15.303  18.305  0.00  0.00    +0.000 C 
ENDBRANCH  24  26
ENDBRANCH  18  24
ENDBRANCH  17  21
ENDBRANCH  16  17
ENDBRANCH   1  16
TORSDOF 8
ENDMDL
