MODEL 1
REMARK VINA RESULT:      -8.2      0.000      0.000
REMARK  Name = 
REMARK  6 active torsions:
REMARK  status: ('A' for Active; 'I' for Inactive)
REMARK    1  A    between atoms: C_1  and  C_2
REMARK    2  A    between atoms: C_2  and  C_3
REMARK    3  A    between atoms: C_2  and  C_4
REMARK    4  A    between atoms: C_2  and  C_5
REMARK    5  A    between atoms: C_8  and  O_9
REMARK    6  A    between atoms: O_9  and  C_10
REMARK                            x       y       z     vdW  Elec       q    Type
REMARK                         _______ _______ _______ _____ _____    ______ ____
ROOT
ATOM      1  C   UNL     1       0.057  10.848  21.415  0.00  0.00    +0.000 C 
ATOM      2  O   UNL     1       0.796  10.465  22.328  0.00  0.00    +0.000 OA
ATOM      3  N   UNL     1      -1.065  11.669  21.682  0.00  0.00    +0.000 N 
ATOM      4  C   UNL     1      -2.019  12.180  20.669  0.00  0.00    +0.000 C 
ATOM      5  C   UNL     1      -2.738  13.553  21.021  0.00  0.00    +0.000 C 
ATOM      6  C   UNL     1      -3.279  13.474  22.410  0.00  0.00    +0.000 A 
ATOM      7  C   UNL     1      -2.771  12.490  23.229  0.00  0.00    +0.000 A 
ATOM      8  N   UNL     1      -3.880  11.979  23.862  0.00  0.00    +0.000 N 
ATOM      9  C   UNL     1      -4.944  12.860  23.719  0.00  0.00    +0.000 A 
ATOM     10  C   UNL     1      -6.293  12.764  24.090  0.00  0.00    +0.000 A 
ATOM     11  C   UNL     1      -7.082  13.917  23.989  0.00  0.00    +0.000 A 
ATOM     12  C   UNL     1      -6.535  15.120  23.545  0.00  0.00    +0.000 A 
ATOM     13  C   UNL     1      -5.236  15.151  23.013  0.00  0.00    +0.000 A 
ATOM     14  C   UNL     1      -4.446  13.981  23.046  0.00  0.00    +0.000 A 
ATOM     15  C   UNL     1      -1.399  11.907  23.105  0.00  0.00    +0.000 C 
ATOM     16  H   UNL     1      -3.944  11.074  24.307  0.00  0.00    +0.000 HD
ENDROOT
BRANCH   1  17
ATOM     17  O   UNL     1       0.292  10.471  20.050  0.00  0.00    +0.000 OA
BRANCH  17  21
ATOM     18  C   UNL     1       2.697   7.095  18.617  0.00  0.00    +0.000 A 
ATOM     19  C   UNL     1       2.396   8.200  17.785  0.00  0.00    +0.000 A 
ATOM     20  C   UNL     1       1.605   9.319  18.211  0.00  0.00    +0.000 A 
ATOM     21  C   UNL     1       1.081   9.362  19.503  0.00  0.00    +0.000 A 
ATOM     22  C   UNL     1       1.338   8.269  20.343  0.00  0.00    +0.000 A 
ATOM     23  C   UNL     1       2.132   7.161  19.907  0.00  0.00    +0.000 A 
BRANCH  18  25
ATOM     24  C   UNL     1       2.818   4.641  17.694  0.00  0.00    +0.000 C 
ATOM     25  C   UNL     1       3.602   5.899  18.165  0.00  0.00    +0.000 C 
ATOM     26  C   UNL     1       4.546   5.412  19.294  0.00  0.00    +0.000 C 
ATOM     27  C   UNL     1       4.513   6.298  16.973  0.00  0.00    +0.000 C 
ENDBRANCH  18  25
ENDBRANCH  17  21
ENDBRANCH   1  17
TORSDOF 3
ENDMDL
MODEL 2
REMARK VINA RESULT:      -8.2      0.687      1.160
REMARK  Name = 
REMARK  6 active torsions:
REMARK  status: ('A' for Active; 'I' for Inactive)
REMARK    1  A    between atoms: C_1  and  C_2
REMARK    2  A    between atoms: C_2  and  C_3
REMARK    3  A    between atoms: C_2  and  C_4
REMARK    4  A    between atoms: C_2  and  C_5
REMARK    5  A    between atoms: C_8  and  O_9
REMARK    6  A    between atoms: O_9  and  C_10
REMARK                            x       y       z     vdW  Elec       q    Type
REMARK                         _______ _______ _______ _____ _____    ______ ____
ROOT
ATOM      1  C   UNL     1      -0.489  10.973  21.949  0.00  0.00    +0.000 C 
ATOM      2  O   UNL     1       0.177  10.608  22.923  0.00  0.00    +0.000 OA
ATOM      3  N   UNL     1      -1.629  11.798  22.113  0.00  0.00    +0.000 N 
ATOM      4  C   UNL     1      -2.501  12.289  21.020  0.00  0.00    +0.000 C 
ATOM      5  C   UNL     1      -3.245  13.667  21.290  0.00  0.00    +0.000 C 
ATOM      6  C   UNL     1      -3.891  13.613  22.634  0.00  0.00    +0.000 A 
ATOM      7  C   UNL     1      -3.449  12.645  23.508  0.00  0.00    +0.000 A 
ATOM      8  N   UNL     1      -4.603  12.145  24.062  0.00  0.00    +0.000 N 
ATOM      9  C   UNL     1      -5.652  13.022  23.821  0.00  0.00    +0.000 A 
ATOM     10  C   UNL     1      -7.027  12.931  24.089  0.00  0.00    +0.000 A 
ATOM     11  C   UNL     1      -7.805  14.080  23.906  0.00  0.00    +0.000 A 
ATOM     12  C   UNL     1      -7.225  15.275  23.484  0.00  0.00    +0.000 A 
ATOM     13  C   UNL     1      -5.889  15.298  23.053  0.00  0.00    +0.000 A 
ATOM     14  C   UNL     1      -5.104  14.131  23.168  0.00  0.00    +0.000 A 
ATOM     15  C   UNL     1      -2.071  12.062  23.501  0.00  0.00    +0.000 C 
ATOM     16  H   UNL     1      -4.702  11.248  24.518  0.00  0.00    +0.000 HD
ENDROOT
BRANCH   1  17
ATOM     17  O   UNL     1      -0.149  10.572  20.613  0.00  0.00    +0.000 OA
BRANCH  17  21
ATOM     18  C   UNL     1       2.382   7.361  19.027  0.00  0.00    +0.000 A 
ATOM     19  C   UNL     1       1.923   7.353  20.366  0.00  0.00    +0.000 A 
ATOM     20  C   UNL     1       1.103   8.389  20.927  0.00  0.00    +0.000 A 
ATOM     21  C   UNL     1       0.715   9.480  20.151  0.00  0.00    +0.000 A 
ATOM     22  C   UNL     1       1.177   9.531  18.827  0.00  0.00    +0.000 A 
ATOM     23  C   UNL     1       1.992   8.490  18.279  0.00  0.00    +0.000 A 
BRANCH  18  25
ATOM     24  C   UNL     1       2.401   5.058  17.769  0.00  0.00    +0.000 C 
ATOM     25  C   UNL     1       3.237   6.205  18.404  0.00  0.00    +0.000 C 
ATOM     26  C   UNL     1       4.164   5.528  19.445  0.00  0.00    +0.000 C 
ATOM     27  C   UNL     1       4.159   6.730  17.271  0.00  0.00    +0.000 C 
ENDBRANCH  18  25
ENDBRANCH  17  21
ENDBRANCH   1  17
TORSDOF 3
ENDMDL
MODEL 3
REMARK VINA RESULT:      -8.1      5.289     12.196
REMARK  Name = 
REMARK  6 active torsions:
REMARK  status: ('A' for Active; 'I' for Inactive)
REMARK    1  A    between atoms: C_1  and  C_2
REMARK    2  A    between atoms: C_2  and  C_3
REMARK    3  A    between atoms: C_2  and  C_4
REMARK    4  A    between atoms: C_2  and  C_5
REMARK    5  A    between atoms: C_8  and  O_9
REMARK    6  A    between atoms: O_9  and  C_10
REMARK                            x       y       z     vdW  Elec       q    Type
REMARK                         _______ _______ _______ _____ _____    ______ ____
ROOT
ATOM      1  C   UNL     1       4.846   5.065  19.244  0.00  0.00    +0.000 C 
ATOM      2  O   UNL     1       5.748   5.055  20.089  0.00  0.00    +0.000 OA
ATOM      3  N   UNL     1       5.111   4.734  17.892  0.00  0.00    +0.000 N 
ATOM      4  C   UNL     1       4.111   4.719  16.798  0.00  0.00    +0.000 C 
ATOM      5  C   UNL     1       4.408   3.718  15.600  0.00  0.00    +0.000 C 
ATOM      6  C   UNL     1       5.821   3.898  15.157  0.00  0.00    +0.000 A 
ATOM      7  C   UNL     1       6.678   4.537  16.026  0.00  0.00    +0.000 A 
ATOM      8  N   UNL     1       7.390   5.393  15.221  0.00  0.00    +0.000 N 
ATOM      9  C   UNL     1       7.240   5.016  13.893  0.00  0.00    +0.000 A 
ATOM     10  C   UNL     1       7.676   5.608  12.697  0.00  0.00    +0.000 A 
ATOM     11  C   UNL     1       7.538   4.870  11.515  0.00  0.00    +0.000 A 
ATOM     12  C   UNL     1       6.995   3.587  11.534  0.00  0.00    +0.000 A 
ATOM     13  C   UNL     1       6.404   3.087  12.706  0.00  0.00    +0.000 A 
ATOM     14  C   UNL     1       6.475   3.844  13.895  0.00  0.00    +0.000 A 
ATOM     15  C   UNL     1       6.529   4.540  17.514  0.00  0.00    +0.000 C 
ATOM     16  H   UNL     1       7.895   6.214  15.527  0.00  0.00    +0.000 HD
ENDROOT
BRANCH   1  17
ATOM     17  O   UNL     1       3.499   5.421  19.587  0.00  0.00    +0.000 OA
BRANCH  17  21
ATOM     18  C   UNL     1       1.268   9.185  19.296  0.00  0.00    +0.000 A 
ATOM     19  C   UNL     1       2.056   8.703  18.223  0.00  0.00    +0.000 A 
ATOM     20  C   UNL     1       2.809   7.483  18.281  0.00  0.00    +0.000 A 
ATOM     21  C   UNL     1       2.796   6.700  19.435  0.00  0.00    +0.000 A 
ATOM     22  C   UNL     1       2.047   7.165  20.526  0.00  0.00    +0.000 A 
ATOM     23  C   UNL     1       1.297   8.382  20.453  0.00  0.00    +0.000 A 
BRANCH  18  25
ATOM     24  C   UNL     1       1.185  11.742  18.709  0.00  0.00    +0.000 C 
ATOM     25  C   UNL     1       0.408  10.492  19.212  0.00  0.00    +0.000 C 
ATOM     26  C   UNL     1      -0.196  10.892  20.582  0.00  0.00    +0.000 C 
ATOM     27  C   UNL     1      -0.789  10.321  18.238  0.00  0.00    +0.000 C 
ENDBRANCH  18  25
ENDBRANCH  17  21
ENDBRANCH   1  17
TORSDOF 3
ENDMDL
MODEL 4
REMARK VINA RESULT:      -8.0      2.611     10.781
REMARK  Name = 
REMARK  6 active torsions:
REMARK  status: ('A' for Active; 'I' for Inactive)
REMARK    1  A    between atoms: C_1  and  C_2
REMARK    2  A    between atoms: C_2  and  C_3
REMARK    3  A    between atoms: C_2  and  C_4
REMARK    4  A    between atoms: C_2  and  C_5
REMARK    5  A    between atoms: C_8  and  O_9
REMARK    6  A    between atoms: O_9  and  C_10
REMARK                            x       y       z     vdW  Elec       q    Type
REMARK                         _______ _______ _______ _____ _____    ______ ____
ROOT
ATOM      1  C   UNL     1       1.292   8.120  20.643  0.00  0.00    +0.000 C 
ATOM      2  O   UNL     1       0.794   7.423  21.533  0.00  0.00    +0.000 OA
ATOM      3  N   UNL     1       2.148   7.554  19.667  0.00  0.00    +0.000 N 
ATOM      4  C   UNL     1       2.803   8.295  18.563  0.00  0.00    +0.000 C 
ATOM      5  C   UNL     1       3.123   7.452  17.254  0.00  0.00    +0.000 C 
ATOM      6  C   UNL     1       3.802   6.183  17.650  0.00  0.00    +0.000 A 
ATOM      7  C   UNL     1       3.689   5.791  18.965  0.00  0.00    +0.000 A 
ATOM      8  N   UNL     1       4.957   5.377  19.298  0.00  0.00    +0.000 N 
ATOM      9  C   UNL     1       5.698   5.171  18.142  0.00  0.00    +0.000 A 
ATOM     10  C   UNL     1       7.048   4.844  17.942  0.00  0.00    +0.000 A 
ATOM     11  C   UNL     1       7.452   4.502  16.646  0.00  0.00    +0.000 A 
ATOM     12  C   UNL     1       6.536   4.478  15.595  0.00  0.00    +0.000 A 
ATOM     13  C   UNL     1       5.237   4.978  15.780  0.00  0.00    +0.000 A 
ATOM     14  C   UNL     1       4.829   5.390  17.067  0.00  0.00    +0.000 A 
ATOM     15  C   UNL     1       2.541   6.140  19.858  0.00  0.00    +0.000 C 
ATOM     16  H   UNL     1       5.327   5.296  20.235  0.00  0.00    +0.000 HD
ENDROOT
BRANCH   1  17
ATOM     17  O   UNL     1       1.039   9.531  20.564  0.00  0.00    +0.000 OA
BRANCH  17  21
ATOM     18  C   UNL     1      -2.117  12.063  22.256  0.00  0.00    +0.000 A 
ATOM     19  C   UNL     1      -1.382  11.155  23.057  0.00  0.00    +0.000 A 
ATOM     20  C   UNL     1      -0.351  10.302  22.541  0.00  0.00    +0.000 A 
ATOM     21  C   UNL     1      -0.021  10.332  21.186  0.00  0.00    +0.000 A 
ATOM     22  C   UNL     1      -0.749  11.202  20.361  0.00  0.00    +0.000 A 
ATOM     23  C   UNL     1      -1.775  12.050  20.889  0.00  0.00    +0.000 A 
BRANCH  18  25
ATOM     24  C   UNL     1      -3.850  12.552  24.165  0.00  0.00    +0.000 C 
ATOM     25  C   UNL     1      -3.209  13.028  22.831  0.00  0.00    +0.000 C 
ATOM     26  C   UNL     1      -4.387  13.242  21.847  0.00  0.00    +0.000 C 
ATOM     27  C   UNL     1      -2.622  14.435  23.125  0.00  0.00    +0.000 C 
ENDBRANCH  18  25
ENDBRANCH  17  21
ENDBRANCH   1  17
TORSDOF 3
ENDMDL
MODEL 5
REMARK VINA RESULT:      -8.0      2.130      3.295
REMARK  Name = 
REMARK  6 active torsions:
REMARK  status: ('A' for Active; 'I' for Inactive)
REMARK    1  A    between atoms: C_1  and  C_2
REMARK    2  A    between atoms: C_2  and  C_3
REMARK    3  A    between atoms: C_2  and  C_4
REMARK    4  A    between atoms: C_2  and  C_5
REMARK    5  A    between atoms: C_8  and  O_9
REMARK    6  A    between atoms: O_9  and  C_10
REMARK                            x       y       z     vdW  Elec       q    Type
REMARK                         _______ _______ _______ _____ _____    ______ ____
ROOT
ATOM      1  C   UNL     1       0.867   9.564  20.137  0.00  0.00    +0.000 C 
ATOM      2  O   UNL     1       0.897   9.846  18.934  0.00  0.00    +0.000 OA
ATOM      3  N   UNL     1       0.126  10.352  21.051  0.00  0.00    +0.000 N 
ATOM      4  C   UNL     1       0.025  10.110  22.511  0.00  0.00    +0.000 C 
ATOM      5  C   UNL     1      -1.309  10.621  23.208  0.00  0.00    +0.000 C 
ATOM      6  C   UNL     1      -1.569  12.028  22.784  0.00  0.00    +0.000 A 
ATOM      7  C   UNL     1      -0.915  12.478  21.659  0.00  0.00    +0.000 A 
ATOM      8  N   UNL     1      -0.490  13.740  22.004  0.00  0.00    +0.000 N 
ATOM      9  C   UNL     1      -1.179  14.170  23.130  0.00  0.00    +0.000 A 
ATOM     10  C   UNL     1      -1.051  15.322  23.921  0.00  0.00    +0.000 A 
ATOM     11  C   UNL     1      -2.039  15.568  24.882  0.00  0.00    +0.000 A 
ATOM     12  C   UNL     1      -3.118  14.699  25.035  0.00  0.00    +0.000 A 
ATOM     13  C   UNL     1      -3.133  13.467  24.361  0.00  0.00    +0.000 A 
ATOM     14  C   UNL     1      -2.110  13.171  23.435  0.00  0.00    +0.000 A 
ATOM     15  C   UNL     1      -0.468  11.604  20.531  0.00  0.00    +0.000 C 
ATOM     16  H   UNL     1       0.253  14.258  21.557  0.00  0.00    +0.000 HD
ENDROOT
BRANCH   1  17
ATOM     17  O   UNL     1       1.587   8.439  20.663  0.00  0.00    +0.000 OA
BRANCH  17  21
ATOM     18  C   UNL     1       2.865   4.649  18.866  0.00  0.00    +0.000 A 
ATOM     19  C   UNL     1       3.132   5.893  18.245  0.00  0.00    +0.000 A 
ATOM     20  C   UNL     1       2.722   7.154  18.794  0.00  0.00    +0.000 A 
ATOM     21  C   UNL     1       2.020   7.205  19.998  0.00  0.00    +0.000 A 
ATOM     22  C   UNL     1       1.716   5.987  20.623  0.00  0.00    +0.000 A 
ATOM     23  C   UNL     1       2.133   4.736  20.067  0.00  0.00    +0.000 A 
BRANCH  18  25
ATOM     24  C   UNL     1       4.300   3.398  17.058  0.00  0.00    +0.000 C 
ATOM     25  C   UNL     1       3.357   3.278  18.289  0.00  0.00    +0.000 C 
ATOM     26  C   UNL     1       2.183   2.372  17.836  0.00  0.00    +0.000 C 
ATOM     27  C   UNL     1       4.150   2.469  19.350  0.00  0.00    +0.000 C 
ENDBRANCH  18  25
ENDBRANCH  17  21
ENDBRANCH   1  17
TORSDOF 3
ENDMDL
MODEL 6
REMARK VINA RESULT:      -8.0      3.371      9.413
REMARK  Name = 
REMARK  6 active torsions:
REMARK  status: ('A' for Active; 'I' for Inactive)
REMARK    1  A    between atoms: C_1  and  C_2
REMARK    2  A    between atoms: C_2  and  C_3
REMARK    3  A    between atoms: C_2  and  C_4
REMARK    4  A    between atoms: C_2  and  C_5
REMARK    5  A    between atoms: C_8  and  O_9
REMARK    6  A    between atoms: O_9  and  C_10
REMARK                            x       y       z     vdW  Elec       q    Type
REMARK                         _______ _______ _______ _____ _____    ______ ____
ROOT
ATOM      1  C   UNL     1       1.641  10.209  18.394  0.00  0.00    +0.000 C 
ATOM      2  O   UNL     1       2.343  10.518  17.426  0.00  0.00    +0.000 OA
ATOM      3  N   UNL     1       1.730   8.922  18.979  0.00  0.00    +0.000 N 
ATOM      4  C   UNL     1       0.934   8.444  20.135  0.00  0.00    +0.000 C 
ATOM      5  C   UNL     1       1.615   7.322  21.031  0.00  0.00    +0.000 C 
ATOM      6  C   UNL     1       2.140   6.245  20.141  0.00  0.00    +0.000 A 
ATOM      7  C   UNL     1       2.303   6.552  18.808  0.00  0.00    +0.000 A 
ATOM      8  N   UNL     1       1.815   5.447  18.151  0.00  0.00    +0.000 N 
ATOM      9  C   UNL     1       1.720   4.383  19.038  0.00  0.00    +0.000 A 
ATOM     10  C   UNL     1       1.201   3.088  18.891  0.00  0.00    +0.000 A 
ATOM     11  C   UNL     1       1.436   2.170  19.922  0.00  0.00    +0.000 A 
ATOM     12  C   UNL     1       2.172   2.534  21.048  0.00  0.00    +0.000 A 
ATOM     13  C   UNL     1       2.528   3.876  21.256  0.00  0.00    +0.000 A 
ATOM     14  C   UNL     1       2.242   4.831  20.256  0.00  0.00    +0.000 A 
ATOM     15  C   UNL     1       2.573   7.925  18.281  0.00  0.00    +0.000 C 
ATOM     16  H   UNL     1       1.507   5.418  17.189  0.00  0.00    +0.000 HD
ENDROOT
BRANCH   1  17
ATOM     17  O   UNL     1       0.698  11.131  18.963  0.00  0.00    +0.000 OA
BRANCH  17  21
ATOM     18  C   UNL     1      -3.643  11.573  18.522  0.00  0.00    +0.000 A 
ATOM     19  C   UNL     1      -2.909  10.636  17.755  0.00  0.00    +0.000 A 
ATOM     20  C   UNL     1      -1.488  10.468  17.860  0.00  0.00    +0.000 A 
ATOM     21  C   UNL     1      -0.749  11.247  18.751  0.00  0.00    +0.000 A 
ATOM     22  C   UNL     1      -1.443  12.203  19.506  0.00  0.00    +0.000 A 
ATOM     23  C   UNL     1      -2.862  12.359  19.393  0.00  0.00    +0.000 A 
BRANCH  18  25
ATOM     24  C   UNL     1      -5.981  10.384  18.587  0.00  0.00    +0.000 C 
ATOM     25  C   UNL     1      -5.200  11.720  18.440  0.00  0.00    +0.000 C 
ATOM     26  C   UNL     1      -5.665  12.338  17.097  0.00  0.00    +0.000 C 
ATOM     27  C   UNL     1      -5.741  12.649  19.560  0.00  0.00    +0.000 C 
ENDBRANCH  18  25
ENDBRANCH  17  21
ENDBRANCH   1  17
TORSDOF 3
ENDMDL
MODEL 7
REMARK VINA RESULT:      -8.0      0.658      1.432
REMARK  Name = 
REMARK  6 active torsions:
REMARK  status: ('A' for Active; 'I' for Inactive)
REMARK    1  A    between atoms: C_1  and  C_2
REMARK    2  A    between atoms: C_2  and  C_3
REMARK    3  A    between atoms: C_2  and  C_4
REMARK    4  A    between atoms: C_2  and  C_5
REMARK    5  A    between atoms: C_8  and  O_9
REMARK    6  A    between atoms: O_9  and  C_10
REMARK                            x       y       z     vdW  Elec       q    Type
REMARK                         _______ _______ _______ _____ _____    ______ ____
ROOT
ATOM      1  C   UNL     1       0.327  10.300  21.354  0.00  0.00    +0.000 C 
ATOM      2  O   UNL     1       1.062   9.973  22.293  0.00  0.00    +0.000 OA
ATOM      3  N   UNL     1      -0.729  11.225  21.544  0.00  0.00    +0.000 N 
ATOM      4  C   UNL     1      -1.671  11.683  20.495  0.00  0.00    +0.000 C 
ATOM      5  C   UNL     1      -2.284  13.135  20.697  0.00  0.00    +0.000 C 
ATOM      6  C   UNL     1      -2.792  13.255  22.095  0.00  0.00    +0.000 A 
ATOM      7  C   UNL     1      -2.333  12.339  23.015  0.00  0.00    +0.000 A 
ATOM      8  N   UNL     1      -3.457  11.985  23.722  0.00  0.00    +0.000 N 
ATOM      9  C   UNL     1      -4.461  12.918  23.496  0.00  0.00    +0.000 A 
ATOM     10  C   UNL     1      -5.804  12.962  23.900  0.00  0.00    +0.000 A 
ATOM     11  C   UNL     1      -6.514  14.149  23.679  0.00  0.00    +0.000 A 
ATOM     12  C   UNL     1      -5.897  15.250  23.088  0.00  0.00    +0.000 A 
ATOM     13  C   UNL     1      -4.613  15.127  22.533  0.00  0.00    +0.000 A 
ATOM     14  C   UNL     1      -3.905  13.915  22.688  0.00  0.00    +0.000 A 
ATOM     15  C   UNL     1      -1.008  11.649  22.935  0.00  0.00    +0.000 C 
ATOM     16  H   UNL     1      -3.572  11.145  24.271  0.00  0.00    +0.000 HD
ENDROOT
BRANCH   1  17
ATOM     17  O   UNL     1       0.500   9.753  20.039  0.00  0.00    +0.000 OA
BRANCH  17  21
ATOM     18  C   UNL     1       3.215   6.708  18.428  0.00  0.00    +0.000 A 
ATOM     19  C   UNL     1       2.600   6.561  19.695  0.00  0.00    +0.000 A 
ATOM     20  C   UNL     1       1.715   7.538  20.262  0.00  0.00    +0.000 A 
ATOM     21  C   UNL     1       1.417   8.710  19.567  0.00  0.00    +0.000 A 
ATOM     22  C   UNL     1       2.033   8.898  18.322  0.00  0.00    +0.000 A 
ATOM     23  C   UNL     1       2.912   7.914  17.765  0.00  0.00    +0.000 A 
BRANCH  18  25
ATOM     24  C   UNL     1       5.273   5.108  18.727  0.00  0.00    +0.000 C 
ATOM     25  C   UNL     1       4.142   5.618  17.791  0.00  0.00    +0.000 C 
ATOM     26  C   UNL     1       4.849   6.122  16.507  0.00  0.00    +0.000 C 
ATOM     27  C   UNL     1       3.334   4.358  17.381  0.00  0.00    +0.000 C 
ENDBRANCH  18  25
ENDBRANCH  17  21
ENDBRANCH   1  17
TORSDOF 3
ENDMDL
MODEL 8
REMARK VINA RESULT:      -8.0      2.440     10.627
REMARK  Name = 
REMARK  6 active torsions:
REMARK  status: ('A' for Active; 'I' for Inactive)
REMARK    1  A    between atoms: C_1  and  C_2
REMARK    2  A    between atoms: C_2  and  C_3
REMARK    3  A    between atoms: C_2  and  C_4
REMARK    4  A    between atoms: C_2  and  C_5
REMARK    5  A    between atoms: C_8  and  O_9
REMARK    6  A    between atoms: O_9  and  C_10
REMARK                            x       y       z     vdW  Elec       q    Type
REMARK                         _______ _______ _______ _____ _____    ______ ____
ROOT
ATOM      1  C   UNL     1       1.066   8.459  20.654  0.00  0.00    +0.000 C 
ATOM      2  O   UNL     1       0.518   7.796  21.541  0.00  0.00    +0.000 OA
ATOM      3  N   UNL     1       1.928   7.844  19.713  0.00  0.00    +0.000 N 
ATOM      4  C   UNL     1       2.641   8.540  18.615  0.00  0.00    +0.000 C 
ATOM      5  C   UNL     1       2.967   7.661  17.332  0.00  0.00    +0.000 C 
ATOM      6  C   UNL     1       3.589   6.377  17.770  0.00  0.00    +0.000 A 
ATOM      7  C   UNL     1       3.425   6.015  19.089  0.00  0.00    +0.000 A 
ATOM      8  N   UNL     1       4.667   5.563  19.466  0.00  0.00    +0.000 N 
ATOM      9  C   UNL     1       5.432   5.308  18.335  0.00  0.00    +0.000 A 
ATOM     10  C   UNL     1       6.775   4.930  18.181  0.00  0.00    +0.000 A 
ATOM     11  C   UNL     1       7.203   4.549  16.904  0.00  0.00    +0.000 A 
ATOM     12  C   UNL     1       6.317   4.537  15.828  0.00  0.00    +0.000 A 
ATOM     13  C   UNL     1       5.032   5.086  15.965  0.00  0.00    +0.000 A 
ATOM     14  C   UNL     1       4.603   5.537  17.232  0.00  0.00    +0.000 A 
ATOM     15  C   UNL     1       2.265   6.421  19.941  0.00  0.00    +0.000 C 
ATOM     16  H   UNL     1       5.007   5.487  20.415  0.00  0.00    +0.000 HD
ENDROOT
BRANCH   1  17
ATOM     17  O   UNL     1       0.865   9.876  20.541  0.00  0.00    +0.000 OA
BRANCH  17  21
ATOM     18  C   UNL     1      -2.376  12.265  22.278  0.00  0.00    +0.000 A 
ATOM     19  C   UNL     1      -2.110  12.272  20.887  0.00  0.00    +0.000 A 
ATOM     20  C   UNL     1      -1.053  11.514  20.281  0.00  0.00    +0.000 A 
ATOM     21  C   UNL     1      -0.218  10.716  21.063  0.00  0.00    +0.000 A 
ATOM     22  C   UNL     1      -0.438  10.710  22.448  0.00  0.00    +0.000 A 
ATOM     23  C   UNL     1      -1.498  11.468  23.040  0.00  0.00    +0.000 A 
BRANCH  18  25
ATOM     24  C   UNL     1      -3.260  14.557  23.202  0.00  0.00    +0.000 C 
ATOM     25  C   UNL     1      -3.561  13.056  22.930  0.00  0.00    +0.000 C 
ATOM     26  C   UNL     1      -3.992  12.456  24.293  0.00  0.00    +0.000 C 
ATOM     27  C   UNL     1      -4.821  13.036  22.025  0.00  0.00    +0.000 C 
ENDBRANCH  18  25
ENDBRANCH  17  21
ENDBRANCH   1  17
TORSDOF 3
ENDMDL
MODEL 9
REMARK VINA RESULT:      -7.9      2.179      3.512
REMARK  Name = 
REMARK  6 active torsions:
REMARK  status: ('A' for Active; 'I' for Inactive)
REMARK    1  A    between atoms: C_1  and  C_2
REMARK    2  A    between atoms: C_2  and  C_3
REMARK    3  A    between atoms: C_2  and  C_4
REMARK    4  A    between atoms: C_2  and  C_5
REMARK    5  A    between atoms: C_8  and  O_9
REMARK    6  A    between atoms: O_9  and  C_10
REMARK                            x       y       z     vdW  Elec       q    Type
REMARK                         _______ _______ _______ _____ _____    ______ ____
ROOT
ATOM      1  C   UNL     1       0.791   9.654  18.941  0.00  0.00    +0.000 C 
ATOM      2  O   UNL     1       0.421   9.751  17.766  0.00  0.00    +0.000 OA
ATOM      3  N   UNL     1       0.109  10.337  19.979  0.00  0.00    +0.000 N 
ATOM      4  C   UNL     1       0.468  10.297  21.416  0.00  0.00    +0.000 C 
ATOM      5  C   UNL     1      -0.728  10.523  22.438  0.00  0.00    +0.000 C 
ATOM      6  C   UNL     1      -1.504  11.727  22.016  0.00  0.00    +0.000 A 
ATOM      7  C   UNL     1      -1.333  12.165  20.722  0.00  0.00    +0.000 A 
ATOM      8  N   UNL     1      -1.237  13.532  20.844  0.00  0.00    +0.000 N 
ATOM      9  C   UNL     1      -1.707  13.921  22.092  0.00  0.00    +0.000 A 
ATOM     10  C   UNL     1      -1.734  15.169  22.733  0.00  0.00    +0.000 A 
ATOM     11  C   UNL     1      -2.465  15.276  23.922  0.00  0.00    +0.000 A 
ATOM     12  C   UNL     1      -3.151  14.179  24.440  0.00  0.00    +0.000 A 
ATOM     13  C   UNL     1      -2.966  12.903  23.883  0.00  0.00    +0.000 A 
ATOM     14  C   UNL     1      -2.178  12.763  22.720  0.00  0.00    +0.000 A 
ATOM     15  C   UNL     1      -0.950  11.288  19.573  0.00  0.00    +0.000 C 
ATOM     16  H   UNL     1      -0.828  14.160  20.167  0.00  0.00    +0.000 HD
ENDROOT
BRANCH   1  17
ATOM     17  O   UNL     1       1.928   8.859  19.308  0.00  0.00    +0.000 OA
BRANCH  17  21
ATOM     18  C   UNL     1       2.313   4.526  19.864  0.00  0.00    +0.000 A 
ATOM     19  C   UNL     1       2.714   5.160  18.663  0.00  0.00    +0.000 A 
ATOM     20  C   UNL     1       2.595   6.572  18.437  0.00  0.00    +0.000 A 
ATOM     21  C   UNL     1       2.060   7.403  19.422  0.00  0.00    +0.000 A 
ATOM     22  C   UNL     1       1.628   6.801  20.612  0.00  0.00    +0.000 A 
ATOM     23  C   UNL     1       1.755   5.391  20.826  0.00  0.00    +0.000 A 
BRANCH  18  25
ATOM     24  C   UNL     1       2.035   2.524  21.538  0.00  0.00    +0.000 C 
ATOM     25  C   UNL     1       2.489   2.992  20.126  0.00  0.00    +0.000 C 
ATOM     26  C   UNL     1       3.962   2.532  19.980  0.00  0.00    +0.000 C 
ATOM     27  C   UNL     1       1.664   2.147  19.118  0.00  0.00    +0.000 C 
ENDBRANCH  18  25
ENDBRANCH  17  21
ENDBRANCH   1  17
TORSDOF 3
ENDMDL
