MODEL 1
REMARK VINA RESULT:      -7.6      0.000      0.000
REMARK  Name = 
REMARK  5 active torsions:
REMARK  status: ('A' for Active; 'I' for Inactive)
REMARK    1  A    between atoms: C_1  and  O_2
REMARK    2  A    between atoms: O_2  and  C_3
REMARK    3  A    between atoms: N_9  and  C_10
REMARK    4  A    between atoms: N_14  and  C_15
REMARK    5  A    between atoms: C_15  and  C_16
REMARK                            x       y       z     vdW  Elec       q    Type
REMARK                         _______ _______ _______ _____ _____    ______ ____
ROOT
ATOM      1  C   UNL     1       2.496   6.919  20.165  0.00  0.00    +0.000 C 
ATOM      2  C   UNL     1       1.815   5.558  20.515  0.00  0.00    +0.000 C 
ATOM      3  C   UNL     1       1.793   4.678  19.331  0.00  0.00    +0.000 A 
ATOM      4  C   UNL     1       2.660   4.821  18.271  0.00  0.00    +0.000 A 
ATOM      5  C   UNL     1       2.356   3.746  17.416  0.00  0.00    +0.000 A 
ATOM      6  N   UNL     1       1.424   2.932  17.958  0.00  0.00    +0.000 NA
ATOM      7  N   UNL     1       1.174   3.478  19.167  0.00  0.00    +0.000 N 
ATOM      8  C   UNL     1       0.553   2.680  20.199  0.00  0.00    +0.000 C 
ATOM      9  C   UNL     1       3.816   5.778  18.369  0.00  0.00    +0.000 C 
ATOM     10  C   UNL     1       4.896   5.043  19.191  0.00  0.00    +0.000 C 
ATOM     11  C   UNL     1       6.342   5.456  19.014  0.00  0.00    +0.000 C 
ATOM     12  N   UNL     1       6.773   6.023  17.748  0.00  0.00    +0.000 NA
ATOM     13  C   UNL     1       5.761   6.806  17.045  0.00  0.00    +0.000 C 
ATOM     14  C   UNL     1       4.354   6.204  16.991  0.00  0.00    +0.000 C 
ATOM     15  O   UNL     1       3.444   6.983  19.077  0.00  0.00    +0.000 OA
ENDROOT
BRANCH   1  17
ATOM     16  C   UNL     1       1.092   8.575  21.125  0.00  0.00    +0.000 C 
ATOM     17  O   UNL     1       1.438   7.867  19.942  0.00  0.00    +0.000 OA
ENDBRANCH   1  17
BRANCH  12  18
ATOM     18  C   UNL     1       7.609   5.159  16.908  0.00  0.00    +0.000 C 
BRANCH  18  19
ATOM     19  C   UNL     1       6.979   4.700  15.590  0.00  0.00    +0.000 A 
ATOM     20  C   UNL     1       7.507   5.165  14.373  0.00  0.00    +0.000 A 
ATOM     21  C   UNL     1       7.024   4.692  13.149  0.00  0.00    +0.000 A 
ATOM     22  C   UNL     1       5.991   3.757  13.135  0.00  0.00    +0.000 A 
ATOM     23  F   UNL     1       5.553   3.280  11.965  0.00  0.00    +0.000 F 
ATOM     24  C   UNL     1       5.430   3.304  14.323  0.00  0.00    +0.000 A 
ATOM     25  C   UNL     1       5.922   3.768  15.546  0.00  0.00    +0.000 A 
ENDBRANCH  18  19
ENDBRANCH  12  18
TORSDOF 3
ENDMDL
MODEL 2
REMARK VINA RESULT:      -7.3      4.303      6.509
REMARK  Name = 
REMARK  5 active torsions:
REMARK  status: ('A' for Active; 'I' for Inactive)
REMARK    1  A    between atoms: C_1  and  O_2
REMARK    2  A    between atoms: O_2  and  C_3
REMARK    3  A    between atoms: N_9  and  C_10
REMARK    4  A    between atoms: N_14  and  C_15
REMARK    5  A    between atoms: C_15  and  C_16
REMARK                            x       y       z     vdW  Elec       q    Type
REMARK                         _______ _______ _______ _____ _____    ______ ____
ROOT
ATOM      1  C   UNL     1       0.613  12.581  19.464  0.00  0.00    +0.000 C 
ATOM      2  C   UNL     1      -0.935  12.692  19.636  0.00  0.00    +0.000 C 
ATOM      3  C   UNL     1      -1.614  11.654  18.837  0.00  0.00    +0.000 A 
ATOM      4  C   UNL     1      -0.996  10.494  18.429  0.00  0.00    +0.000 A 
ATOM      5  C   UNL     1      -2.006   9.762  17.779  0.00  0.00    +0.000 A 
ATOM      6  N   UNL     1      -3.200  10.388  17.860  0.00  0.00    +0.000 NA
ATOM      7  N   UNL     1      -2.942  11.491  18.595  0.00  0.00    +0.000 N 
ATOM      8  C   UNL     1      -4.029  12.190  19.244  0.00  0.00    +0.000 C 
ATOM      9  C   UNL     1       0.366  10.140  18.961  0.00  0.00    +0.000 C 
ATOM     10  C   UNL     1       0.124   9.553  20.368  0.00  0.00    +0.000 C 
ATOM     11  C   UNL     1       1.160   8.610  20.943  0.00  0.00    +0.000 C 
ATOM     12  N   UNL     1       1.977   7.812  20.046  0.00  0.00    +0.000 NA
ATOM     13  C   UNL     1       2.281   8.442  18.764  0.00  0.00    +0.000 C 
ATOM     14  C   UNL     1       1.117   9.145  18.059  0.00  0.00    +0.000 C 
ATOM     15  O   UNL     1       1.201  11.314  19.093  0.00  0.00    +0.000 OA
ENDROOT
BRANCH   1  17
ATOM     16  C   UNL     1       0.611  14.893  18.925  0.00  0.00    +0.000 C 
ATOM     17  O   UNL     1       0.998  13.589  18.512  0.00  0.00    +0.000 OA
ENDBRANCH   1  17
BRANCH  12  18
ATOM     18  C   UNL     1       1.667   6.380  19.996  0.00  0.00    +0.000 C 
BRANCH  18  19
ATOM     19  C   UNL     1       2.630   5.517  19.176  0.00  0.00    +0.000 A 
ATOM     20  C   UNL     1       2.142   4.785  18.081  0.00  0.00    +0.000 A 
ATOM     21  C   UNL     1       3.005   4.066  17.250  0.00  0.00    +0.000 A 
ATOM     22  C   UNL     1       4.372   4.061  17.522  0.00  0.00    +0.000 A 
ATOM     23  F   UNL     1       5.203   3.400  16.707  0.00  0.00    +0.000 F 
ATOM     24  C   UNL     1       4.879   4.751  18.617  0.00  0.00    +0.000 A 
ATOM     25  C   UNL     1       4.015   5.480  19.439  0.00  0.00    +0.000 A 
ENDBRANCH  18  19
ENDBRANCH  12  18
TORSDOF 3
ENDMDL
MODEL 3
REMARK VINA RESULT:      -7.2      4.347      6.493
REMARK  Name = 
REMARK  5 active torsions:
REMARK  status: ('A' for Active; 'I' for Inactive)
REMARK    1  A    between atoms: C_1  and  O_2
REMARK    2  A    between atoms: O_2  and  C_3
REMARK    3  A    between atoms: N_9  and  C_10
REMARK    4  A    between atoms: N_14  and  C_15
REMARK    5  A    between atoms: C_15  and  C_16
REMARK                            x       y       z     vdW  Elec       q    Type
REMARK                         _______ _______ _______ _____ _____    ______ ____
ROOT
ATOM      1  C   UNL     1       0.650  12.643  19.307  0.00  0.00    +0.000 C 
ATOM      2  C   UNL     1      -0.886  12.766  19.559  0.00  0.00    +0.000 C 
ATOM      3  C   UNL     1      -1.613  11.722  18.811  0.00  0.00    +0.000 A 
ATOM      4  C   UNL     1      -1.023  10.552  18.387  0.00  0.00    +0.000 A 
ATOM      5  C   UNL     1      -2.070   9.818  17.802  0.00  0.00    +0.000 A 
ATOM      6  N   UNL     1      -3.255  10.453  17.938  0.00  0.00    +0.000 NA
ATOM      7  N   UNL     1      -2.953  11.564  18.643  0.00  0.00    +0.000 N 
ATOM      8  C   UNL     1      -3.999  12.278  19.339  0.00  0.00    +0.000 C 
ATOM      9  C   UNL     1       0.364  10.198  18.851  0.00  0.00    +0.000 C 
ATOM     10  C   UNL     1       0.194   9.631  20.277  0.00  0.00    +0.000 C 
ATOM     11  C   UNL     1       1.253   8.690  20.809  0.00  0.00    +0.000 C 
ATOM     12  N   UNL     1       2.017   7.875  19.880  0.00  0.00    +0.000 NA
ATOM     13  C   UNL     1       2.256   8.485  18.576  0.00  0.00    +0.000 C 
ATOM     14  C   UNL     1       1.060   9.186  17.924  0.00  0.00    +0.000 C 
ATOM     15  O   UNL     1       1.210  11.368  18.923  0.00  0.00    +0.000 OA
ENDROOT
BRANCH   1  17
ATOM     16  C   UNL     1       1.566  14.797  18.907  0.00  0.00    +0.000 C 
ATOM     17  O   UNL     1       0.989  13.636  18.322  0.00  0.00    +0.000 OA
ENDBRANCH   1  17
BRANCH  12  18
ATOM     18  C   UNL     1       1.697   6.444  19.867  0.00  0.00    +0.000 C 
BRANCH  18  19
ATOM     19  C   UNL     1       2.575   5.573  18.964  0.00  0.00    +0.000 A 
ATOM     20  C   UNL     1       3.950   5.464  19.231  0.00  0.00    +0.000 A 
ATOM     21  C   UNL     1       4.764   4.602  18.492  0.00  0.00    +0.000 A 
ATOM     22  C   UNL     1       4.206   3.850  17.459  0.00  0.00    +0.000 A 
ATOM     23  F   UNL     1       4.979   3.000  16.773  0.00  0.00    +0.000 F 
ATOM     24  C   UNL     1       2.855   3.962  17.152  0.00  0.00    +0.000 A 
ATOM     25  C   UNL     1       2.040   4.815  17.901  0.00  0.00    +0.000 A 
ENDBRANCH  18  19
ENDBRANCH  12  18
TORSDOF 3
ENDMDL
MODEL 4
REMARK VINA RESULT:      -6.9      4.449      6.787
REMARK  Name = 
REMARK  5 active torsions:
REMARK  status: ('A' for Active; 'I' for Inactive)
REMARK    1  A    between atoms: C_1  and  O_2
REMARK    2  A    between atoms: O_2  and  C_3
REMARK    3  A    between atoms: N_9  and  C_10
REMARK    4  A    between atoms: N_14  and  C_15
REMARK    5  A    between atoms: C_15  and  C_16
REMARK                            x       y       z     vdW  Elec       q    Type
REMARK                         _______ _______ _______ _____ _____    ______ ____
ROOT
ATOM      1  C   UNL     1       1.622  12.288  19.370  0.00  0.00    +0.000 C 
ATOM      2  C   UNL     1       0.162  12.648  19.790  0.00  0.00    +0.000 C 
ATOM      3  C   UNL     1      -0.803  11.798  19.065  0.00  0.00    +0.000 A 
ATOM      4  C   UNL     1      -0.469  10.581  18.515  0.00  0.00    +0.000 A 
ATOM      5  C   UNL     1      -1.679  10.078  18.003  0.00  0.00    +0.000 A 
ATOM      6  N   UNL     1      -2.716  10.891  18.300  0.00  0.00    +0.000 NA
ATOM      7  N   UNL     1      -2.159  11.880  19.030  0.00  0.00    +0.000 N 
ATOM      8  C   UNL     1      -2.995  12.707  19.872  0.00  0.00    +0.000 C 
ATOM      9  C   UNL     1       0.872   9.965  18.809  0.00  0.00    +0.000 C 
ATOM     10  C   UNL     1       0.741   9.331  20.211  0.00  0.00    +0.000 C 
ATOM     11  C   UNL     1       1.666   8.189  20.574  0.00  0.00    +0.000 C 
ATOM     12  N   UNL     1       2.185   7.328  19.525  0.00  0.00    +0.000 NA
ATOM     13  C   UNL     1       2.403   7.984  18.240  0.00  0.00    +0.000 C 
ATOM     14  C   UNL     1       1.291   8.922  17.759  0.00  0.00    +0.000 C 
ATOM     15  O   UNL     1       1.913  10.969  18.857  0.00  0.00    +0.000 OA
ENDROOT
BRANCH   1  17
ATOM     16  C   UNL     1       1.845  14.604  18.895  0.00  0.00    +0.000 C 
ATOM     17  O   UNL     1       2.035  13.280  18.413  0.00  0.00    +0.000 OA
ENDBRANCH   1  17
BRANCH  12  18
ATOM     18  C   UNL     1       1.621   5.977  19.465  0.00  0.00    +0.000 C 
BRANCH  18  19
ATOM     19  C   UNL     1       2.606   4.831  19.714  0.00  0.00    +0.000 A 
ATOM     20  C   UNL     1       2.240   3.777  20.569  0.00  0.00    +0.000 A 
ATOM     21  C   UNL     1       3.070   2.666  20.743  0.00  0.00    +0.000 A 
ATOM     22  C   UNL     1       4.289   2.610  20.071  0.00  0.00    +0.000 A 
ATOM     23  F   UNL     1       5.069   1.532  20.211  0.00  0.00    +0.000 F 
ATOM     24  C   UNL     1       4.691   3.653  19.244  0.00  0.00    +0.000 A 
ATOM     25  C   UNL     1       3.853   4.757  19.061  0.00  0.00    +0.000 A 
ENDBRANCH  18  19
ENDBRANCH  12  18
TORSDOF 3
ENDMDL
MODEL 5
REMARK VINA RESULT:      -6.8      4.430      6.686
REMARK  Name = 
REMARK  5 active torsions:
REMARK  status: ('A' for Active; 'I' for Inactive)
REMARK    1  A    between atoms: C_1  and  O_2
REMARK    2  A    between atoms: O_2  and  C_3
REMARK    3  A    between atoms: N_9  and  C_10
REMARK    4  A    between atoms: N_14  and  C_15
REMARK    5  A    between atoms: C_15  and  C_16
REMARK                            x       y       z     vdW  Elec       q    Type
REMARK                         _______ _______ _______ _____ _____    ______ ____
ROOT
ATOM      1  C   UNL     1       1.490  12.236  20.125  0.00  0.00    +0.000 C 
ATOM      2  C   UNL     1      -0.024  12.459  20.435  0.00  0.00    +0.000 C 
ATOM      3  C   UNL     1      -0.857  11.793  19.416  0.00  0.00    +0.000 A 
ATOM      4  C   UNL     1      -0.406  10.750  18.638  0.00  0.00    +0.000 A 
ATOM      5  C   UNL     1      -1.524  10.366  17.876  0.00  0.00    +0.000 A 
ATOM      6  N   UNL     1      -2.625  11.065  18.226  0.00  0.00    +0.000 NA
ATOM      7  N   UNL     1      -2.204  11.858  19.234  0.00  0.00    +0.000 N 
ATOM      8  C   UNL     1      -3.169  12.442  20.138  0.00  0.00    +0.000 C 
ATOM      9  C   UNL     1       0.919  10.105  18.940  0.00  0.00    +0.000 C 
ATOM     10  C   UNL     1       0.656   9.149  20.124  0.00  0.00    +0.000 C 
ATOM     11  C   UNL     1       1.584   7.969  20.316  0.00  0.00    +0.000 C 
ATOM     12  N   UNL     1       2.261   7.396  19.166  0.00  0.00    +0.000 NA
ATOM     13  C   UNL     1       2.595   8.347  18.110  0.00  0.00    +0.000 C 
ATOM     14  C   UNL     1       1.504   9.354  17.732  0.00  0.00    +0.000 C 
ATOM     15  O   UNL     1       1.899  11.085  19.354  0.00  0.00    +0.000 OA
ENDROOT
BRANCH   1  17
ATOM     16  C   UNL     1       2.596  13.171  18.243  0.00  0.00    +0.000 C 
ATOM     17  O   UNL     1       1.965  13.436  19.490  0.00  0.00    +0.000 OA
ENDBRANCH   1  17
BRANCH  12  18
ATOM     18  C   UNL     1       1.770   6.090  18.716  0.00  0.00    +0.000 C 
BRANCH  18  19
ATOM     19  C   UNL     1       2.547   4.873  19.229  0.00  0.00    +0.000 A 
ATOM     20  C   UNL     1       3.862   4.653  18.785  0.00  0.00    +0.000 A 
ATOM     21  C   UNL     1       4.636   3.613  19.306  0.00  0.00    +0.000 A 
ATOM     22  C   UNL     1       4.088   2.767  20.269  0.00  0.00    +0.000 A 
ATOM     23  F   UNL     1       4.840   1.791  20.791  0.00  0.00    +0.000 F 
ATOM     24  C   UNL     1       2.779   2.942  20.703  0.00  0.00    +0.000 A 
ATOM     25  C   UNL     1       2.011   3.991  20.191  0.00  0.00    +0.000 A 
ENDBRANCH  18  19
ENDBRANCH  12  18
TORSDOF 3
ENDMDL
MODEL 6
REMARK VINA RESULT:      -6.8      4.621      7.113
REMARK  Name = 
REMARK  5 active torsions:
REMARK  status: ('A' for Active; 'I' for Inactive)
REMARK    1  A    between atoms: C_1  and  O_2
REMARK    2  A    between atoms: O_2  and  C_3
REMARK    3  A    between atoms: N_9  and  C_10
REMARK    4  A    between atoms: N_14  and  C_15
REMARK    5  A    between atoms: C_15  and  C_16
REMARK                            x       y       z     vdW  Elec       q    Type
REMARK                         _______ _______ _______ _____ _____    ______ ____
ROOT
ATOM      1  C   UNL     1       1.385  12.375  20.137  0.00  0.00    +0.000 C 
ATOM      2  C   UNL     1      -0.141  12.541  20.425  0.00  0.00    +0.000 C 
ATOM      3  C   UNL     1      -0.935  11.858  19.386  0.00  0.00    +0.000 A 
ATOM      4  C   UNL     1      -0.435  10.841  18.604  0.00  0.00    +0.000 A 
ATOM      5  C   UNL     1      -1.527  10.427  17.820  0.00  0.00    +0.000 A 
ATOM      6  N   UNL     1      -2.657  11.083  18.161  0.00  0.00    +0.000 NA
ATOM      7  N   UNL     1      -2.279  11.878  19.183  0.00  0.00    +0.000 N 
ATOM      8  C   UNL     1      -3.278  12.418  20.078  0.00  0.00    +0.000 C 
ATOM      9  C   UNL     1       0.907  10.239  18.921  0.00  0.00    +0.000 C 
ATOM     10  C   UNL     1       0.659   9.261  20.089  0.00  0.00    +0.000 C 
ATOM     11  C   UNL     1       1.625   8.112  20.284  0.00  0.00    +0.000 C 
ATOM     12  N   UNL     1       2.339   7.576  19.138  0.00  0.00    +0.000 NA
ATOM     13  C   UNL     1       2.656   8.550  18.098  0.00  0.00    +0.000 C 
ATOM     14  C   UNL     1       1.537   9.522  17.714  0.00  0.00    +0.000 C 
ATOM     15  O   UNL     1       1.846  11.248  19.360  0.00  0.00    +0.000 OA
ENDROOT
BRANCH   1  17
ATOM     16  C   UNL     1       2.351  13.385  18.218  0.00  0.00    +0.000 C 
ATOM     17  O   UNL     1       1.827  13.598  19.523  0.00  0.00    +0.000 OA
ENDBRANCH   1  17
BRANCH  12  18
ATOM     18  C   UNL     1       1.901   6.258  18.667  0.00  0.00    +0.000 C 
BRANCH  18  19
ATOM     19  C   UNL     1       2.204   5.082  19.599  0.00  0.00    +0.000 A 
ATOM     20  C   UNL     1       1.189   4.582  20.434  0.00  0.00    +0.000 A 
ATOM     21  C   UNL     1       1.397   3.448  21.224  0.00  0.00    +0.000 A 
ATOM     22  C   UNL     1       2.638   2.813  21.198  0.00  0.00    +0.000 A 
ATOM     23  F   UNL     1       2.826   1.709  21.930  0.00  0.00    +0.000 F 
ATOM     24  C   UNL     1       3.669   3.305  20.406  0.00  0.00    +0.000 A 
ATOM     25  C   UNL     1       3.455   4.431  19.607  0.00  0.00    +0.000 A 
ENDBRANCH  18  19
ENDBRANCH  12  18
TORSDOF 3
ENDMDL
MODEL 7
REMARK VINA RESULT:      -6.8      0.995      1.416
REMARK  Name = 
REMARK  5 active torsions:
REMARK  status: ('A' for Active; 'I' for Inactive)
REMARK    1  A    between atoms: C_1  and  O_2
REMARK    2  A    between atoms: O_2  and  C_3
REMARK    3  A    between atoms: N_9  and  C_10
REMARK    4  A    between atoms: N_14  and  C_15
REMARK    5  A    between atoms: C_15  and  C_16
REMARK                            x       y       z     vdW  Elec       q    Type
REMARK                         _______ _______ _______ _____ _____    ______ ____
ROOT
ATOM      1  C   UNL     1       2.480   6.824  19.884  0.00  0.00    +0.000 C 
ATOM      2  C   UNL     1       2.067   5.604  20.766  0.00  0.00    +0.000 C 
ATOM      3  C   UNL     1       2.029   4.374  19.952  0.00  0.00    +0.000 A 
ATOM      4  C   UNL     1       2.718   4.234  18.768  0.00  0.00    +0.000 A 
ATOM      5  C   UNL     1       2.476   2.906  18.372  0.00  0.00    +0.000 A 
ATOM      6  N   UNL     1       1.758   2.236  19.299  0.00  0.00    +0.000 NA
ATOM      7  N   UNL     1       1.586   3.135  20.292  0.00  0.00    +0.000 N 
ATOM      8  C   UNL     1       1.234   2.679  21.618  0.00  0.00    +0.000 C 
ATOM      9  C   UNL     1       3.716   5.279  18.350  0.00  0.00    +0.000 C 
ATOM     10  C   UNL     1       4.993   4.984  19.165  0.00  0.00    +0.000 C 
ATOM     11  C   UNL     1       6.323   5.456  18.616  0.00  0.00    +0.000 C 
ATOM     12  N   UNL     1       6.494   5.596  17.180  0.00  0.00    +0.000 NA
ATOM     13  C   UNL     1       5.291   5.984  16.450  0.00  0.00    +0.000 C 
ATOM     14  C   UNL     1       3.998   5.260  16.838  0.00  0.00    +0.000 C 
ATOM     15  O   UNL     1       3.257   6.609  18.686  0.00  0.00    +0.000 OA
ENDROOT
BRANCH   1  17
ATOM     16  C   UNL     1       1.447   8.937  19.556  0.00  0.00    +0.000 C 
ATOM     17  O   UNL     1       1.268   7.526  19.555  0.00  0.00    +0.000 OA
ENDBRANCH   1  17
BRANCH  12  18
ATOM     18  C   UNL     1       7.337   4.587  16.532  0.00  0.00    +0.000 C 
BRANCH  18  19
ATOM     19  C   UNL     1       7.247   4.525  15.004  0.00  0.00    +0.000 A 
ATOM     20  C   UNL     1       6.298   3.683  14.400  0.00  0.00    +0.000 A 
ATOM     21  C   UNL     1       6.119   3.673  13.014  0.00  0.00    +0.000 A 
ATOM     22  C   UNL     1       6.907   4.501  12.215  0.00  0.00    +0.000 A 
ATOM     23  F   UNL     1       6.712   4.516  10.892  0.00  0.00    +0.000 F 
ATOM     24  C   UNL     1       7.875   5.321  12.784  0.00  0.00    +0.000 A 
ATOM     25  C   UNL     1       8.043   5.338  14.171  0.00  0.00    +0.000 A 
ENDBRANCH  18  19
ENDBRANCH  12  18
TORSDOF 3
ENDMDL
MODEL 8
REMARK VINA RESULT:      -6.6      4.155      6.381
REMARK  Name = 
REMARK  5 active torsions:
REMARK  status: ('A' for Active; 'I' for Inactive)
REMARK    1  A    between atoms: C_1  and  O_2
REMARK    2  A    between atoms: O_2  and  C_3
REMARK    3  A    between atoms: N_9  and  C_10
REMARK    4  A    between atoms: N_14  and  C_15
REMARK    5  A    between atoms: C_15  and  C_16
REMARK                            x       y       z     vdW  Elec       q    Type
REMARK                         _______ _______ _______ _____ _____    ______ ____
ROOT
ATOM      1  C   UNL     1       1.972  12.076  19.049  0.00  0.00    +0.000 C 
ATOM      2  C   UNL     1       0.568  12.586  19.500  0.00  0.00    +0.000 C 
ATOM      3  C   UNL     1      -0.494  11.741  18.921  0.00  0.00    +0.000 A 
ATOM      4  C   UNL     1      -0.277  10.451  18.490  0.00  0.00    +0.000 A 
ATOM      5  C   UNL     1      -1.547   9.990  18.096  0.00  0.00    +0.000 A 
ATOM      6  N   UNL     1      -2.507  10.905  18.355  0.00  0.00    +0.000 NA
ATOM      7  N   UNL     1      -1.842  11.920  18.946  0.00  0.00    +0.000 N 
ATOM      8  C   UNL     1      -2.568  12.890  19.734  0.00  0.00    +0.000 C 
ATOM      9  C   UNL     1       1.033   9.771  18.780  0.00  0.00    +0.000 C 
ATOM     10  C   UNL     1       0.939   9.297  20.247  0.00  0.00    +0.000 C 
ATOM     11  C   UNL     1       1.802   8.133  20.684  0.00  0.00    +0.000 C 
ATOM     12  N   UNL     1       2.199   7.131  19.710  0.00  0.00    +0.000 NA
ATOM     13  C   UNL     1       2.386   7.632  18.352  0.00  0.00    +0.000 C 
ATOM     14  C   UNL     1       1.316   8.595  17.829  0.00  0.00    +0.000 C 
ATOM     15  O   UNL     1       2.141  10.693  18.667  0.00  0.00    +0.000 OA
ENDROOT
BRANCH   1  17
ATOM     16  C   UNL     1       2.293  14.308  18.304  0.00  0.00    +0.000 C 
ATOM     17  O   UNL     1       2.397  12.929  17.971  0.00  0.00    +0.000 OA
ENDBRANCH   1  17
BRANCH  12  18
ATOM     18  C   UNL     1       1.540   5.827  19.824  0.00  0.00    +0.000 C 
BRANCH  18  19
ATOM     19  C   UNL     1       2.285   4.646  19.195  0.00  0.00    +0.000 A 
ATOM     20  C   UNL     1       1.648   3.872  18.209  0.00  0.00    +0.000 A 
ATOM     21  C   UNL     1       2.329   2.851  17.541  0.00  0.00    +0.000 A 
ATOM     22  C   UNL     1       3.656   2.582  17.871  0.00  0.00    +0.000 A 
ATOM     23  F   UNL     1       4.318   1.626  17.209  0.00  0.00    +0.000 F 
ATOM     24  C   UNL     1       4.300   3.311  18.865  0.00  0.00    +0.000 A 
ATOM     25  C   UNL     1       3.622   4.341  19.522  0.00  0.00    +0.000 A 
ENDBRANCH  18  19
ENDBRANCH  12  18
TORSDOF 3
ENDMDL
MODEL 9
REMARK VINA RESULT:      -6.4      7.007     10.927
REMARK  Name = 
REMARK  5 active torsions:
REMARK  status: ('A' for Active; 'I' for Inactive)
REMARK    1  A    between atoms: C_1  and  O_2
REMARK    2  A    between atoms: O_2  and  C_3
REMARK    3  A    between atoms: N_9  and  C_10
REMARK    4  A    between atoms: N_14  and  C_15
REMARK    5  A    between atoms: C_15  and  C_16
REMARK                            x       y       z     vdW  Elec       q    Type
REMARK                         _______ _______ _______ _____ _____    ______ ____
ROOT
ATOM      1  C   UNL     1       0.719   9.149  18.633  0.00  0.00    +0.000 C 
ATOM      2  C   UNL     1       0.556   8.998  20.178  0.00  0.00    +0.000 C 
ATOM      3  C   UNL     1      -0.072  10.206  20.747  0.00  0.00    +0.000 A 
ATOM      4  C   UNL     1      -0.835  11.078  20.004  0.00  0.00    +0.000 A 
ATOM      5  C   UNL     1      -1.301  12.025  20.934  0.00  0.00    +0.000 A 
ATOM      6  N   UNL     1      -0.927  11.706  22.193  0.00  0.00    +0.000 NA
ATOM      7  N   UNL     1      -0.262  10.540  22.052  0.00  0.00    +0.000 N 
ATOM      8  C   UNL     1      -0.071   9.680  23.198  0.00  0.00    +0.000 C 
ATOM      9  C   UNL     1      -1.230  10.721  18.597  0.00  0.00    +0.000 C 
ATOM     10  C   UNL     1      -2.420   9.748  18.732  0.00  0.00    +0.000 C 
ATOM     11  C   UNL     1      -3.392   9.633  17.578  0.00  0.00    +0.000 C 
ATOM     12  N   UNL     1      -3.588  10.768  16.692  0.00  0.00    +0.000 NA
ATOM     13  C   UNL     1      -2.411  11.609  16.497  0.00  0.00    +0.000 C 
ATOM     14  C   UNL     1      -1.605  11.952  17.754  0.00  0.00    +0.000 C 
ATOM     15  O   UNL     1      -0.158  10.038  17.906  0.00  0.00    +0.000 OA
ENDROOT
BRANCH   1  17
ATOM     16  C   UNL     1       2.828   8.477  17.774  0.00  0.00    +0.000 C 
ATOM     17  O   UNL     1       2.088   9.521  18.395  0.00  0.00    +0.000 OA
ENDBRANCH   1  17
BRANCH  12  18
ATOM     18  C   UNL     1      -4.863  11.478  16.829  0.00  0.00    +0.000 C 
BRANCH  18  19
ATOM     19  C   UNL     1      -5.476  11.485  18.233  0.00  0.00    +0.000 A 
ATOM     20  C   UNL     1      -4.949  12.342  19.214  0.00  0.00    +0.000 A 
ATOM     21  C   UNL     1      -5.543  12.449  20.474  0.00  0.00    +0.000 A 
ATOM     22  C   UNL     1      -6.667  11.680  20.770  0.00  0.00    +0.000 A 
ATOM     23  F   UNL     1      -7.255  11.807  21.964  0.00  0.00    +0.000 F 
ATOM     24  C   UNL     1      -7.190  10.799  19.829  0.00  0.00    +0.000 A 
ATOM     25  C   UNL     1      -6.602  10.704  18.565  0.00  0.00    +0.000 A 
ENDBRANCH  18  19
ENDBRANCH  12  18
TORSDOF 3
ENDMDL
