MODEL 1
REMARK VINA RESULT:      -9.5      0.000      0.000
REMARK  Name = 
REMARK  5 active torsions:
REMARK  status: ('A' for Active; 'I' for Inactive)
REMARK    1  A    between atoms: C_1  and  C_2
REMARK    2  A    between atoms: C_6  and  N_7
REMARK    3  A    between atoms: C_8  and  S_9
REMARK    4  A    between atoms: N_10  and  C_11
REMARK    5  A    between atoms: C_14  and  C_15
REMARK                            x       y       z     vdW  Elec       q    Type
REMARK                         _______ _______ _______ _____ _____    ______ ____
ROOT
ATOM      1  C   UNL     1       1.516   9.579  19.534  0.00  0.00    +0.000 A 
ATOM      2  C   UNL     1       1.176   8.917  20.714  0.00  0.00    +0.000 A 
ATOM      3  C   UNL     1       1.381   7.540  20.850  0.00  0.00    +0.000 A 
ATOM      4  C   UNL     1       1.923   6.758  19.807  0.00  0.00    +0.000 A 
ATOM      5  C   UNL     1       2.284   7.445  18.643  0.00  0.00    +0.000 A 
ATOM      6  C   UNL     1       2.074   8.829  18.493  0.00  0.00    +0.000 A 
ENDROOT
BRANCH   4   7
ATOM      7  C   UNL     1       2.060   5.292  19.987  0.00  0.00    +0.000 A 
ATOM      8  C   UNL     1       0.940   4.528  20.409  0.00  0.00    +0.000 A 
ATOM      9  C   UNL     1       1.018   3.161  20.737  0.00  0.00    +0.000 A 
ATOM     10  C   UNL     1       2.234   2.498  20.675  0.00  0.00    +0.000 A 
ATOM     11  C   UNL     1       3.310   3.221  20.204  0.00  0.00    +0.000 A 
ATOM     12  C   UNL     1       3.236   4.566  19.808  0.00  0.00    +0.000 A 
ATOM     13  C   UNL     1       4.545   4.944  19.189  0.00  0.00    +0.000 C 
ATOM     14  N   UNL     1       5.311   3.719  19.240  0.00  0.00    +0.000 N 
ATOM     15  C   UNL     1       4.644   2.710  19.894  0.00  0.00    +0.000 C 
ATOM     16  O   UNL     1       5.042   1.582  20.101  0.00  0.00    +0.000 OA
ATOM     17  H   UNL     1       5.939   3.424  18.500  0.00  0.00    +0.000 HD
ENDBRANCH   4   7
BRANCH   1  20
ATOM     18  N   UNL     1      -0.488  10.746  17.698  0.00  0.00    +0.000 N 
ATOM     19  C   UNL     1       0.273  11.400  18.633  0.00  0.00    +0.000 C 
ATOM     20  N   UNL     1       1.172  10.925  19.434  0.00  0.00    +0.000 NA
ATOM     21  H   UNL     1      -0.146   9.819  17.474  0.00  0.00    +0.000 HD
BRANCH  18  27
ATOM     22  C   UNL     1      -5.080  12.077  19.189  0.00  0.00    +0.000 C 
ATOM     23  C   UNL     1      -4.155  11.492  18.160  0.00  0.00    +0.000 A 
ATOM     24  C   UNL     1      -4.630  11.125  16.899  0.00  0.00    +0.000 A 
ATOM     25  C   UNL     1      -3.755  10.606  15.948  0.00  0.00    +0.000 A 
ATOM     26  C   UNL     1      -2.399  10.469  16.248  0.00  0.00    +0.000 A 
ATOM     27  C   UNL     1      -1.889  10.830  17.505  0.00  0.00    +0.000 A 
ATOM     28  C   UNL     1      -2.790  11.329  18.456  0.00  0.00    +0.000 A 
ENDBRANCH  18  27
BRANCH  19  29
ATOM     29  S   UNL     1       0.171  13.167  18.673  0.00  0.00    +0.000 S 
ATOM     30  H   UNL     1      -1.146  13.209  18.901  0.00  0.00    +0.000 HD
ENDBRANCH  19  29
ENDBRANCH   1  20
TORSDOF 4
ENDMDL
MODEL 2
REMARK VINA RESULT:      -9.3      2.135      2.695
REMARK  Name = 
REMARK  5 active torsions:
REMARK  status: ('A' for Active; 'I' for Inactive)
REMARK    1  A    between atoms: C_1  and  C_2
REMARK    2  A    between atoms: C_6  and  N_7
REMARK    3  A    between atoms: C_8  and  S_9
REMARK    4  A    between atoms: N_10  and  C_11
REMARK    5  A    between atoms: C_14  and  C_15
REMARK                            x       y       z     vdW  Elec       q    Type
REMARK                         _______ _______ _______ _____ _____    ______ ____
ROOT
ATOM      1  C   UNL     1       1.358   9.426  19.404  0.00  0.00    +0.000 A 
ATOM      2  C   UNL     1       1.828   9.402  18.092  0.00  0.00    +0.000 A 
ATOM      3  C   UNL     1       2.490   8.279  17.586  0.00  0.00    +0.000 A 
ATOM      4  C   UNL     1       2.724   7.130  18.374  0.00  0.00    +0.000 A 
ATOM      5  C   UNL     1       2.219   7.163  19.679  0.00  0.00    +0.000 A 
ATOM      6  C   UNL     1       1.560   8.293  20.199  0.00  0.00    +0.000 A 
ENDROOT
BRANCH   4   7
ATOM      7  C   UNL     1       3.485   5.993  17.802  0.00  0.00    +0.000 A 
ATOM      8  C   UNL     1       2.851   4.732  17.645  0.00  0.00    +0.000 A 
ATOM      9  C   UNL     1       3.536   3.570  17.242  0.00  0.00    +0.000 A 
ATOM     10  C   UNL     1       4.900   3.614  16.996  0.00  0.00    +0.000 A 
ATOM     11  C   UNL     1       5.505   4.849  17.087  0.00  0.00    +0.000 A 
ATOM     12  C   UNL     1       4.825   6.032  17.421  0.00  0.00    +0.000 A 
ATOM     13  C   UNL     1       5.766   7.181  17.237  0.00  0.00    +0.000 C 
ATOM     14  N   UNL     1       6.976   6.555  16.751  0.00  0.00    +0.000 N 
ATOM     15  C   UNL     1       6.881   5.184  16.721  0.00  0.00    +0.000 C 
ATOM     16  O   UNL     1       7.737   4.397  16.374  0.00  0.00    +0.000 OA
ATOM     17  H   UNL     1       7.571   6.971  16.045  0.00  0.00    +0.000 HD
ENDBRANCH   4   7
BRANCH   1  20
ATOM     18  N   UNL     1      -0.650  11.099  18.019  0.00  0.00    +0.000 N 
ATOM     19  C   UNL     1      -0.077  11.321  19.246  0.00  0.00    +0.000 C 
ATOM     20  N   UNL     1       0.818  10.623  19.868  0.00  0.00    +0.000 NA
ATOM     21  H   UNL     1      -0.152  10.420  17.456  0.00  0.00    +0.000 HD
BRANCH  18  27
ATOM     22  C   UNL     1      -5.431  12.161  19.070  0.00  0.00    +0.000 C 
ATOM     23  C   UNL     1      -4.379  11.651  18.126  0.00  0.00    +0.000 A 
ATOM     24  C   UNL     1      -4.706  11.297  16.815  0.00  0.00    +0.000 A 
ATOM     25  C   UNL     1      -3.715  10.849  15.946  0.00  0.00    +0.000 A 
ATOM     26  C   UNL     1      -2.390  10.770  16.378  0.00  0.00    +0.000 A 
ATOM     27  C   UNL     1      -2.028  11.119  17.688  0.00  0.00    +0.000 A 
ATOM     28  C   UNL     1      -3.044  11.547  18.554  0.00  0.00    +0.000 A 
ENDBRANCH  18  27
BRANCH  19  29
ATOM     29  S   UNL     1      -0.455  12.849  20.055  0.00  0.00    +0.000 S 
ATOM     30  H   UNL     1       0.751  12.993  20.615  0.00  0.00    +0.000 HD
ENDBRANCH  19  29
ENDBRANCH   1  20
TORSDOF 4
ENDMDL
MODEL 3
REMARK VINA RESULT:      -9.2      2.259      2.678
REMARK  Name = 
REMARK  5 active torsions:
REMARK  status: ('A' for Active; 'I' for Inactive)
REMARK    1  A    between atoms: C_1  and  C_2
REMARK    2  A    between atoms: C_6  and  N_7
REMARK    3  A    between atoms: C_8  and  S_9
REMARK    4  A    between atoms: N_10  and  C_11
REMARK    5  A    between atoms: C_14  and  C_15
REMARK                            x       y       z     vdW  Elec       q    Type
REMARK                         _______ _______ _______ _____ _____    ______ ____
ROOT
ATOM      1  C   UNL     1       1.205   9.179  19.795  0.00  0.00    +0.000 A 
ATOM      2  C   UNL     1       1.580   8.019  20.473  0.00  0.00    +0.000 A 
ATOM      3  C   UNL     1       2.328   7.024  19.835  0.00  0.00    +0.000 A 
ATOM      4  C   UNL     1       2.725   7.136  18.485  0.00  0.00    +0.000 A 
ATOM      5  C   UNL     1       2.364   8.319  17.831  0.00  0.00    +0.000 A 
ATOM      6  C   UNL     1       1.604   9.323  18.462  0.00  0.00    +0.000 A 
ENDROOT
BRANCH   4   7
ATOM      7  C   UNL     1       3.464   6.021  17.844  0.00  0.00    +0.000 A 
ATOM      8  C   UNL     1       2.821   4.769  17.654  0.00  0.00    +0.000 A 
ATOM      9  C   UNL     1       3.489   3.623  17.184  0.00  0.00    +0.000 A 
ATOM     10  C   UNL     1       4.846   3.674  16.899  0.00  0.00    +0.000 A 
ATOM     11  C   UNL     1       5.457   4.903  17.023  0.00  0.00    +0.000 A 
ATOM     12  C   UNL     1       4.792   6.072  17.425  0.00  0.00    +0.000 A 
ATOM     13  C   UNL     1       5.732   7.226  17.261  0.00  0.00    +0.000 C 
ATOM     14  N   UNL     1       6.924   6.617  16.714  0.00  0.00    +0.000 N 
ATOM     15  C   UNL     1       6.823   5.249  16.630  0.00  0.00    +0.000 C 
ATOM     16  O   UNL     1       7.666   4.475  16.225  0.00  0.00    +0.000 OA
ATOM     17  H   UNL     1       7.500   7.060  16.007  0.00  0.00    +0.000 HD
ENDBRANCH   4   7
BRANCH   1  20
ATOM     18  N   UNL     1      -0.796  10.969  18.554  0.00  0.00    +0.000 N 
ATOM     19  C   UNL     1      -0.519  10.819  19.889  0.00  0.00    +0.000 C 
ATOM     20  N   UNL     1       0.362  10.065  20.462  0.00  0.00    +0.000 NA
ATOM     21  H   UNL     1      -0.076  10.594  17.946  0.00  0.00    +0.000 HD
BRANCH  18  27
ATOM     22  C   UNL     1      -5.586  12.381  18.177  0.00  0.00    +0.000 C 
ATOM     23  C   UNL     1      -4.401  11.617  17.658  0.00  0.00    +0.000 A 
ATOM     24  C   UNL     1      -4.465  10.940  16.438  0.00  0.00    +0.000 A 
ATOM     25  C   UNL     1      -3.350  10.257  15.960  0.00  0.00    +0.000 A 
ATOM     26  C   UNL     1      -2.161  10.262  16.691  0.00  0.00    +0.000 A 
ATOM     27  C   UNL     1      -2.062  10.934  17.920  0.00  0.00    +0.000 A 
ATOM     28  C   UNL     1      -3.203  11.597  18.394  0.00  0.00    +0.000 A 
ENDBRANCH  18  27
BRANCH  19  29
ATOM     29  S   UNL     1      -1.336  11.913  21.015  0.00  0.00    +0.000 S 
ATOM     30  H   UNL     1      -1.591  12.859  20.106  0.00  0.00    +0.000 HD
ENDBRANCH  19  29
ENDBRANCH   1  20
TORSDOF 4
ENDMDL
MODEL 4
REMARK VINA RESULT:      -9.2      2.248      2.961
REMARK  Name = 
REMARK  5 active torsions:
REMARK  status: ('A' for Active; 'I' for Inactive)
REMARK    1  A    between atoms: C_1  and  C_2
REMARK    2  A    between atoms: C_6  and  N_7
REMARK    3  A    between atoms: C_8  and  S_9
REMARK    4  A    between atoms: N_10  and  C_11
REMARK    5  A    between atoms: C_14  and  C_15
REMARK                            x       y       z     vdW  Elec       q    Type
REMARK                         _______ _______ _______ _____ _____    ______ ____
ROOT
ATOM      1  C   UNL     1       1.141   9.246  19.777  0.00  0.00    +0.000 A 
ATOM      2  C   UNL     1       1.530   8.100  20.471  0.00  0.00    +0.000 A 
ATOM      3  C   UNL     1       2.265   7.092  19.840  0.00  0.00    +0.000 A 
ATOM      4  C   UNL     1       2.635   7.176  18.479  0.00  0.00    +0.000 A 
ATOM      5  C   UNL     1       2.261   8.345  17.809  0.00  0.00    +0.000 A 
ATOM      6  C   UNL     1       1.513   9.362  18.434  0.00  0.00    +0.000 A 
ENDROOT
BRANCH   4   7
ATOM      7  C   UNL     1       3.362   6.048  17.848  0.00  0.00    +0.000 A 
ATOM      8  C   UNL     1       2.716   4.793  17.697  0.00  0.00    +0.000 A 
ATOM      9  C   UNL     1       3.376   3.636  17.238  0.00  0.00    +0.000 A 
ATOM     10  C   UNL     1       4.726   3.682  16.925  0.00  0.00    +0.000 A 
ATOM     11  C   UNL     1       5.339   4.913  17.011  0.00  0.00    +0.000 A 
ATOM     12  C   UNL     1       4.681   6.090  17.401  0.00  0.00    +0.000 A 
ATOM     13  C   UNL     1       5.617   7.241  17.194  0.00  0.00    +0.000 C 
ATOM     14  N   UNL     1       6.798   6.621  16.636  0.00  0.00    +0.000 N 
ATOM     15  C   UNL     1       6.697   5.251  16.583  0.00  0.00    +0.000 C 
ATOM     16  O   UNL     1       7.532   4.469  16.178  0.00  0.00    +0.000 OA
ATOM     17  H   UNL     1       7.360   7.049  15.909  0.00  0.00    +0.000 HD
ENDBRANCH   4   7
BRANCH   1  20
ATOM     18  N   UNL     1      -0.734  11.160  18.524  0.00  0.00    +0.000 N 
ATOM     19  C   UNL     1      -0.515  10.956  19.862  0.00  0.00    +0.000 C 
ATOM     20  N   UNL     1       0.311  10.145  20.442  0.00  0.00    +0.000 NA
ATOM     21  H   UNL     1      -0.008  10.774  17.931  0.00  0.00    +0.000 HD
BRANCH  18  27
ATOM     22  C   UNL     1      -3.638  10.144  14.572  0.00  0.00    +0.000 C 
ATOM     23  C   UNL     1      -3.457  10.697  15.957  0.00  0.00    +0.000 A 
ATOM     24  C   UNL     1      -4.552  11.159  16.691  0.00  0.00    +0.000 A 
ATOM     25  C   UNL     1      -4.371  11.646  17.983  0.00  0.00    +0.000 A 
ATOM     26  C   UNL     1      -3.096  11.658  18.552  0.00  0.00    +0.000 A 
ATOM     27  C   UNL     1      -1.975  11.200  17.843  0.00  0.00    +0.000 A 
ATOM     28  C   UNL     1      -2.177  10.734  16.535  0.00  0.00    +0.000 A 
ENDBRANCH  18  27
BRANCH  19  29
ATOM     29  S   UNL     1      -1.328  12.046  20.994  0.00  0.00    +0.000 S 
ATOM     30  H   UNL     1      -0.561  13.106  20.717  0.00  0.00    +0.000 HD
ENDBRANCH  19  29
ENDBRANCH   1  20
TORSDOF 4
ENDMDL
MODEL 5
REMARK VINA RESULT:      -9.0      1.500      2.466
REMARK  Name = 
REMARK  5 active torsions:
REMARK  status: ('A' for Active; 'I' for Inactive)
REMARK    1  A    between atoms: C_1  and  C_2
REMARK    2  A    between atoms: C_6  and  N_7
REMARK    3  A    between atoms: C_8  and  S_9
REMARK    4  A    between atoms: N_10  and  C_11
REMARK    5  A    between atoms: C_14  and  C_15
REMARK                            x       y       z     vdW  Elec       q    Type
REMARK                         _______ _______ _______ _____ _____    ______ ____
ROOT
ATOM      1  C   UNL     1       1.214   9.832  19.340  0.00  0.00    +0.000 A 
ATOM      2  C   UNL     1       1.723   9.692  18.049  0.00  0.00    +0.000 A 
ATOM      3  C   UNL     1       2.363   8.514  17.652  0.00  0.00    +0.000 A 
ATOM      4  C   UNL     1       2.536   7.423  18.532  0.00  0.00    +0.000 A 
ATOM      5  C   UNL     1       1.993   7.572  19.813  0.00  0.00    +0.000 A 
ATOM      6  C   UNL     1       1.355   8.758  20.225  0.00  0.00    +0.000 A 
ENDROOT
BRANCH   4   7
ATOM      7  C   UNL     1       3.276   6.223  18.074  0.00  0.00    +0.000 A 
ATOM      8  C   UNL     1       4.400   6.375  17.219  0.00  0.00    +0.000 A 
ATOM      9  C   UNL     1       5.072   5.288  16.628  0.00  0.00    +0.000 A 
ATOM     10  C   UNL     1       4.634   3.992  16.853  0.00  0.00    +0.000 A 
ATOM     11  C   UNL     1       3.582   3.838  17.732  0.00  0.00    +0.000 A 
ATOM     12  C   UNL     1       2.944   4.906  18.384  0.00  0.00    +0.000 A 
ATOM     13  C   UNL     1       1.989   4.338  19.387  0.00  0.00    +0.000 C 
ATOM     14  N   UNL     1       2.177   2.910  19.265  0.00  0.00    +0.000 N 
ATOM     15  C   UNL     1       3.050   2.580  18.255  0.00  0.00    +0.000 C 
ATOM     16  O   UNL     1       3.388   1.466  17.913  0.00  0.00    +0.000 OA
ATOM     17  H   UNL     1       2.162   2.277  20.057  0.00  0.00    +0.000 HD
ENDBRANCH   4   7
BRANCH   1  20
ATOM     18  N   UNL     1      -0.892  11.333  17.904  0.00  0.00    +0.000 N 
ATOM     19  C   UNL     1      -0.239  11.697  19.054  0.00  0.00    +0.000 C 
ATOM     20  N   UNL     1       0.699  11.077  19.694  0.00  0.00    +0.000 NA
ATOM     21  H   UNL     1      -0.429  10.591  17.393  0.00  0.00    +0.000 HD
BRANCH  18  27
ATOM     22  C   UNL     1      -5.625  12.148  19.326  0.00  0.00    +0.000 C 
ATOM     23  C   UNL     1      -4.622  11.731  18.288  0.00  0.00    +0.000 A 
ATOM     24  C   UNL     1      -5.025  11.435  16.984  0.00  0.00    +0.000 A 
ATOM     25  C   UNL     1      -4.080  11.073  16.027  0.00  0.00    +0.000 A 
ATOM     26  C   UNL     1      -2.727  11.023  16.366  0.00  0.00    +0.000 A 
ATOM     27  C   UNL     1      -2.289  11.316  17.666  0.00  0.00    +0.000 A 
ATOM     28  C   UNL     1      -3.259  11.657  18.620  0.00  0.00    +0.000 A 
ENDBRANCH  18  27
BRANCH  19  29
ATOM     29  S   UNL     1      -0.571  13.311  19.700  0.00  0.00    +0.000 S 
ATOM     30  H   UNL     1      -0.136  13.042  20.935  0.00  0.00    +0.000 HD
ENDBRANCH  19  29
ENDBRANCH   1  20
TORSDOF 4
ENDMDL
MODEL 6
REMARK VINA RESULT:      -8.9      0.401      1.381
REMARK  Name = 
REMARK  5 active torsions:
REMARK  status: ('A' for Active; 'I' for Inactive)
REMARK    1  A    between atoms: C_1  and  C_2
REMARK    2  A    between atoms: C_6  and  N_7
REMARK    3  A    between atoms: C_8  and  S_9
REMARK    4  A    between atoms: N_10  and  C_11
REMARK    5  A    between atoms: C_14  and  C_15
REMARK                            x       y       z     vdW  Elec       q    Type
REMARK                         _______ _______ _______ _____ _____    ______ ____
ROOT
ATOM      1  C   UNL     1       1.300   9.652  19.856  0.00  0.00    +0.000 A 
ATOM      2  C   UNL     1       1.021   8.930  21.016  0.00  0.00    +0.000 A 
ATOM      3  C   UNL     1       1.270   7.556  21.085  0.00  0.00    +0.000 A 
ATOM      4  C   UNL     1       1.798   6.835  19.991  0.00  0.00    +0.000 A 
ATOM      5  C   UNL     1       2.098   7.582  18.847  0.00  0.00    +0.000 A 
ATOM      6  C   UNL     1       1.843   8.965  18.765  0.00  0.00    +0.000 A 
ENDROOT
BRANCH   4   7
ATOM      7  C   UNL     1       1.983   5.368  20.102  0.00  0.00    +0.000 A 
ATOM      8  C   UNL     1       0.886   4.547  20.472  0.00  0.00    +0.000 A 
ATOM      9  C   UNL     1       1.007   3.169  20.735  0.00  0.00    +0.000 A 
ATOM     10  C   UNL     1       2.246   2.551  20.656  0.00  0.00    +0.000 A 
ATOM     11  C   UNL     1       3.301   3.332  20.236  0.00  0.00    +0.000 A 
ATOM     12  C   UNL     1       3.185   4.692  19.904  0.00  0.00    +0.000 A 
ATOM     13  C   UNL     1       4.488   5.144  19.320  0.00  0.00    +0.000 C 
ATOM     14  N   UNL     1       5.295   3.944  19.322  0.00  0.00    +0.000 N 
ATOM     15  C   UNL     1       4.656   2.883  19.918  0.00  0.00    +0.000 C 
ATOM     16  O   UNL     1       5.091   1.760  20.076  0.00  0.00    +0.000 OA
ATOM     17  H   UNL     1       5.941   3.707  18.578  0.00  0.00    +0.000 HD
ENDBRANCH   4   7
BRANCH   1  20
ATOM     18  N   UNL     1      -0.450  10.930  17.842  0.00  0.00    +0.000 N 
ATOM     19  C   UNL     1       0.128  11.513  18.941  0.00  0.00    +0.000 C 
ATOM     20  N   UNL     1       0.914  10.990  19.826  0.00  0.00    +0.000 NA
ATOM     21  H   UNL     1      -0.035  10.040  17.591  0.00  0.00    +0.000 HD
BRANCH  18  27
ATOM     22  C   UNL     1      -4.104  10.157  14.506  0.00  0.00    +0.000 C 
ATOM     23  C   UNL     1      -3.644  10.598  15.867  0.00  0.00    +0.000 A 
ATOM     24  C   UNL     1      -4.567  10.961  16.850  0.00  0.00    +0.000 A 
ATOM     25  C   UNL     1      -4.125  11.344  18.114  0.00  0.00    +0.000 A 
ATOM     26  C   UNL     1      -2.760  11.349  18.405  0.00  0.00    +0.000 A 
ATOM     27  C   UNL     1      -1.807  10.988  17.440  0.00  0.00    +0.000 A 
ATOM     28  C   UNL     1      -2.272  10.627  16.167  0.00  0.00    +0.000 A 
ENDBRANCH  18  27
BRANCH  19  29
ATOM     29  S   UNL     1      -0.061  13.263  19.126  0.00  0.00    +0.000 S 
ATOM     30  H   UNL     1       0.718  13.581  18.086  0.00  0.00    +0.000 HD
ENDBRANCH  19  29
ENDBRANCH   1  20
TORSDOF 4
ENDMDL
MODEL 7
REMARK VINA RESULT:      -8.8      1.989      2.669
REMARK  Name = 
REMARK  5 active torsions:
REMARK  status: ('A' for Active; 'I' for Inactive)
REMARK    1  A    between atoms: C_1  and  C_2
REMARK    2  A    between atoms: C_6  and  N_7
REMARK    3  A    between atoms: C_8  and  S_9
REMARK    4  A    between atoms: N_10  and  C_11
REMARK    5  A    between atoms: C_14  and  C_15
REMARK                            x       y       z     vdW  Elec       q    Type
REMARK                         _______ _______ _______ _____ _____    ______ ____
ROOT
ATOM      1  C   UNL     1       1.789   9.497  18.830  0.00  0.00    +0.000 A 
ATOM      2  C   UNL     1       1.575   9.012  20.120  0.00  0.00    +0.000 A 
ATOM      3  C   UNL     1       1.729   7.653  20.411  0.00  0.00    +0.000 A 
ATOM      4  C   UNL     1       2.091   6.712  19.423  0.00  0.00    +0.000 A 
ATOM      5  C   UNL     1       2.330   7.223  18.142  0.00  0.00    +0.000 A 
ATOM      6  C   UNL     1       2.169   8.588  17.837  0.00  0.00    +0.000 A 
ENDROOT
BRANCH   4   7
ATOM      7  C   UNL     1       2.180   5.275  19.778  0.00  0.00    +0.000 A 
ATOM      8  C   UNL     1       1.039   4.607  20.295  0.00  0.00    +0.000 A 
ATOM      9  C   UNL     1       1.073   3.288  20.786  0.00  0.00    +0.000 A 
ATOM     10  C   UNL     1       2.264   2.579  20.797  0.00  0.00    +0.000 A 
ATOM     11  C   UNL     1       3.360   3.203  20.238  0.00  0.00    +0.000 A 
ATOM     12  C   UNL     1       3.328   4.492  19.683  0.00  0.00    +0.000 A 
ATOM     13  C   UNL     1       4.644   4.746  19.015  0.00  0.00    +0.000 C 
ATOM     14  N   UNL     1       5.368   3.510  19.211  0.00  0.00    +0.000 N 
ATOM     15  C   UNL     1       4.674   2.611  19.985  0.00  0.00    +0.000 C 
ATOM     16  O   UNL     1       5.034   1.503  20.324  0.00  0.00    +0.000 OA
ATOM     17  H   UNL     1       5.979   3.106  18.509  0.00  0.00    +0.000 HD
ENDBRANCH   4   7
BRANCH   1  20
ATOM     18  N   UNL     1      -0.666  10.932  19.643  0.00  0.00    +0.000 N 
ATOM     19  C   UNL     1       0.423  11.442  18.984  0.00  0.00    +0.000 C 
ATOM     20  N   UNL     1       1.500  10.839  18.595  0.00  0.00    +0.000 NA
ATOM     21  H   UNL     1      -0.709   9.920  19.631  0.00  0.00    +0.000 HD
BRANCH  18  27
ATOM     22  C   UNL     1      -4.316  13.548  21.860  0.00  0.00    +0.000 C 
ATOM     23  C   UNL     1      -3.088  12.686  21.940  0.00  0.00    +0.000 A 
ATOM     24  C   UNL     1      -2.603  12.246  23.173  0.00  0.00    +0.000 A 
ATOM     25  C   UNL     1      -1.478  11.427  23.228  0.00  0.00    +0.000 A 
ATOM     26  C   UNL     1      -0.844  11.030  22.049  0.00  0.00    +0.000 A 
ATOM     27  C   UNL     1      -1.308  11.453  20.793  0.00  0.00    +0.000 A 
ATOM     28  C   UNL     1      -2.429  12.295  20.761  0.00  0.00    +0.000 A 
ENDBRANCH  18  27
BRANCH  19  29
ATOM     29  S   UNL     1       0.318  13.114  18.414  0.00  0.00    +0.000 S 
ATOM     30  H   UNL     1       1.423  13.059  17.663  0.00  0.00    +0.000 HD
ENDBRANCH  19  29
ENDBRANCH   1  20
TORSDOF 4
ENDMDL
MODEL 8
REMARK VINA RESULT:      -8.7      1.479      2.363
REMARK  Name = 
REMARK  5 active torsions:
REMARK  status: ('A' for Active; 'I' for Inactive)
REMARK    1  A    between atoms: C_1  and  C_2
REMARK    2  A    between atoms: C_6  and  N_7
REMARK    3  A    between atoms: C_8  and  S_9
REMARK    4  A    between atoms: N_10  and  C_11
REMARK    5  A    between atoms: C_14  and  C_15
REMARK                            x       y       z     vdW  Elec       q    Type
REMARK                         _______ _______ _______ _____ _____    ______ ____
ROOT
ATOM      1  C   UNL     1       1.189  10.132  19.149  0.00  0.00    +0.000 A 
ATOM      2  C   UNL     1       1.683   9.642  17.940  0.00  0.00    +0.000 A 
ATOM      3  C   UNL     1       2.146   8.327  17.832  0.00  0.00    +0.000 A 
ATOM      4  C   UNL     1       2.147   7.442  18.933  0.00  0.00    +0.000 A 
ATOM      5  C   UNL     1       1.621   7.943  20.129  0.00  0.00    +0.000 A 
ATOM      6  C   UNL     1       1.161   9.269  20.249  0.00  0.00    +0.000 A 
ENDROOT
BRANCH   4   7
ATOM      7  C   UNL     1       2.706   6.078  18.774  0.00  0.00    +0.000 A 
ATOM      8  C   UNL     1       3.915   5.893  18.053  0.00  0.00    +0.000 A 
ATOM      9  C   UNL     1       4.439   4.625  17.737  0.00  0.00    +0.000 A 
ATOM     10  C   UNL     1       3.761   3.477  18.116  0.00  0.00    +0.000 A 
ATOM     11  C   UNL     1       2.620   3.653  18.870  0.00  0.00    +0.000 A 
ATOM     12  C   UNL     1       2.120   4.908  19.252  0.00  0.00    +0.000 A 
ATOM     13  C   UNL     1       0.989   4.689  20.209  0.00  0.00    +0.000 C 
ATOM     14  N   UNL     1       0.935   3.251  20.347  0.00  0.00    +0.000 N 
ATOM     15  C   UNL     1       1.828   2.610  19.522  0.00  0.00    +0.000 C 
ATOM     16  O   UNL     1       1.997   1.413  19.413  0.00  0.00    +0.000 OA
ATOM     17  H   UNL     1       0.733   2.785  21.224  0.00  0.00    +0.000 HD
ENDBRANCH   4   7
BRANCH   1  20
ATOM     18  N   UNL     1      -1.147  11.426  17.876  0.00  0.00    +0.000 N 
ATOM     19  C   UNL     1      -0.183  12.016  18.653  0.00  0.00    +0.000 C 
ATOM     20  N   UNL     1       0.861  11.485  19.204  0.00  0.00    +0.000 NA
ATOM     21  H   UNL     1      -0.885  10.511  17.529  0.00  0.00    +0.000 HD
BRANCH  18  27
ATOM     22  C   UNL     1      -5.262  12.665  20.449  0.00  0.00    +0.000 C 
ATOM     23  C   UNL     1      -4.602  12.156  19.199  0.00  0.00    +0.000 A 
ATOM     24  C   UNL     1      -5.353  11.893  18.051  0.00  0.00    +0.000 A 
ATOM     25  C   UNL     1      -4.723  11.446  16.892  0.00  0.00    +0.000 A 
ATOM     26  C   UNL     1      -3.338  11.276  16.872  0.00  0.00    +0.000 A 
ATOM     27  C   UNL     1      -2.554  11.534  18.007  0.00  0.00    +0.000 A 
ATOM     28  C   UNL     1      -3.210  11.962  19.170  0.00  0.00    +0.000 A 
ENDBRANCH  18  27
BRANCH  19  29
ATOM     29  S   UNL     1      -0.234  13.777  18.814  0.00  0.00    +0.000 S 
ATOM     30  H   UNL     1      -1.017  13.976  17.748  0.00  0.00    +0.000 HD
ENDBRANCH  19  29
ENDBRANCH   1  20
TORSDOF 4
ENDMDL
MODEL 9
REMARK VINA RESULT:      -8.7      1.468      2.712
REMARK  Name = 
REMARK  5 active torsions:
REMARK  status: ('A' for Active; 'I' for Inactive)
REMARK    1  A    between atoms: C_1  and  C_2
REMARK    2  A    between atoms: C_6  and  N_7
REMARK    3  A    between atoms: C_8  and  S_9
REMARK    4  A    between atoms: N_10  and  C_11
REMARK    5  A    between atoms: C_14  and  C_15
REMARK                            x       y       z     vdW  Elec       q    Type
REMARK                         _______ _______ _______ _____ _____    ______ ____
ROOT
ATOM      1  C   UNL     1       1.094   9.356  19.760  0.00  0.00    +0.000 A 
ATOM      2  C   UNL     1       1.511   9.265  18.432  0.00  0.00    +0.000 A 
ATOM      3  C   UNL     1       2.196   8.138  17.970  0.00  0.00    +0.000 A 
ATOM      4  C   UNL     1       2.510   7.052  18.817  0.00  0.00    +0.000 A 
ATOM      5  C   UNL     1       2.057   7.150  20.138  0.00  0.00    +0.000 A 
ATOM      6  C   UNL     1       1.374   8.285  20.615  0.00  0.00    +0.000 A 
ENDROOT
BRANCH   4   7
ATOM      7  C   UNL     1       3.292   5.910  18.285  0.00  0.00    +0.000 A 
ATOM      8  C   UNL     1       4.318   6.145  17.332  0.00  0.00    +0.000 A 
ATOM      9  C   UNL     1       5.012   5.111  16.675  0.00  0.00    +0.000 A 
ATOM     10  C   UNL     1       4.694   3.785  16.932  0.00  0.00    +0.000 A 
ATOM     11  C   UNL     1       3.742   3.555  17.902  0.00  0.00    +0.000 A 
ATOM     12  C   UNL     1       3.089   4.572  18.616  0.00  0.00    +0.000 A 
ATOM     13  C   UNL     1       2.275   3.935  19.699  0.00  0.00    +0.000 C 
ATOM     14  N   UNL     1       2.557   2.525  19.551  0.00  0.00    +0.000 N 
ATOM     15  C   UNL     1       3.355   2.261  18.464  0.00  0.00    +0.000 C 
ATOM     16  O   UNL     1       3.742   1.174  18.086  0.00  0.00    +0.000 OA
ATOM     17  H   UNL     1       2.661   1.894  20.337  0.00  0.00    +0.000 HD
ENDBRANCH   4   7
BRANCH   1  20
ATOM     18  N   UNL     1      -0.625  11.131  18.134  0.00  0.00    +0.000 N 
ATOM     19  C   UNL     1      -0.242  11.302  19.440  0.00  0.00    +0.000 C 
ATOM     20  N   UNL     1       0.524  10.559  20.171  0.00  0.00    +0.000 NA
ATOM     21  H   UNL     1      -0.067  10.449  17.633  0.00  0.00    +0.000 HD
BRANCH  18  27
ATOM     22  C   UNL     1      -3.970  10.238  14.514  0.00  0.00    +0.000 C 
ATOM     23  C   UNL     1      -3.625  10.764  15.878  0.00  0.00    +0.000 A 
ATOM     24  C   UNL     1      -4.622  11.233  16.736  0.00  0.00    +0.000 A 
ATOM     25  C   UNL     1      -4.289  11.695  18.007  0.00  0.00    +0.000 A 
ATOM     26  C   UNL     1      -2.959  11.673  18.431  0.00  0.00    +0.000 A 
ATOM     27  C   UNL     1      -1.933  11.206  17.595  0.00  0.00    +0.000 A 
ATOM     28  C   UNL     1      -2.288  10.766  16.311  0.00  0.00    +0.000 A 
ENDBRANCH  18  27
BRANCH  19  29
ATOM     29  S   UNL     1      -0.694  12.821  20.226  0.00  0.00    +0.000 S 
ATOM     30  H   UNL     1      -0.651  12.334  21.471  0.00  0.00    +0.000 HD
ENDBRANCH  19  29
ENDBRANCH   1  20
TORSDOF 4
ENDMDL
