MODEL 1
REMARK VINA RESULT:      -8.1      0.000      0.000
REMARK  Name = 
REMARK  11 active torsions:
REMARK  status: ('A' for Active; 'I' for Inactive)
REMARK    1  A    between atoms: C_1  and  O_2
REMARK    2  A    between atoms: O_2  and  C_3
REMARK    3  A    between atoms: C_8  and  C_9
REMARK    4  A    between atoms: C_9  and  N_10
REMARK    5  A    between atoms: C_11  and  C_13
REMARK    6  A    between atoms: C_13  and  N_14
REMARK    7  A    between atoms: C_15  and  C_17
REMARK    8  A    between atoms: C_20  and  C_21
REMARK    9  A    between atoms: C_21  and  N_22
REMARK   10  A    between atoms: N_22  and  S_23
REMARK   11  A    between atoms: S_23  and  C_26
REMARK                            x       y       z     vdW  Elec       q    Type
REMARK                         _______ _______ _______ _____ _____    ______ ____
ROOT
ATOM      1  C   UNL     1       1.656   8.284  20.444  0.00  0.00    +0.000 C 
ATOM      2  C   UNL     1       1.908   6.773  20.337  0.00  0.00    +0.000 C 
ATOM      3  C   UNL     1       3.088   6.453  19.417  0.00  0.00    +0.000 C 
ATOM      4  C   UNL     1       2.903   7.055  18.013  0.00  0.00    +0.000 C 
ATOM      5  C   UNL     1       2.622   8.563  18.114  0.00  0.00    +0.000 C 
ATOM      6  C   UNL     1       1.449   8.875  19.042  0.00  0.00    +0.000 C 
ENDROOT
BRANCH   1   8
ATOM      7  N   UNL     1       0.655   9.696  22.166  0.00  0.00    +0.000 N 
ATOM      8  C   UNL     1       0.466   8.599  21.357  0.00  0.00    +0.000 C 
ATOM      9  O   UNL     1      -0.567   7.938  21.389  0.00  0.00    +0.000 OA
ATOM     10  H   UNL     1       1.547  10.173  22.157  0.00  0.00    +0.000 HD
BRANCH   7  11
ATOM     11  C   UNL     1      -0.322  10.130  23.152  0.00  0.00    +0.000 C 
BRANCH  11  13
ATOM     12  N   UNL     1      -1.056  11.689  21.384  0.00  0.00    +0.000 N 
ATOM     13  C   UNL     1      -1.331  11.170  22.635  0.00  0.00    +0.000 C 
ATOM     14  O   UNL     1      -2.343  11.450  23.269  0.00  0.00    +0.000 OA
ATOM     15  H   UNL     1      -0.313  11.252  20.846  0.00  0.00    +0.000 HD
BRANCH  12  16
ATOM     16  C   UNL     1      -2.011  12.533  20.688  0.00  0.00    +0.000 C 
BRANCH  16  22
ATOM     17  C   UNL     1      -3.911  12.046  19.021  0.00  0.00    +0.000 A 
ATOM     18  C   UNL     1      -4.339  11.438  17.831  0.00  0.00    +0.000 A 
ATOM     19  C   UNL     1      -3.506  10.567  17.135  0.00  0.00    +0.000 A 
ATOM     20  C   UNL     1      -2.218  10.329  17.598  0.00  0.00    +0.000 A 
ATOM     21  C   UNL     1      -1.761  10.979  18.742  0.00  0.00    +0.000 A 
ATOM     22  C   UNL     1      -2.594  11.846  19.474  0.00  0.00    +0.000 A 
BRANCH  17  24
ATOM     23  C   UNL     1      -5.787  12.173  20.430  0.00  0.00    +0.000 C 
ATOM     24  O   UNL     1      -4.735  12.867  19.753  0.00  0.00    +0.000 OA
ENDBRANCH  17  24
ENDBRANCH  16  22
ENDBRANCH  12  16
ENDBRANCH  11  13
ENDBRANCH   7  11
ENDBRANCH   1   8
BRANCH   4  25
ATOM     25  C   UNL     1       4.130   6.817  17.112  0.00  0.00    +0.000 C 
BRANCH  25  26
ATOM     26  N   UNL     1       5.228   6.225  17.883  0.00  0.00    +0.000 NA
ATOM     27  H   UNL     1       5.238   6.360  18.894  0.00  0.00    +0.000 HD
BRANCH  26  28
ATOM     28  S   UNL     1       5.733   4.672  17.466  0.00  0.00    +0.000 S 
ATOM     29  O   UNL     1       5.676   4.600  16.023  0.00  0.00    +0.000 OA
ATOM     30  O   UNL     1       6.945   4.383  18.200  0.00  0.00    +0.000 OA
BRANCH  28  31
ATOM     31  C   UNL     1       4.419   3.662  18.099  0.00  0.00    +0.000 A 
ATOM     32  C   UNL     1       3.348   3.325  17.263  0.00  0.00    +0.000 A 
ATOM     33  C   UNL     1       2.311   2.537  17.763  0.00  0.00    +0.000 A 
ATOM     34  C   UNL     1       2.360   2.090  19.081  0.00  0.00    +0.000 A 
ATOM     35  F   UNL     1       1.360   1.341  19.561  0.00  0.00    +0.000 F 
ATOM     36  C   UNL     1       3.434   2.406  19.909  0.00  0.00    +0.000 A 
ATOM     37  C   UNL     1       4.475   3.195  19.418  0.00  0.00    +0.000 A 
ENDBRANCH  28  31
ENDBRANCH  26  28
ENDBRANCH  25  26
ENDBRANCH   4  25
TORSDOF 10
ENDMDL
MODEL 2
REMARK VINA RESULT:      -7.9      1.116      1.736
REMARK  Name = 
REMARK  11 active torsions:
REMARK  status: ('A' for Active; 'I' for Inactive)
REMARK    1  A    between atoms: C_1  and  O_2
REMARK    2  A    between atoms: O_2  and  C_3
REMARK    3  A    between atoms: C_8  and  C_9
REMARK    4  A    between atoms: C_9  and  N_10
REMARK    5  A    between atoms: C_11  and  C_13
REMARK    6  A    between atoms: C_13  and  N_14
REMARK    7  A    between atoms: C_15  and  C_17
REMARK    8  A    between atoms: C_20  and  C_21
REMARK    9  A    between atoms: C_21  and  N_22
REMARK   10  A    between atoms: N_22  and  S_23
REMARK   11  A    between atoms: S_23  and  C_26
REMARK                            x       y       z     vdW  Elec       q    Type
REMARK                         _______ _______ _______ _____ _____    ______ ____
ROOT
ATOM      1  C   UNL     1       1.655   8.604  20.172  0.00  0.00    +0.000 C 
ATOM      2  C   UNL     1       1.946   7.098  20.249  0.00  0.00    +0.000 C 
ATOM      3  C   UNL     1       3.147   6.702  19.387  0.00  0.00    +0.000 C 
ATOM      4  C   UNL     1       2.968   7.127  17.920  0.00  0.00    +0.000 C 
ATOM      5  C   UNL     1       2.647   8.628  17.837  0.00  0.00    +0.000 C 
ATOM      6  C   UNL     1       1.453   9.017  18.707  0.00  0.00    +0.000 C 
ENDROOT
BRANCH   1   8
ATOM      7  N   UNL     1       0.768   9.430  22.291  0.00  0.00    +0.000 N 
ATOM      8  C   UNL     1       0.444   8.993  21.027  0.00  0.00    +0.000 C 
ATOM      9  O   UNL     1      -0.719   8.918  20.643  0.00  0.00    +0.000 OA
ATOM     10  H   UNL     1       1.733   9.413  22.591  0.00  0.00    +0.000 HD
BRANCH   7  11
ATOM     11  C   UNL     1      -0.232   9.788  23.285  0.00  0.00    +0.000 C 
BRANCH  11  13
ATOM     12  N   UNL     1      -0.515  11.854  21.962  0.00  0.00    +0.000 N 
ATOM     13  C   UNL     1      -1.059  11.037  22.936  0.00  0.00    +0.000 C 
ATOM     14  O   UNL     1      -2.158  11.239  23.443  0.00  0.00    +0.000 OA
ATOM     15  H   UNL     1       0.293  11.505  21.453  0.00  0.00    +0.000 HD
BRANCH  12  16
ATOM     16  C   UNL     1      -1.265  12.961  21.397  0.00  0.00    +0.000 C 
BRANCH  16  22
ATOM     17  C   UNL     1      -1.563  12.023  19.018  0.00  0.00    +0.000 A 
ATOM     18  C   UNL     1      -2.420  11.561  18.007  0.00  0.00    +0.000 A 
ATOM     19  C   UNL     1      -3.801  11.679  18.133  0.00  0.00    +0.000 A 
ATOM     20  C   UNL     1      -4.343  12.220  19.292  0.00  0.00    +0.000 A 
ATOM     21  C   UNL     1      -3.503  12.620  20.329  0.00  0.00    +0.000 A 
ATOM     22  C   UNL     1      -2.103  12.531  20.213  0.00  0.00    +0.000 A 
BRANCH  17  24
ATOM     23  C   UNL     1       0.390  13.174  18.401  0.00  0.00    +0.000 C 
ATOM     24  O   UNL     1      -0.196  11.965  18.892  0.00  0.00    +0.000 OA
ENDBRANCH  17  24
ENDBRANCH  16  22
ENDBRANCH  12  16
ENDBRANCH  11  13
ENDBRANCH   7  11
ENDBRANCH   1   8
BRANCH   4  25
ATOM     25  C   UNL     1       4.213   6.817  17.068  0.00  0.00    +0.000 C 
BRANCH  25  26
ATOM     26  N   UNL     1       5.279   6.252  17.901  0.00  0.00    +0.000 NA
ATOM     27  H   UNL     1       5.244   6.412  18.908  0.00  0.00    +0.000 HD
BRANCH  26  28
ATOM     28  S   UNL     1       5.812   4.693  17.546  0.00  0.00    +0.000 S 
ATOM     29  O   UNL     1       5.836   4.590  16.104  0.00  0.00    +0.000 OA
ATOM     30  O   UNL     1       6.983   4.425  18.352  0.00  0.00    +0.000 OA
BRANCH  28  31
ATOM     31  C   UNL     1       4.468   3.690  18.127  0.00  0.00    +0.000 A 
ATOM     32  C   UNL     1       3.446   3.331  17.240  0.00  0.00    +0.000 A 
ATOM     33  C   UNL     1       2.386   2.549  17.699  0.00  0.00    +0.000 A 
ATOM     34  C   UNL     1       2.364   2.130  19.026  0.00  0.00    +0.000 A 
ATOM     35  F   UNL     1       1.341   1.386  19.466  0.00  0.00    +0.000 F 
ATOM     36  C   UNL     1       3.389   2.468  19.906  0.00  0.00    +0.000 A 
ATOM     37  C   UNL     1       4.453   3.251  19.457  0.00  0.00    +0.000 A 
ENDBRANCH  28  31
ENDBRANCH  26  28
ENDBRANCH  25  26
ENDBRANCH   4  25
TORSDOF 10
ENDMDL
MODEL 3
REMARK VINA RESULT:      -7.8      4.047      4.915
REMARK  Name = 
REMARK  11 active torsions:
REMARK  status: ('A' for Active; 'I' for Inactive)
REMARK    1  A    between atoms: C_1  and  O_2
REMARK    2  A    between atoms: O_2  and  C_3
REMARK    3  A    between atoms: C_8  and  C_9
REMARK    4  A    between atoms: C_9  and  N_10
REMARK    5  A    between atoms: C_11  and  C_13
REMARK    6  A    between atoms: C_13  and  N_14
REMARK    7  A    between atoms: C_15  and  C_17
REMARK    8  A    between atoms: C_20  and  C_21
REMARK    9  A    between atoms: C_21  and  N_22
REMARK   10  A    between atoms: N_22  and  S_23
REMARK   11  A    between atoms: S_23  and  C_26
REMARK                            x       y       z     vdW  Elec       q    Type
REMARK                         _______ _______ _______ _____ _____    ______ ____
ROOT
ATOM      1  C   UNL     1       2.215   7.174  18.793  0.00  0.00    +0.000 C 
ATOM      2  C   UNL     1       1.769   6.921  20.241  0.00  0.00    +0.000 C 
ATOM      3  C   UNL     1       2.014   5.473  20.670  0.00  0.00    +0.000 C 
ATOM      4  C   UNL     1       1.329   4.470  19.728  0.00  0.00    +0.000 C 
ATOM      5  C   UNL     1       1.747   4.736  18.273  0.00  0.00    +0.000 C 
ATOM      6  C   UNL     1       1.509   6.185  17.855  0.00  0.00    +0.000 C 
ENDROOT
BRANCH   1   8
ATOM      7  N   UNL     1       1.091   9.305  19.188  0.00  0.00    +0.000 N 
ATOM      8  C   UNL     1       1.956   8.623  18.364  0.00  0.00    +0.000 C 
ATOM      9  O   UNL     1       2.456   9.143  17.371  0.00  0.00    +0.000 OA
ATOM     10  H   UNL     1       0.649   8.820  19.957  0.00  0.00    +0.000 HD
BRANCH   7  11
ATOM     11  C   UNL     1       0.661  10.671  18.927  0.00  0.00    +0.000 C 
BRANCH  11  13
ATOM     12  N   UNL     1       2.134  12.652  18.863  0.00  0.00    +0.000 N 
ATOM     13  C   UNL     1       1.469  11.747  19.670  0.00  0.00    +0.000 C 
ATOM     14  O   UNL     1       1.453  11.828  20.895  0.00  0.00    +0.000 OA
ATOM     15  H   UNL     1       1.927  12.634  17.868  0.00  0.00    +0.000 HD
BRANCH  12  16
ATOM     16  C   UNL     1       2.779  13.829  19.415  0.00  0.00    +0.000 C 
BRANCH  16  22
ATOM     17  C   UNL     1       1.044  15.668  18.936  0.00  0.00    +0.000 A 
ATOM     18  C   UNL     1       0.732  16.901  18.339  0.00  0.00    +0.000 A 
ATOM     19  C   UNL     1       1.633  17.527  17.483  0.00  0.00    +0.000 A 
ATOM     20  C   UNL     1       2.875  16.950  17.248  0.00  0.00    +0.000 A 
ATOM     21  C   UNL     1       3.220  15.761  17.888  0.00  0.00    +0.000 A 
ATOM     22  C   UNL     1       2.315  15.099  18.739  0.00  0.00    +0.000 A 
BRANCH  17  24
ATOM     23  C   UNL     1      -0.862  15.852  20.297  0.00  0.00    +0.000 C 
ATOM     24  O   UNL     1       0.150  15.007  19.742  0.00  0.00    +0.000 OA
ENDBRANCH  17  24
ENDBRANCH  16  22
ENDBRANCH  12  16
ENDBRANCH  11  13
ENDBRANCH   7  11
ENDBRANCH   1   8
BRANCH   4  25
ATOM     25  C   UNL     1       1.651   3.010  20.100  0.00  0.00    +0.000 C 
BRANCH  25  26
ATOM     26  N   UNL     1       3.029   2.894  20.586  0.00  0.00    +0.000 NA
ATOM     27  H   UNL     1       3.179   2.617  21.556  0.00  0.00    +0.000 HD
BRANCH  26  28
ATOM     28  S   UNL     1       4.167   2.187  19.562  0.00  0.00    +0.000 S 
ATOM     29  O   UNL     1       5.261   1.760  20.404  0.00  0.00    +0.000 OA
ATOM     30  O   UNL     1       3.471   1.270  18.686  0.00  0.00    +0.000 OA
BRANCH  28  31
ATOM     31  C   UNL     1       4.737   3.574  18.613  0.00  0.00    +0.000 A 
ATOM     32  C   UNL     1       4.620   3.544  17.218  0.00  0.00    +0.000 A 
ATOM     33  C   UNL     1       5.076   4.631  16.471  0.00  0.00    +0.000 A 
ATOM     34  C   UNL     1       5.628   5.731  17.122  0.00  0.00    +0.000 A 
ATOM     35  F   UNL     1       6.071   6.769  16.403  0.00  0.00    +0.000 F 
ATOM     36  C   UNL     1       5.726   5.772  18.510  0.00  0.00    +0.000 A 
ATOM     37  C   UNL     1       5.275   4.689  19.266  0.00  0.00    +0.000 A 
ENDBRANCH  28  31
ENDBRANCH  26  28
ENDBRANCH  25  26
ENDBRANCH   4  25
TORSDOF 10
ENDMDL
MODEL 4
REMARK VINA RESULT:      -7.8      3.072      4.137
REMARK  Name = 
REMARK  11 active torsions:
REMARK  status: ('A' for Active; 'I' for Inactive)
REMARK    1  A    between atoms: C_1  and  O_2
REMARK    2  A    between atoms: O_2  and  C_3
REMARK    3  A    between atoms: C_8  and  C_9
REMARK    4  A    between atoms: C_9  and  N_10
REMARK    5  A    between atoms: C_11  and  C_13
REMARK    6  A    between atoms: C_13  and  N_14
REMARK    7  A    between atoms: C_15  and  C_17
REMARK    8  A    between atoms: C_20  and  C_21
REMARK    9  A    between atoms: C_21  and  N_22
REMARK   10  A    between atoms: N_22  and  S_23
REMARK   11  A    between atoms: S_23  and  C_26
REMARK                            x       y       z     vdW  Elec       q    Type
REMARK                         _______ _______ _______ _____ _____    ______ ____
ROOT
ATOM      1  C   UNL     1       2.272   7.050  18.762  0.00  0.00    +0.000 C 
ATOM      2  C   UNL     1       1.862   6.714  20.203  0.00  0.00    +0.000 C 
ATOM      3  C   UNL     1       2.085   5.236  20.531  0.00  0.00    +0.000 C 
ATOM      4  C   UNL     1       1.351   4.310  19.547  0.00  0.00    +0.000 C 
ATOM      5  C   UNL     1       1.734   4.661  18.100  0.00  0.00    +0.000 C 
ATOM      6  C   UNL     1       1.518   6.140  17.783  0.00  0.00    +0.000 C 
ENDROOT
BRANCH   1   8
ATOM      7  N   UNL     1       1.413   9.233  19.440  0.00  0.00    +0.000 N 
ATOM      8  C   UNL     1       2.035   8.529  18.434  0.00  0.00    +0.000 C 
ATOM      9  O   UNL     1       2.353   9.055  17.372  0.00  0.00    +0.000 OA
ATOM     10  H   UNL     1       1.107   8.746  20.272  0.00  0.00    +0.000 HD
BRANCH   7  11
ATOM     11  C   UNL     1       1.037  10.633  19.311  0.00  0.00    +0.000 C 
BRANCH  11  13
ATOM     12  N   UNL     1       0.417  12.674  20.555  0.00  0.00    +0.000 N 
ATOM     13  C   UNL     1       0.903  11.382  20.647  0.00  0.00    +0.000 C 
ATOM     14  O   UNL     1       1.143  10.832  21.717  0.00  0.00    +0.000 OA
ATOM     15  H   UNL     1       0.052  12.976  19.656  0.00  0.00    +0.000 HD
BRANCH  12  16
ATOM     16  C   UNL     1       0.059  13.434  21.739  0.00  0.00    +0.000 C 
BRANCH  16  22
ATOM     17  C   UNL     1      -2.437  13.962  21.400  0.00  0.00    +0.000 A 
ATOM     18  C   UNL     1      -3.776  13.697  21.726  0.00  0.00    +0.000 A 
ATOM     19  C   UNL     1      -4.100  12.843  22.777  0.00  0.00    +0.000 A 
ATOM     20  C   UNL     1      -3.087  12.209  23.485  0.00  0.00    +0.000 A 
ATOM     21  C   UNL     1      -1.756  12.414  23.126  0.00  0.00    +0.000 A 
ATOM     22  C   UNL     1      -1.406  13.291  22.082  0.00  0.00    +0.000 A 
BRANCH  17  24
ATOM     23  C   UNL     1      -2.311  16.215  20.744  0.00  0.00    +0.000 C 
ATOM     24  O   UNL     1      -2.094  14.843  20.402  0.00  0.00    +0.000 OA
ENDBRANCH  17  24
ENDBRANCH  16  22
ENDBRANCH  12  16
ENDBRANCH  11  13
ENDBRANCH   7  11
ENDBRANCH   1   8
BRANCH   4  25
ATOM     25  C   UNL     1       1.649   2.823  19.814  0.00  0.00    +0.000 C 
BRANCH  25  26
ATOM     26  N   UNL     1       2.962   2.667  20.447  0.00  0.00    +0.000 NA
ATOM     27  H   UNL     1       3.000   2.310  21.403  0.00  0.00    +0.000 HD
BRANCH  26  28
ATOM     28  S   UNL     1       4.218   2.046  19.510  0.00  0.00    +0.000 S 
ATOM     29  O   UNL     1       5.279   1.701  20.429  0.00  0.00    +0.000 OA
ATOM     30  O   UNL     1       3.655   1.080  18.592  0.00  0.00    +0.000 OA
BRANCH  28  31
ATOM     31  C   UNL     1       4.749   3.471  18.596  0.00  0.00    +0.000 A 
ATOM     32  C   UNL     1       5.304   4.558  19.282  0.00  0.00    +0.000 A 
ATOM     33  C   UNL     1       5.715   5.682  18.564  0.00  0.00    +0.000 A 
ATOM     34  C   UNL     1       5.578   5.702  17.179  0.00  0.00    +0.000 A 
ATOM     35  F   UNL     1       5.966   6.784  16.493  0.00  0.00    +0.000 F 
ATOM     36  C   UNL     1       5.046   4.614  16.492  0.00  0.00    +0.000 A 
ATOM     37  C   UNL     1       4.631   3.486  17.201  0.00  0.00    +0.000 A 
ENDBRANCH  28  31
ENDBRANCH  26  28
ENDBRANCH  25  26
ENDBRANCH   4  25
TORSDOF 10
ENDMDL
MODEL 5
REMARK VINA RESULT:      -7.8      2.820      4.141
REMARK  Name = 
REMARK  11 active torsions:
REMARK  status: ('A' for Active; 'I' for Inactive)
REMARK    1  A    between atoms: C_1  and  O_2
REMARK    2  A    between atoms: O_2  and  C_3
REMARK    3  A    between atoms: C_8  and  C_9
REMARK    4  A    between atoms: C_9  and  N_10
REMARK    5  A    between atoms: C_11  and  C_13
REMARK    6  A    between atoms: C_13  and  N_14
REMARK    7  A    between atoms: C_15  and  C_17
REMARK    8  A    between atoms: C_20  and  C_21
REMARK    9  A    between atoms: C_21  and  N_22
REMARK   10  A    between atoms: N_22  and  S_23
REMARK   11  A    between atoms: S_23  and  C_26
REMARK                            x       y       z     vdW  Elec       q    Type
REMARK                         _______ _______ _______ _____ _____    ______ ____
ROOT
ATOM      1  C   UNL     1       1.442   9.533  19.389  0.00  0.00    +0.000 C 
ATOM      2  C   UNL     1       1.009   8.583  20.515  0.00  0.00    +0.000 C 
ATOM      3  C   UNL     1       1.920   7.358  20.611  0.00  0.00    +0.000 C 
ATOM      4  C   UNL     1       1.997   6.592  19.281  0.00  0.00    +0.000 C 
ATOM      5  C   UNL     1       2.402   7.543  18.142  0.00  0.00    +0.000 C 
ATOM      6  C   UNL     1       1.495   8.769  18.059  0.00  0.00    +0.000 C 
ENDROOT
BRANCH   1   8
ATOM      7  N   UNL     1      -0.350  10.712  18.223  0.00  0.00    +0.000 N 
ATOM      8  C   UNL     1       0.520  10.754  19.288  0.00  0.00    +0.000 C 
ATOM      9  O   UNL     1       0.547  11.699  20.070  0.00  0.00    +0.000 OA
ATOM     10  H   UNL     1      -0.294   9.947  17.564  0.00  0.00    +0.000 HD
BRANCH   7  11
ATOM     11  C   UNL     1      -1.266  11.797  17.907  0.00  0.00    +0.000 C 
BRANCH  11  13
ATOM     12  N   UNL     1      -3.021  12.543  19.477  0.00  0.00    +0.000 N 
ATOM     13  C   UNL     1      -2.678  11.631  18.495  0.00  0.00    +0.000 C 
ATOM     14  O   UNL     1      -3.458  10.791  18.059  0.00  0.00    +0.000 OA
ATOM     15  H   UNL     1      -2.393  13.327  19.631  0.00  0.00    +0.000 HD
BRANCH  12  16
ATOM     16  C   UNL     1      -4.377  12.630  19.988  0.00  0.00    +0.000 C 
BRANCH  16  22
ATOM     17  C   UNL     1      -5.596  12.754  22.252  0.00  0.00    +0.000 A 
ATOM     18  C   UNL     1      -5.534  12.721  23.654  0.00  0.00    +0.000 A 
ATOM     19  C   UNL     1      -4.308  12.720  24.314  0.00  0.00    +0.000 A 
ATOM     20  C   UNL     1      -3.130  12.709  23.579  0.00  0.00    +0.000 A 
ATOM     21  C   UNL     1      -3.181  12.675  22.186  0.00  0.00    +0.000 A 
ATOM     22  C   UNL     1      -4.409  12.698  21.498  0.00  0.00    +0.000 A 
BRANCH  17  24
ATOM     23  C   UNL     1      -7.916  13.082  22.424  0.00  0.00    +0.000 C 
ATOM     24  O   UNL     1      -6.794  12.809  21.581  0.00  0.00    +0.000 OA
ENDBRANCH  17  24
ENDBRANCH  16  22
ENDBRANCH  12  16
ENDBRANCH  11  13
ENDBRANCH   7  11
ENDBRANCH   1   8
BRANCH   4  25
ATOM     25  C   UNL     1       2.986   5.412  19.345  0.00  0.00    +0.000 C 
BRANCH  25  26
ATOM     26  N   UNL     1       4.360   5.881  19.138  0.00  0.00    +0.000 NA
ATOM     27  H   UNL     1       4.667   6.718  19.633  0.00  0.00    +0.000 HD
BRANCH  26  28
ATOM     28  S   UNL     1       5.584   4.723  19.074  0.00  0.00    +0.000 S 
ATOM     29  O   UNL     1       6.738   5.316  19.710  0.00  0.00    +0.000 OA
ATOM     30  O   UNL     1       5.030   3.461  19.514  0.00  0.00    +0.000 OA
BRANCH  28  31
ATOM     31  C   UNL     1       5.926   4.629  17.335  0.00  0.00    +0.000 A 
ATOM     32  C   UNL     1       4.947   4.129  16.468  0.00  0.00    +0.000 A 
ATOM     33  C   UNL     1       5.219   4.048  15.102  0.00  0.00    +0.000 A 
ATOM     34  C   UNL     1       6.453   4.474  14.620  0.00  0.00    +0.000 A 
ATOM     35  F   UNL     1       6.715   4.388  13.310  0.00  0.00    +0.000 F 
ATOM     36  C   UNL     1       7.422   4.991  15.476  0.00  0.00    +0.000 A 
ATOM     37  C   UNL     1       7.160   5.074  16.844  0.00  0.00    +0.000 A 
ENDBRANCH  28  31
ENDBRANCH  26  28
ENDBRANCH  25  26
ENDBRANCH   4  25
TORSDOF 10
ENDMDL
MODEL 6
REMARK VINA RESULT:      -7.8      2.692      3.913
REMARK  Name = 
REMARK  11 active torsions:
REMARK  status: ('A' for Active; 'I' for Inactive)
REMARK    1  A    between atoms: C_1  and  O_2
REMARK    2  A    between atoms: O_2  and  C_3
REMARK    3  A    between atoms: C_8  and  C_9
REMARK    4  A    between atoms: C_9  and  N_10
REMARK    5  A    between atoms: C_11  and  C_13
REMARK    6  A    between atoms: C_13  and  N_14
REMARK    7  A    between atoms: C_15  and  C_17
REMARK    8  A    between atoms: C_20  and  C_21
REMARK    9  A    between atoms: C_21  and  N_22
REMARK   10  A    between atoms: N_22  and  S_23
REMARK   11  A    between atoms: S_23  and  C_26
REMARK                            x       y       z     vdW  Elec       q    Type
REMARK                         _______ _______ _______ _____ _____    ______ ____
ROOT
ATOM      1  C   UNL     1       0.989   9.204  19.251  0.00  0.00    +0.000 C 
ATOM      2  C   UNL     1       2.112   8.805  18.282  0.00  0.00    +0.000 C 
ATOM      3  C   UNL     1       2.359   7.295  18.282  0.00  0.00    +0.000 C 
ATOM      4  C   UNL     1       2.669   6.763  19.691  0.00  0.00    +0.000 C 
ATOM      5  C   UNL     1       1.564   7.183  20.674  0.00  0.00    +0.000 C 
ATOM      6  C   UNL     1       1.316   8.690  20.661  0.00  0.00    +0.000 C 
ENDROOT
BRANCH   1   8
ATOM      7  N   UNL     1      -0.211  11.132  20.147  0.00  0.00    +0.000 N 
ATOM      8  C   UNL     1       0.753  10.718  19.257  0.00  0.00    +0.000 C 
ATOM      9  O   UNL     1       1.352  11.507  18.532  0.00  0.00    +0.000 OA
ATOM     10  H   UNL     1      -0.727  10.443  20.676  0.00  0.00    +0.000 HD
BRANCH   7  11
ATOM     11  C   UNL     1      -0.635  12.519  20.266  0.00  0.00    +0.000 C 
BRANCH  11  13
ATOM     12  N   UNL     1      -2.952  13.361  20.117  0.00  0.00    +0.000 N 
ATOM     13  C   UNL     1      -2.021  12.709  20.904  0.00  0.00    +0.000 C 
ATOM     14  O   UNL     1      -2.288  12.240  22.007  0.00  0.00    +0.000 OA
ATOM     15  H   UNL     1      -2.708  13.531  19.144  0.00  0.00    +0.000 HD
BRANCH  12  16
ATOM     16  C   UNL     1      -4.348  13.446  20.506  0.00  0.00    +0.000 C 
BRANCH  16  22
ATOM     17  C   UNL     1      -4.842  11.683  18.697  0.00  0.00    +0.000 A 
ATOM     18  C   UNL     1      -5.616  10.598  18.255  0.00  0.00    +0.000 A 
ATOM     19  C   UNL     1      -6.761  10.211  18.945  0.00  0.00    +0.000 A 
ATOM     20  C   UNL     1      -7.121  10.876  20.110  0.00  0.00    +0.000 A 
ATOM     21  C   UNL     1      -6.323  11.911  20.593  0.00  0.00    +0.000 A 
ATOM     22  C   UNL     1      -5.173  12.334  19.899  0.00  0.00    +0.000 A 
BRANCH  17  24
ATOM     23  C   UNL     1      -2.948  11.057  17.455  0.00  0.00    +0.000 C 
ATOM     24  O   UNL     1      -3.738  12.117  18.002  0.00  0.00    +0.000 OA
ENDBRANCH  17  24
ENDBRANCH  16  22
ENDBRANCH  12  16
ENDBRANCH  11  13
ENDBRANCH   7  11
ENDBRANCH   1   8
BRANCH   4  25
ATOM     25  C   UNL     1       2.825   5.230  19.712  0.00  0.00    +0.000 C 
BRANCH  25  26
ATOM     26  N   UNL     1       3.195   4.731  18.384  0.00  0.00    +0.000 NA
ATOM     27  H   UNL     1       2.991   5.315  17.573  0.00  0.00    +0.000 HD
BRANCH  26  28
ATOM     28  S   UNL     1       4.682   3.955  18.223  0.00  0.00    +0.000 S 
ATOM     29  O   UNL     1       4.951   3.322  19.495  0.00  0.00    +0.000 OA
ATOM     30  O   UNL     1       4.665   3.208  16.984  0.00  0.00    +0.000 OA
BRANCH  28  31
ATOM     31  C   UNL     1       5.807   5.318  18.060  0.00  0.00    +0.000 A 
ATOM     32  C   UNL     1       5.506   6.353  17.166  0.00  0.00    +0.000 A 
ATOM     33  C   UNL     1       6.394   7.421  17.032  0.00  0.00    +0.000 A 
ATOM     34  C   UNL     1       7.558   7.448  17.795  0.00  0.00    +0.000 A 
ATOM     35  F   UNL     1       8.411   8.470  17.660  0.00  0.00    +0.000 F 
ATOM     36  C   UNL     1       7.849   6.431  18.701  0.00  0.00    +0.000 A 
ATOM     37  C   UNL     1       6.969   5.358  18.840  0.00  0.00    +0.000 A 
ENDBRANCH  28  31
ENDBRANCH  26  28
ENDBRANCH  25  26
ENDBRANCH   4  25
TORSDOF 10
ENDMDL
MODEL 7
REMARK VINA RESULT:      -7.8      3.002      4.365
REMARK  Name = 
REMARK  11 active torsions:
REMARK  status: ('A' for Active; 'I' for Inactive)
REMARK    1  A    between atoms: C_1  and  O_2
REMARK    2  A    between atoms: O_2  and  C_3
REMARK    3  A    between atoms: C_8  and  C_9
REMARK    4  A    between atoms: C_9  and  N_10
REMARK    5  A    between atoms: C_11  and  C_13
REMARK    6  A    between atoms: C_13  and  N_14
REMARK    7  A    between atoms: C_15  and  C_17
REMARK    8  A    between atoms: C_20  and  C_21
REMARK    9  A    between atoms: C_21  and  N_22
REMARK   10  A    between atoms: N_22  and  S_23
REMARK   11  A    between atoms: S_23  and  C_26
REMARK                            x       y       z     vdW  Elec       q    Type
REMARK                         _______ _______ _______ _____ _____    ______ ____
ROOT
ATOM      1  C   UNL     1       1.652   9.925  18.976  0.00  0.00    +0.000 C 
ATOM      2  C   UNL     1       1.015   8.983  20.008  0.00  0.00    +0.000 C 
ATOM      3  C   UNL     1       1.906   7.774  20.305  0.00  0.00    +0.000 C 
ATOM      4  C   UNL     1       2.260   6.992  19.029  0.00  0.00    +0.000 C 
ATOM      5  C   UNL     1       2.871   7.935  17.980  0.00  0.00    +0.000 C 
ATOM      6  C   UNL     1       1.981   9.144  17.696  0.00  0.00    +0.000 C 
ENDROOT
BRANCH   1   8
ATOM      7  N   UNL     1      -0.503  10.788  18.218  0.00  0.00    +0.000 N 
ATOM      8  C   UNL     1       0.751  11.128  18.673  0.00  0.00    +0.000 C 
ATOM      9  O   UNL     1       1.100  12.297  18.806  0.00  0.00    +0.000 OA
ATOM     10  H   UNL     1      -0.727   9.815  18.059  0.00  0.00    +0.000 HD
BRANCH   7  11
ATOM     11  C   UNL     1      -1.491  11.775  17.812  0.00  0.00    +0.000 C 
BRANCH  11  13
ATOM     12  N   UNL     1      -3.143  12.578  19.463  0.00  0.00    +0.000 N 
ATOM     13  C   UNL     1      -2.859  11.627  18.500  0.00  0.00    +0.000 C 
ATOM     14  O   UNL     1      -3.661  10.766  18.152  0.00  0.00    +0.000 OA
ATOM     15  H   UNL     1      -2.512  13.371  19.541  0.00  0.00    +0.000 HD
BRANCH  12  16
ATOM     16  C   UNL     1      -4.462  12.681  20.060  0.00  0.00    +0.000 C 
BRANCH  16  22
ATOM     17  C   UNL     1      -5.519  12.954  22.390  0.00  0.00    +0.000 A 
ATOM     18  C   UNL     1      -5.383  12.895  23.787  0.00  0.00    +0.000 A 
ATOM     19  C   UNL     1      -4.134  12.710  24.374  0.00  0.00    +0.000 A 
ATOM     20  C   UNL     1      -3.014  12.537  23.571  0.00  0.00    +0.000 A 
ATOM     21  C   UNL     1      -3.149  12.527  22.185  0.00  0.00    +0.000 A 
ATOM     22  C   UNL     1      -4.398  12.735  21.569  0.00  0.00    +0.000 A 
BRANCH  17  24
ATOM     23  C   UNL     1      -7.669  12.118  21.944  0.00  0.00    +0.000 C 
ATOM     24  O   UNL     1      -6.733  13.189  21.790  0.00  0.00    +0.000 OA
ENDBRANCH  17  24
ENDBRANCH  16  22
ENDBRANCH  12  16
ENDBRANCH  11  13
ENDBRANCH   7  11
ENDBRANCH   1   8
BRANCH   4  25
ATOM     25  C   UNL     1       3.233   5.831  19.310  0.00  0.00    +0.000 C 
BRANCH  25  26
ATOM     26  N   UNL     1       3.074   4.773  18.308  0.00  0.00    +0.000 NA
ATOM     27  H   UNL     1       2.786   5.037  17.365  0.00  0.00    +0.000 HD
BRANCH  26  28
ATOM     28  S   UNL     1       4.225   3.542  18.275  0.00  0.00    +0.000 S 
ATOM     29  O   UNL     1       4.971   3.650  19.509  0.00  0.00    +0.000 OA
ATOM     30  O   UNL     1       3.559   2.318  17.887  0.00  0.00    +0.000 OA
BRANCH  28  31
ATOM     31  C   UNL     1       5.297   4.059  16.959  0.00  0.00    +0.000 A 
ATOM     32  C   UNL     1       6.508   4.690  17.269  0.00  0.00    +0.000 A 
ATOM     33  C   UNL     1       7.348   5.104  16.235  0.00  0.00    +0.000 A 
ATOM     34  C   UNL     1       6.976   4.875  14.913  0.00  0.00    +0.000 A 
ATOM     35  F   UNL     1       7.780   5.279  13.922  0.00  0.00    +0.000 F 
ATOM     36  C   UNL     1       5.782   4.229  14.602  0.00  0.00    +0.000 A 
ATOM     37  C   UNL     1       4.935   3.813  15.629  0.00  0.00    +0.000 A 
ENDBRANCH  28  31
ENDBRANCH  26  28
ENDBRANCH  25  26
ENDBRANCH   4  25
TORSDOF 10
ENDMDL
MODEL 8
REMARK VINA RESULT:      -7.7      2.566      3.417
REMARK  Name = 
REMARK  11 active torsions:
REMARK  status: ('A' for Active; 'I' for Inactive)
REMARK    1  A    between atoms: C_1  and  O_2
REMARK    2  A    between atoms: O_2  and  C_3
REMARK    3  A    between atoms: C_8  and  C_9
REMARK    4  A    between atoms: C_9  and  N_10
REMARK    5  A    between atoms: C_11  and  C_13
REMARK    6  A    between atoms: C_13  and  N_14
REMARK    7  A    between atoms: C_15  and  C_17
REMARK    8  A    between atoms: C_20  and  C_21
REMARK    9  A    between atoms: C_21  and  N_22
REMARK   10  A    between atoms: N_22  and  S_23
REMARK   11  A    between atoms: S_23  and  C_26
REMARK                            x       y       z     vdW  Elec       q    Type
REMARK                         _______ _______ _______ _____ _____    ______ ____
ROOT
ATOM      1  C   UNL     1       0.709   9.271  20.395  0.00  0.00    +0.000 C 
ATOM      2  C   UNL     1       1.462   9.803  19.167  0.00  0.00    +0.000 C 
ATOM      3  C   UNL     1       1.778   8.691  18.164  0.00  0.00    +0.000 C 
ATOM      4  C   UNL     1       2.572   7.543  18.808  0.00  0.00    +0.000 C 
ATOM      5  C   UNL     1       1.838   7.025  20.056  0.00  0.00    +0.000 C 
ATOM      6  C   UNL     1       1.517   8.141  21.048  0.00  0.00    +0.000 C 
ENDROOT
BRANCH   1   8
ATOM      7  N   UNL     1      -0.614  10.087  22.278  0.00  0.00    +0.000 N 
ATOM      8  C   UNL     1       0.405  10.386  21.402  0.00  0.00    +0.000 C 
ATOM      9  O   UNL     1       0.997  11.460  21.435  0.00  0.00    +0.000 OA
ATOM     10  H   UNL     1      -1.121   9.219  22.174  0.00  0.00    +0.000 HD
BRANCH   7  11
ATOM     11  C   UNL     1      -1.105  11.030  23.271  0.00  0.00    +0.000 C 
BRANCH  11  13
ATOM     12  N   UNL     1      -2.026  12.651  21.652  0.00  0.00    +0.000 N 
ATOM     13  C   UNL     1      -2.273  11.910  22.793  0.00  0.00    +0.000 C 
ATOM     14  O   UNL     1      -3.364  11.885  23.353  0.00  0.00    +0.000 OA
ATOM     15  H   UNL     1      -1.170  12.455  21.139  0.00  0.00    +0.000 HD
BRANCH  12  16
ATOM     16  C   UNL     1      -3.086  13.377  20.977  0.00  0.00    +0.000 C 
BRANCH  16  22
ATOM     17  C   UNL     1      -2.912  11.844  18.918  0.00  0.00    +0.000 A 
ATOM     18  C   UNL     1      -3.553  11.060  17.945  0.00  0.00    +0.000 A 
ATOM     19  C   UNL     1      -4.939  11.072  17.818  0.00  0.00    +0.000 A 
ATOM     20  C   UNL     1      -5.704  11.834  18.693  0.00  0.00    +0.000 A 
ATOM     21  C   UNL     1      -5.081  12.563  19.704  0.00  0.00    +0.000 A 
ATOM     22  C   UNL     1      -3.680  12.583  19.835  0.00  0.00    +0.000 A 
BRANCH  17  24
ATOM     23  C   UNL     1      -0.909  12.669  18.009  0.00  0.00    +0.000 C 
ATOM     24  O   UNL     1      -1.543  11.888  19.026  0.00  0.00    +0.000 OA
ENDBRANCH  17  24
ENDBRANCH  16  22
ENDBRANCH  12  16
ENDBRANCH  11  13
ENDBRANCH   7  11
ENDBRANCH   1   8
BRANCH   4  25
ATOM     25  C   UNL     1       2.810   6.379  17.828  0.00  0.00    +0.000 C 
BRANCH  25  26
ATOM     26  N   UNL     1       2.896   5.106  18.551  0.00  0.00    +0.000 NA
ATOM     27  H   UNL     1       2.265   4.351  18.281  0.00  0.00    +0.000 HD
BRANCH  26  28
ATOM     28  S   UNL     1       4.430   4.519  18.930  0.00  0.00    +0.000 S 
ATOM     29  O   UNL     1       5.012   5.466  19.853  0.00  0.00    +0.000 OA
ATOM     30  O   UNL     1       4.304   3.114  19.251  0.00  0.00    +0.000 OA
BRANCH  28  31
ATOM     31  C   UNL     1       5.291   4.684  17.386  0.00  0.00    +0.000 A 
ATOM     32  C   UNL     1       6.412   5.519  17.312  0.00  0.00    +0.000 A 
ATOM     33  C   UNL     1       7.084   5.655  16.097  0.00  0.00    +0.000 A 
ATOM     34  C   UNL     1       6.638   4.952  14.982  0.00  0.00    +0.000 A 
ATOM     35  F   UNL     1       7.280   5.090  13.815  0.00  0.00    +0.000 F 
ATOM     36  C   UNL     1       5.536   4.105  15.057  0.00  0.00    +0.000 A 
ATOM     37  C   UNL     1       4.856   3.964  16.267  0.00  0.00    +0.000 A 
ENDBRANCH  28  31
ENDBRANCH  26  28
ENDBRANCH  25  26
ENDBRANCH   4  25
TORSDOF 10
ENDMDL
MODEL 9
REMARK VINA RESULT:      -7.6      2.884      4.030
REMARK  Name = 
REMARK  11 active torsions:
REMARK  status: ('A' for Active; 'I' for Inactive)
REMARK    1  A    between atoms: C_1  and  O_2
REMARK    2  A    between atoms: O_2  and  C_3
REMARK    3  A    between atoms: C_8  and  C_9
REMARK    4  A    between atoms: C_9  and  N_10
REMARK    5  A    between atoms: C_11  and  C_13
REMARK    6  A    between atoms: C_13  and  N_14
REMARK    7  A    between atoms: C_15  and  C_17
REMARK    8  A    between atoms: C_20  and  C_21
REMARK    9  A    between atoms: C_21  and  N_22
REMARK   10  A    between atoms: N_22  and  S_23
REMARK   11  A    between atoms: S_23  and  C_26
REMARK                            x       y       z     vdW  Elec       q    Type
REMARK                         _______ _______ _______ _____ _____    ______ ____
ROOT
ATOM      1  C   UNL     1       1.121   9.380  19.223  0.00  0.00    +0.000 C 
ATOM      2  C   UNL     1       2.211   9.135  18.169  0.00  0.00    +0.000 C 
ATOM      3  C   UNL     1       2.433   7.642  17.913  0.00  0.00    +0.000 C 
ATOM      4  C   UNL     1       2.773   6.881  19.205  0.00  0.00    +0.000 C 
ATOM      5  C   UNL     1       1.702   7.145  20.275  0.00  0.00    +0.000 C 
ATOM      6  C   UNL     1       1.478   8.636  20.518  0.00  0.00    +0.000 C 
ENDROOT
BRANCH   1   8
ATOM      7  N   UNL     1       0.339  11.553  18.433  0.00  0.00    +0.000 N 
ATOM      8  C   UNL     1       0.910  10.875  19.485  0.00  0.00    +0.000 C 
ATOM      9  O   UNL     1       1.226  11.440  20.528  0.00  0.00    +0.000 OA
ATOM     10  H   UNL     1       0.156  11.064  17.567  0.00  0.00    +0.000 HD
BRANCH   7  11
ATOM     11  C   UNL     1       0.111  12.990  18.448  0.00  0.00    +0.000 C 
BRANCH  11  13
ATOM     12  N   UNL     1      -2.188  12.653  19.285  0.00  0.00    +0.000 N 
ATOM     13  C   UNL     1      -1.053  13.441  19.346  0.00  0.00    +0.000 C 
ATOM     14  O   UNL     1      -0.939  14.391  20.114  0.00  0.00    +0.000 OA
ATOM     15  H   UNL     1      -2.123  11.773  18.780  0.00  0.00    +0.000 HD
BRANCH  12  16
ATOM     16  C   UNL     1      -3.292  12.841  20.209  0.00  0.00    +0.000 C 
BRANCH  16  22
ATOM     17  C   UNL     1      -4.725  11.758  18.366  0.00  0.00    +0.000 A 
ATOM     18  C   UNL     1      -5.972  11.271  17.944  0.00  0.00    +0.000 A 
ATOM     19  C   UNL     1      -7.114  11.467  18.716  0.00  0.00    +0.000 A 
ATOM     20  C   UNL     1      -7.013  12.113  19.941  0.00  0.00    +0.000 A 
ATOM     21  C   UNL     1      -5.769  12.541  20.400  0.00  0.00    +0.000 A 
ATOM     22  C   UNL     1      -4.606  12.374  19.625  0.00  0.00    +0.000 A 
BRANCH  17  24
ATOM     23  C   UNL     1      -3.637  10.506  16.702  0.00  0.00    +0.000 C 
ATOM     24  O   UNL     1      -3.596  11.623  17.595  0.00  0.00    +0.000 OA
ENDBRANCH  17  24
ENDBRANCH  16  22
ENDBRANCH  12  16
ENDBRANCH  11  13
ENDBRANCH   7  11
ENDBRANCH   1   8
BRANCH   4  25
ATOM     25  C   UNL     1       2.904   5.364  18.969  0.00  0.00    +0.000 C 
BRANCH  25  26
ATOM     26  N   UNL     1       3.179   5.085  17.556  0.00  0.00    +0.000 NA
ATOM     27  H   UNL     1       3.003   5.822  16.873  0.00  0.00    +0.000 HD
BRANCH  26  28
ATOM     28  S   UNL     1       4.580   4.224  17.183  0.00  0.00    +0.000 S 
ATOM     29  O   UNL     1       4.624   3.104  18.096  0.00  0.00    +0.000 OA
ATOM     30  O   UNL     1       4.626   4.046  15.748  0.00  0.00    +0.000 OA
BRANCH  28  31
ATOM     31  C   UNL     1       5.860   5.354  17.667  0.00  0.00    +0.000 A 
ATOM     32  C   UNL     1       6.014   6.557  16.967  0.00  0.00    +0.000 A 
ATOM     33  C   UNL     1       7.026   7.441  17.342  0.00  0.00    +0.000 A 
ATOM     34  C   UNL     1       7.858   7.122  18.411  0.00  0.00    +0.000 A 
ATOM     35  F   UNL     1       8.832   7.969  18.765  0.00  0.00    +0.000 F 
ATOM     36  C   UNL     1       7.693   5.936  19.123  0.00  0.00    +0.000 A 
ATOM     37  C   UNL     1       6.686   5.044  18.754  0.00  0.00    +0.000 A 
ENDBRANCH  28  31
ENDBRANCH  26  28
ENDBRANCH  25  26
ENDBRANCH   4  25
TORSDOF 10
ENDMDL
