MODEL 1
REMARK VINA RESULT:      -8.0      0.000      0.000
REMARK  Name = 
REMARK  10 active torsions:
REMARK  status: ('A' for Active; 'I' for Inactive)
REMARK    1  A    between atoms: C_1  and  O_2
REMARK    2  A    between atoms: O_2  and  C_3
REMARK    3  A    between atoms: C_5  and  C_6
REMARK    4  A    between atoms: C_7  and  C_8
REMARK    5  A    between atoms: C_8  and  O_9
REMARK    6  A    between atoms: C_15  and  C_16
REMARK    7  A    between atoms: C_19  and  O_20
REMARK    8  A    between atoms: C_21  and  O_22
REMARK    9  A    between atoms: O_22  and  C_23
REMARK   10  A    between atoms: C_29  and  O_30
REMARK                            x       y       z     vdW  Elec       q    Type
REMARK                         _______ _______ _______ _____ _____    ______ ____
ROOT
ATOM      1  C   UNL     1      -0.425  10.182  18.707  0.00  0.00    +0.000 C 
ATOM      2  C   UNL     1       0.626   9.552  19.270  0.00  0.00    +0.000 C 
ATOM      3  C   UNL     1       0.820   9.278  20.743  0.00  0.00    +0.000 C 
ATOM      4  C   UNL     1       1.188   7.822  21.024  0.00  0.00    +0.000 C 
ATOM      5  C   UNL     1       2.419   7.417  20.228  0.00  0.00    +0.000 C 
ATOM      6  C   UNL     1       2.168   7.635  18.768  0.00  0.00    +0.000 C 
ATOM      7  C   UNL     1       2.240   6.723  17.783  0.00  0.00    +0.000 C 
ATOM      8  C   UNL     1       1.712   9.008  18.382  0.00  0.00    +0.000 C 
ATOM      9  O   UNL     1       2.230   9.628  17.465  0.00  0.00    +0.000 OA
ENDROOT
BRANCH   7  10
ATOM     10  C   UNL     1       2.535   5.304  17.993  0.00  0.00    +0.000 A 
ATOM     11  C   UNL     1       3.605   4.696  17.339  0.00  0.00    +0.000 A 
ATOM     12  C   UNL     1       3.849   3.332  17.518  0.00  0.00    +0.000 A 
ATOM     13  C   UNL     1       3.029   2.571  18.358  0.00  0.00    +0.000 A 
ATOM     14  C   UNL     1       1.971   3.171  19.048  0.00  0.00    +0.000 A 
ATOM     15  C   UNL     1       1.736   4.542  18.855  0.00  0.00    +0.000 A 
BRANCH  13  16
ATOM     16  O   UNL     1       3.292   1.232  18.474  0.00  0.00    +0.000 OA
ATOM     17  H   UNL     1       3.633   0.900  17.627  0.00  0.00    +0.000 HD
ENDBRANCH  13  16
BRANCH  14  18
ATOM     18  O   UNL     1       1.086   2.594  19.921  0.00  0.00    +0.000 OA
ATOM     19  C   UNL     1       1.305   2.765  21.314  0.00  0.00    +0.000 C 
ENDBRANCH  14  18
ENDBRANCH   7  10
BRANCH   1  21
ATOM     20  C   UNL     1      -2.133  11.923  19.246  0.00  0.00    +0.000 C 
ATOM     21  C   UNL     1      -1.543  10.733  19.461  0.00  0.00    +0.000 C 
BRANCH  20  24
ATOM     22  C   UNL     1      -5.783  12.613  20.046  0.00  0.00    +0.000 A 
ATOM     23  C   UNL     1      -4.604  12.212  19.389  0.00  0.00    +0.000 A 
ATOM     24  C   UNL     1      -3.337  12.385  19.969  0.00  0.00    +0.000 A 
ATOM     25  C   UNL     1      -3.265  13.010  21.219  0.00  0.00    +0.000 A 
ATOM     26  C   UNL     1      -4.426  13.410  21.887  0.00  0.00    +0.000 A 
ATOM     27  C   UNL     1      -5.680  13.210  21.305  0.00  0.00    +0.000 A 
BRANCH  22  29
ATOM     28  C   UNL     1      -6.884  11.276  18.388  0.00  0.00    +0.000 C 
ATOM     29  O   UNL     1      -6.919  12.343  19.328  0.00  0.00    +0.000 OA
ENDBRANCH  22  29
BRANCH  27  30
ATOM     30  O   UNL     1      -6.784  13.618  22.002  0.00  0.00    +0.000 OA
ATOM     31  H   UNL     1      -7.582  13.278  21.567  0.00  0.00    +0.000 HD
ENDBRANCH  27  30
ENDBRANCH  20  24
ENDBRANCH   1  21
BRANCH   1  32
ATOM     32  O   UNL     1      -0.512  10.347  17.340  0.00  0.00    +0.000 OA
ATOM     33  H   UNL     1       0.296   9.982  16.942  0.00  0.00    +0.000 HD
ENDBRANCH   1  32
TORSDOF 8
ENDMDL
MODEL 2
REMARK VINA RESULT:      -8.0      0.768      1.779
REMARK  Name = 
REMARK  10 active torsions:
REMARK  status: ('A' for Active; 'I' for Inactive)
REMARK    1  A    between atoms: C_1  and  O_2
REMARK    2  A    between atoms: O_2  and  C_3
REMARK    3  A    between atoms: C_5  and  C_6
REMARK    4  A    between atoms: C_7  and  C_8
REMARK    5  A    between atoms: C_8  and  O_9
REMARK    6  A    between atoms: C_15  and  C_16
REMARK    7  A    between atoms: C_19  and  O_20
REMARK    8  A    between atoms: C_21  and  O_22
REMARK    9  A    between atoms: O_22  and  C_23
REMARK   10  A    between atoms: C_29  and  O_30
REMARK                            x       y       z     vdW  Elec       q    Type
REMARK                         _______ _______ _______ _____ _____    ______ ____
ROOT
ATOM      1  C   UNL     1      -0.390  10.318  18.791  0.00  0.00    +0.000 C 
ATOM      2  C   UNL     1       0.649   9.655  19.339  0.00  0.00    +0.000 C 
ATOM      3  C   UNL     1       0.859   9.378  20.810  0.00  0.00    +0.000 C 
ATOM      4  C   UNL     1       1.184   7.912  21.089  0.00  0.00    +0.000 C 
ATOM      5  C   UNL     1       2.388   7.466  20.275  0.00  0.00    +0.000 C 
ATOM      6  C   UNL     1       2.121   7.688  18.818  0.00  0.00    +0.000 C 
ATOM      7  C   UNL     1       2.147   6.773  17.834  0.00  0.00    +0.000 C 
ATOM      8  C   UNL     1       1.703   9.074  18.436  0.00  0.00    +0.000 C 
ATOM      9  O   UNL     1       2.225   9.676  17.509  0.00  0.00    +0.000 OA
ENDROOT
BRANCH   7  10
ATOM     10  C   UNL     1       2.401   5.346  18.043  0.00  0.00    +0.000 A 
ATOM     11  C   UNL     1       3.388   4.684  17.315  0.00  0.00    +0.000 A 
ATOM     12  C   UNL     1       3.589   3.314  17.496  0.00  0.00    +0.000 A 
ATOM     13  C   UNL     1       2.810   2.599  18.412  0.00  0.00    +0.000 A 
ATOM     14  C   UNL     1       1.838   3.252  19.177  0.00  0.00    +0.000 A 
ATOM     15  C   UNL     1       1.645   4.629  18.980  0.00  0.00    +0.000 A 
BRANCH  13  16
ATOM     16  O   UNL     1       3.027   1.252  18.529  0.00  0.00    +0.000 OA
ATOM     17  H   UNL     1       3.975   1.093  18.667  0.00  0.00    +0.000 HD
ENDBRANCH  13  16
BRANCH  14  18
ATOM     18  O   UNL     1       1.005   2.725  20.128  0.00  0.00    +0.000 OA
ATOM     19  C   UNL     1       1.444   2.718  21.479  0.00  0.00    +0.000 C 
ENDBRANCH  14  18
ENDBRANCH   7  10
BRANCH   1  21
ATOM     20  C   UNL     1      -2.346  11.834  19.124  0.00  0.00    +0.000 C 
ATOM     21  C   UNL     1      -1.477  10.905  19.562  0.00  0.00    +0.000 C 
BRANCH  20  24
ATOM     22  C   UNL     1      -4.369  13.219  22.027  0.00  0.00    +0.000 A 
ATOM     23  C   UNL     1      -3.309  12.731  21.240  0.00  0.00    +0.000 A 
ATOM     24  C   UNL     1      -3.501  12.316  19.912  0.00  0.00    +0.000 A 
ATOM     25  C   UNL     1      -4.797  12.362  19.389  0.00  0.00    +0.000 A 
ATOM     26  C   UNL     1      -5.861  12.849  20.155  0.00  0.00    +0.000 A 
ATOM     27  C   UNL     1      -5.649  13.278  21.467  0.00  0.00    +0.000 A 
BRANCH  22  29
ATOM     28  C   UNL     1      -4.042  12.621  24.324  0.00  0.00    +0.000 C 
ATOM     29  O   UNL     1      -3.980  13.592  23.287  0.00  0.00    +0.000 OA
ENDBRANCH  22  29
BRANCH  27  30
ATOM     30  O   UNL     1      -6.723  13.747  22.170  0.00  0.00    +0.000 OA
ATOM     31  H   UNL     1      -7.398  13.051  22.228  0.00  0.00    +0.000 HD
ENDBRANCH  27  30
ENDBRANCH  20  24
ENDBRANCH   1  21
BRANCH   1  32
ATOM     32  O   UNL     1      -0.494  10.482  17.426  0.00  0.00    +0.000 OA
ATOM     33  H   UNL     1       0.138  11.171  17.158  0.00  0.00    +0.000 HD
ENDBRANCH   1  32
TORSDOF 8
ENDMDL
MODEL 3
REMARK VINA RESULT:      -7.9      2.872     10.583
REMARK  Name = 
REMARK  10 active torsions:
REMARK  status: ('A' for Active; 'I' for Inactive)
REMARK    1  A    between atoms: C_1  and  O_2
REMARK    2  A    between atoms: O_2  and  C_3
REMARK    3  A    between atoms: C_5  and  C_6
REMARK    4  A    between atoms: C_7  and  C_8
REMARK    5  A    between atoms: C_8  and  O_9
REMARK    6  A    between atoms: C_15  and  C_16
REMARK    7  A    between atoms: C_19  and  O_20
REMARK    8  A    between atoms: C_21  and  O_22
REMARK    9  A    between atoms: O_22  and  C_23
REMARK   10  A    between atoms: C_29  and  O_30
REMARK                            x       y       z     vdW  Elec       q    Type
REMARK                         _______ _______ _______ _____ _____    ______ ____
ROOT
ATOM      1  C   UNL     1       1.265   9.273  18.600  0.00  0.00    +0.000 C 
ATOM      2  C   UNL     1       0.520   9.347  19.722  0.00  0.00    +0.000 C 
ATOM      3  C   UNL     1       0.807   8.652  21.033  0.00  0.00    +0.000 C 
ATOM      4  C   UNL     1       0.736   9.603  22.226  0.00  0.00    +0.000 C 
ATOM      5  C   UNL     1      -0.609  10.311  22.269  0.00  0.00    +0.000 C 
ATOM      6  C   UNL     1      -0.831  11.046  20.983  0.00  0.00    +0.000 C 
ATOM      7  C   UNL     1      -1.068  12.359  20.825  0.00  0.00    +0.000 C 
ATOM      8  C   UNL     1      -0.697  10.231  19.734  0.00  0.00    +0.000 C 
ATOM      9  O   UNL     1      -1.539  10.258  18.850  0.00  0.00    +0.000 OA
ENDROOT
BRANCH   7  10
ATOM     10  C   UNL     1      -1.096  13.330  21.921  0.00  0.00    +0.000 A 
ATOM     11  C   UNL     1      -0.086  14.281  22.057  0.00  0.00    +0.000 A 
ATOM     12  C   UNL     1      -0.106  15.173  23.131  0.00  0.00    +0.000 A 
ATOM     13  C   UNL     1      -1.141  15.126  24.071  0.00  0.00    +0.000 A 
ATOM     14  C   UNL     1      -2.182  14.202  23.933  0.00  0.00    +0.000 A 
ATOM     15  C   UNL     1      -2.145  13.309  22.850  0.00  0.00    +0.000 A 
BRANCH  13  16
ATOM     16  O   UNL     1      -1.097  16.003  25.122  0.00  0.00    +0.000 OA
ATOM     17  H   UNL     1      -1.482  16.851  24.845  0.00  0.00    +0.000 HD
ENDBRANCH  13  16
BRANCH  14  18
ATOM     18  O   UNL     1      -3.279  14.027  24.734  0.00  0.00    +0.000 OA
ATOM     19  C   UNL     1      -4.067  12.858  24.553  0.00  0.00    +0.000 C 
ENDBRANCH  14  18
ENDBRANCH   7  10
BRANCH   1  21
ATOM     20  C   UNL     1       2.522   7.165  18.138  0.00  0.00    +0.000 C 
ATOM     21  C   UNL     1       2.471   8.466  18.475  0.00  0.00    +0.000 C 
BRANCH  20  24
ATOM     22  C   UNL     1       5.292   4.604  18.590  0.00  0.00    +0.000 A 
ATOM     23  C   UNL     1       4.118   5.359  18.771  0.00  0.00    +0.000 A 
ATOM     24  C   UNL     1       3.781   6.422  17.917  0.00  0.00    +0.000 A 
ATOM     25  C   UNL     1       4.671   6.747  16.888  0.00  0.00    +0.000 A 
ATOM     26  C   UNL     1       5.839   6.005  16.692  0.00  0.00    +0.000 A 
ATOM     27  C   UNL     1       6.149   4.937  17.537  0.00  0.00    +0.000 A 
BRANCH  22  29
ATOM     28  C   UNL     1       4.380   2.656  19.647  0.00  0.00    +0.000 C 
ATOM     29  O   UNL     1       5.435   3.600  19.511  0.00  0.00    +0.000 OA
ENDBRANCH  22  29
BRANCH  27  30
ATOM     30  O   UNL     1       7.303   4.244  17.299  0.00  0.00    +0.000 OA
ATOM     31  H   UNL     1       7.084   3.327  17.065  0.00  0.00    +0.000 HD
ENDBRANCH  27  30
ENDBRANCH  20  24
ENDBRANCH   1  21
BRANCH   1  32
ATOM     32  O   UNL     1       0.922   9.980  17.466  0.00  0.00    +0.000 OA
ATOM     33  H   UNL     1       0.285   9.447  16.961  0.00  0.00    +0.000 HD
ENDBRANCH   1  32
TORSDOF 8
ENDMDL
MODEL 4
REMARK VINA RESULT:      -7.9      3.397     10.684
REMARK  Name = 
REMARK  10 active torsions:
REMARK  status: ('A' for Active; 'I' for Inactive)
REMARK    1  A    between atoms: C_1  and  O_2
REMARK    2  A    between atoms: O_2  and  C_3
REMARK    3  A    between atoms: C_5  and  C_6
REMARK    4  A    between atoms: C_7  and  C_8
REMARK    5  A    between atoms: C_8  and  O_9
REMARK    6  A    between atoms: C_15  and  C_16
REMARK    7  A    between atoms: C_19  and  O_20
REMARK    8  A    between atoms: C_21  and  O_22
REMARK    9  A    between atoms: O_22  and  C_23
REMARK   10  A    between atoms: C_29  and  O_30
REMARK                            x       y       z     vdW  Elec       q    Type
REMARK                         _______ _______ _______ _____ _____    ______ ____
ROOT
ATOM      1  C   UNL     1       1.779   8.988  18.446  0.00  0.00    +0.000 C 
ATOM      2  C   UNL     1       0.952   9.078  19.508  0.00  0.00    +0.000 C 
ATOM      3  C   UNL     1       1.131   8.393  20.842  0.00  0.00    +0.000 C 
ATOM      4  C   UNL     1       0.979   9.354  22.020  0.00  0.00    +0.000 C 
ATOM      5  C   UNL     1      -0.358  10.075  21.954  0.00  0.00    +0.000 C 
ATOM      6  C   UNL     1      -0.474  10.802  20.650  0.00  0.00    +0.000 C 
ATOM      7  C   UNL     1      -0.684  12.116  20.463  0.00  0.00    +0.000 C 
ATOM      8  C   UNL     1      -0.253   9.975  19.421  0.00  0.00    +0.000 C 
ATOM      9  O   UNL     1      -1.026  10.002  18.474  0.00  0.00    +0.000 OA
ENDROOT
BRANCH   7  10
ATOM     10  C   UNL     1      -0.786  13.096  21.547  0.00  0.00    +0.000 A 
ATOM     11  C   UNL     1       0.180  14.089  21.701  0.00  0.00    +0.000 A 
ATOM     12  C   UNL     1       0.090  14.992  22.763  0.00  0.00    +0.000 A 
ATOM     13  C   UNL     1      -0.970  14.911  23.673  0.00  0.00    +0.000 A 
ATOM     14  C   UNL     1      -1.967  13.943  23.514  0.00  0.00    +0.000 A 
ATOM     15  C   UNL     1      -1.861  13.040  22.444  0.00  0.00    +0.000 A 
BRANCH  13  16
ATOM     16  O   UNL     1      -0.994  15.800  24.714  0.00  0.00    +0.000 OA
ATOM     17  H   UNL     1      -1.526  16.573  24.460  0.00  0.00    +0.000 HD
ENDBRANCH  13  16
BRANCH  14  18
ATOM     18  O   UNL     1      -3.080  13.731  24.285  0.00  0.00    +0.000 OA
ATOM     19  C   UNL     1      -3.822  12.537  24.082  0.00  0.00    +0.000 C 
ENDBRANCH  14  18
ENDBRANCH   7  10
BRANCH   1  21
ATOM     20  C   UNL     1       3.086   6.929  17.907  0.00  0.00    +0.000 C 
ATOM     21  C   UNL     1       2.982   8.168  18.421  0.00  0.00    +0.000 C 
BRANCH  20  24
ATOM     22  C   UNL     1       6.271   5.469  16.436  0.00  0.00    +0.000 A 
ATOM     23  C   UNL     1       5.043   6.143  16.580  0.00  0.00    +0.000 A 
ATOM     24  C   UNL     1       4.359   6.185  17.806  0.00  0.00    +0.000 A 
ATOM     25  C   UNL     1       4.913   5.499  18.892  0.00  0.00    +0.000 A 
ATOM     26  C   UNL     1       6.133   4.828  18.767  0.00  0.00    +0.000 A 
ATOM     27  C   UNL     1       6.811   4.815  17.546  0.00  0.00    +0.000 A 
BRANCH  22  29
ATOM     28  C   UNL     1       6.611   4.456  14.291  0.00  0.00    +0.000 C 
ATOM     29  O   UNL     1       6.790   5.558  15.171  0.00  0.00    +0.000 OA
ENDBRANCH  22  29
BRANCH  27  30
ATOM     30  O   UNL     1       8.002   4.146  17.480  0.00  0.00    +0.000 OA
ATOM     31  H   UNL     1       8.397   4.106  18.366  0.00  0.00    +0.000 HD
ENDBRANCH  27  30
ENDBRANCH  20  24
ENDBRANCH   1  21
BRANCH   1  32
ATOM     32  O   UNL     1       1.530   9.689  17.284  0.00  0.00    +0.000 OA
ATOM     33  H   UNL     1       0.594   9.950  17.286  0.00  0.00    +0.000 HD
ENDBRANCH   1  32
TORSDOF 8
ENDMDL
MODEL 5
REMARK VINA RESULT:      -7.9      2.321      9.962
REMARK  Name = 
REMARK  10 active torsions:
REMARK  status: ('A' for Active; 'I' for Inactive)
REMARK    1  A    between atoms: C_1  and  O_2
REMARK    2  A    between atoms: O_2  and  C_3
REMARK    3  A    between atoms: C_5  and  C_6
REMARK    4  A    between atoms: C_7  and  C_8
REMARK    5  A    between atoms: C_8  and  O_9
REMARK    6  A    between atoms: C_15  and  C_16
REMARK    7  A    between atoms: C_19  and  O_20
REMARK    8  A    between atoms: C_21  and  O_22
REMARK    9  A    between atoms: O_22  and  C_23
REMARK   10  A    between atoms: C_29  and  O_30
REMARK                            x       y       z     vdW  Elec       q    Type
REMARK                         _______ _______ _______ _____ _____    ______ ____
ROOT
ATOM      1  C   UNL     1       1.120   8.880  21.336  0.00  0.00    +0.000 C 
ATOM      2  C   UNL     1       0.877   9.785  20.365  0.00  0.00    +0.000 C 
ATOM      3  C   UNL     1       1.275   9.667  18.913  0.00  0.00    +0.000 C 
ATOM      4  C   UNL     1       0.113   9.952  17.963  0.00  0.00    +0.000 C 
ATOM      5  C   UNL     1      -0.494  11.316  18.251  0.00  0.00    +0.000 C 
ATOM      6  C   UNL     1      -0.942  11.375  19.679  0.00  0.00    +0.000 C 
ATOM      7  C   UNL     1      -2.178  11.638  20.137  0.00  0.00    +0.000 C 
ATOM      8  C   UNL     1       0.094  11.024  20.703  0.00  0.00    +0.000 C 
ATOM      9  O   UNL     1       0.302  11.727  21.680  0.00  0.00    +0.000 OA
ENDROOT
BRANCH   7  10
ATOM     10  C   UNL     1      -3.343  11.867  19.279  0.00  0.00    +0.000 A 
ATOM     11  C   UNL     1      -4.453  12.561  19.758  0.00  0.00    +0.000 A 
ATOM     12  C   UNL     1      -5.572  12.736  18.941  0.00  0.00    +0.000 A 
ATOM     13  C   UNL     1      -5.585  12.225  17.639  0.00  0.00    +0.000 A 
ATOM     14  C   UNL     1      -4.467  11.555  17.130  0.00  0.00    +0.000 A 
ATOM     15  C   UNL     1      -3.351  11.384  17.964  0.00  0.00    +0.000 A 
BRANCH  13  16
ATOM     16  O   UNL     1      -6.719  12.396  16.890  0.00  0.00    +0.000 OA
ATOM     17  H   UNL     1      -6.812  11.648  16.278  0.00  0.00    +0.000 HD
ENDBRANCH  13  16
BRANCH  14  18
ATOM     18  O   UNL     1      -4.293  11.013  15.884  0.00  0.00    +0.000 OA
ATOM     19  C   UNL     1      -2.967  10.765  15.437  0.00  0.00    +0.000 C 
ENDBRANCH  14  18
ENDBRANCH   7  10
BRANCH   1  21
ATOM     20  C   UNL     1       1.310   6.446  20.808  0.00  0.00    +0.000 C 
ATOM     21  C   UNL     1       1.850   7.637  21.124  0.00  0.00    +0.000 C 
BRANCH  20  24
ATOM     22  C   UNL     1       4.059   4.244  19.382  0.00  0.00    +0.000 A 
ATOM     23  C   UNL     1       3.253   5.356  19.691  0.00  0.00    +0.000 A 
ATOM     24  C   UNL     1       2.106   5.240  20.494  0.00  0.00    +0.000 A 
ATOM     25  C   UNL     1       1.752   3.969  20.957  0.00  0.00    +0.000 A 
ATOM     26  C   UNL     1       2.544   2.855  20.664  0.00  0.00    +0.000 A 
ATOM     27  C   UNL     1       3.693   2.991  19.882  0.00  0.00    +0.000 A 
BRANCH  22  29
ATOM     28  C   UNL     1       6.116   5.448  19.138  0.00  0.00    +0.000 C 
ATOM     29  O   UNL     1       5.141   4.562  18.604  0.00  0.00    +0.000 OA
ENDBRANCH  22  29
BRANCH  27  30
ATOM     30  O   UNL     1       4.433   1.869  19.627  0.00  0.00    +0.000 OA
ATOM     31  H   UNL     1       4.264   1.209  20.319  0.00  0.00    +0.000 HD
ENDBRANCH  27  30
ENDBRANCH  20  24
ENDBRANCH   1  21
BRANCH   1  32
ATOM     32  O   UNL     1       0.678   9.079  22.627  0.00  0.00    +0.000 OA
ATOM     33  H   UNL     1      -0.052   9.721  22.598  0.00  0.00    +0.000 HD
ENDBRANCH   1  32
TORSDOF 8
ENDMDL
MODEL 6
REMARK VINA RESULT:      -7.9      1.355      2.484
REMARK  Name = 
REMARK  10 active torsions:
REMARK  status: ('A' for Active; 'I' for Inactive)
REMARK    1  A    between atoms: C_1  and  O_2
REMARK    2  A    between atoms: O_2  and  C_3
REMARK    3  A    between atoms: C_5  and  C_6
REMARK    4  A    between atoms: C_7  and  C_8
REMARK    5  A    between atoms: C_8  and  O_9
REMARK    6  A    between atoms: C_15  and  C_16
REMARK    7  A    between atoms: C_19  and  O_20
REMARK    8  A    between atoms: C_21  and  O_22
REMARK    9  A    between atoms: O_22  and  C_23
REMARK   10  A    between atoms: C_29  and  O_30
REMARK                            x       y       z     vdW  Elec       q    Type
REMARK                         _______ _______ _______ _____ _____    ______ ____
ROOT
ATOM      1  C   UNL     1      -0.798  10.492  18.735  0.00  0.00    +0.000 C 
ATOM      2  C   UNL     1       0.200   9.905  19.428  0.00  0.00    +0.000 C 
ATOM      3  C   UNL     1       0.158   9.494  20.881  0.00  0.00    +0.000 C 
ATOM      4  C   UNL     1       0.629   8.056  21.096  0.00  0.00    +0.000 C 
ATOM      5  C   UNL     1       2.019   7.854  20.513  0.00  0.00    +0.000 C 
ATOM      6  C   UNL     1       2.009   8.204  19.057  0.00  0.00    +0.000 C 
ATOM      7  C   UNL     1       2.355   7.414  18.026  0.00  0.00    +0.000 C 
ATOM      8  C   UNL     1       1.480   9.562  18.716  0.00  0.00    +0.000 C 
ATOM      9  O   UNL     1       2.081  10.323  17.971  0.00  0.00    +0.000 OA
ENDROOT
BRANCH   7  10
ATOM     10  C   UNL     1       2.764   6.014  18.161  0.00  0.00    +0.000 A 
ATOM     11  C   UNL     1       1.863   4.982  17.907  0.00  0.00    +0.000 A 
ATOM     12  C   UNL     1       2.256   3.653  18.080  0.00  0.00    +0.000 A 
ATOM     13  C   UNL     1       3.556   3.348  18.499  0.00  0.00    +0.000 A 
ATOM     14  C   UNL     1       4.485   4.369  18.726  0.00  0.00    +0.000 A 
ATOM     15  C   UNL     1       4.072   5.701  18.552  0.00  0.00    +0.000 A 
BRANCH  13  16
ATOM     16  O   UNL     1       3.881   2.031  18.683  0.00  0.00    +0.000 OA
ATOM     17  H   UNL     1       3.083   1.488  18.572  0.00  0.00    +0.000 HD
ENDBRANCH  13  16
BRANCH  14  18
ATOM     18  O   UNL     1       5.794   4.260  19.115  0.00  0.00    +0.000 OA
ATOM     19  C   UNL     1       6.596   5.433  19.118  0.00  0.00    +0.000 C 
ENDBRANCH  14  18
ENDBRANCH   7  10
BRANCH   1  21
ATOM     20  C   UNL     1      -2.484  12.095  19.642  0.00  0.00    +0.000 C 
ATOM     21  C   UNL     1      -2.085  10.853  19.312  0.00  0.00    +0.000 C 
BRANCH  20  24
ATOM     22  C   UNL     1      -5.310  13.125  21.965  0.00  0.00    +0.000 A 
ATOM     23  C   UNL     1      -4.040  12.783  21.464  0.00  0.00    +0.000 A 
ATOM     24  C   UNL     1      -3.845  12.420  20.121  0.00  0.00    +0.000 A 
ATOM     25  C   UNL     1      -4.965  12.366  19.285  0.00  0.00    +0.000 A 
ATOM     26  C   UNL     1      -6.233  12.706  19.765  0.00  0.00    +0.000 A 
ATOM     27  C   UNL     1      -6.406  13.087  21.098  0.00  0.00    +0.000 A 
BRANCH  22  29
ATOM     28  C   UNL     1      -4.140  14.128  23.800  0.00  0.00    +0.000 C 
ATOM     29  O   UNL     1      -5.293  13.469  23.291  0.00  0.00    +0.000 OA
ENDBRANCH  22  29
BRANCH  27  30
ATOM     30  O   UNL     1      -7.667  13.412  21.515  0.00  0.00    +0.000 OA
ATOM     31  H   UNL     1      -7.745  13.238  22.467  0.00  0.00    +0.000 HD
ENDBRANCH  27  30
ENDBRANCH  20  24
ENDBRANCH   1  21
BRANCH   1  32
ATOM     32  O   UNL     1      -0.657  10.794  17.396  0.00  0.00    +0.000 OA
ATOM     33  H   UNL     1      -1.283  11.508  17.183  0.00  0.00    +0.000 HD
ENDBRANCH   1  32
TORSDOF 8
ENDMDL
MODEL 7
REMARK VINA RESULT:      -7.8      1.758     10.077
REMARK  Name = 
REMARK  10 active torsions:
REMARK  status: ('A' for Active; 'I' for Inactive)
REMARK    1  A    between atoms: C_1  and  O_2
REMARK    2  A    between atoms: O_2  and  C_3
REMARK    3  A    between atoms: C_5  and  C_6
REMARK    4  A    between atoms: C_7  and  C_8
REMARK    5  A    between atoms: C_8  and  O_9
REMARK    6  A    between atoms: C_15  and  C_16
REMARK    7  A    between atoms: C_19  and  O_20
REMARK    8  A    between atoms: C_21  and  O_22
REMARK    9  A    between atoms: O_22  and  C_23
REMARK   10  A    between atoms: C_29  and  O_30
REMARK                            x       y       z     vdW  Elec       q    Type
REMARK                         _______ _______ _______ _____ _____    ______ ____
ROOT
ATOM      1  C   UNL     1       1.381   8.734  20.755  0.00  0.00    +0.000 C 
ATOM      2  C   UNL     1       0.969   9.742  19.958  0.00  0.00    +0.000 C 
ATOM      3  C   UNL     1       0.781   9.678  18.460  0.00  0.00    +0.000 C 
ATOM      4  C   UNL     1      -0.575  10.225  18.017  0.00  0.00    +0.000 C 
ATOM      5  C   UNL     1      -0.775  11.642  18.530  0.00  0.00    +0.000 C 
ATOM      6  C   UNL     1      -0.652  11.659  20.022  0.00  0.00    +0.000 C 
ATOM      7  C   UNL     1      -1.565  12.084  20.912  0.00  0.00    +0.000 C 
ATOM      8  C   UNL     1       0.604  11.062  20.580  0.00  0.00    +0.000 C 
ATOM      9  O   UNL     1       1.279  11.640  21.418  0.00  0.00    +0.000 OA
ENDROOT
BRANCH   7  10
ATOM     10  C   UNL     1      -2.900  12.569  20.555  0.00  0.00    +0.000 A 
ATOM     11  C   UNL     1      -3.459  13.662  21.214  0.00  0.00    +0.000 A 
ATOM     12  C   UNL     1      -4.749  14.088  20.891  0.00  0.00    +0.000 A 
ATOM     13  C   UNL     1      -5.485  13.428  19.900  0.00  0.00    +0.000 A 
ATOM     14  C   UNL     1      -4.927  12.350  19.204  0.00  0.00    +0.000 A 
ATOM     15  C   UNL     1      -3.630  11.932  19.544  0.00  0.00    +0.000 A 
BRANCH  13  16
ATOM     16  O   UNL     1      -6.756  13.865  19.643  0.00  0.00    +0.000 OA
ATOM     17  H   UNL     1      -7.365  13.472  20.290  0.00  0.00    +0.000 HD
ENDBRANCH  13  16
BRANCH  14  18
ATOM     18  O   UNL     1      -5.484  11.605  18.198  0.00  0.00    +0.000 OA
ATOM     19  C   UNL     1      -4.864  11.629  16.920  0.00  0.00    +0.000 C 
ENDBRANCH  14  18
ENDBRANCH   7  10
BRANCH   1  21
ATOM     20  C   UNL     1       1.322   6.237  20.779  0.00  0.00    +0.000 C 
ATOM     21  C   UNL     1       1.743   7.410  20.269  0.00  0.00    +0.000 C 
BRANCH  20  24
ATOM     22  C   UNL     1       2.531   3.638  18.285  0.00  0.00    +0.000 A 
ATOM     23  C   UNL     1       2.195   4.862  18.893  0.00  0.00    +0.000 A 
ATOM     24  C   UNL     1       1.631   4.922  20.178  0.00  0.00    +0.000 A 
ATOM     25  C   UNL     1       1.369   3.718  20.838  0.00  0.00    +0.000 A 
ATOM     26  C   UNL     1       1.700   2.493  20.251  0.00  0.00    +0.000 A 
ATOM     27  C   UNL     1       2.280   2.452  18.981  0.00  0.00    +0.000 A 
BRANCH  22  29
ATOM     28  C   UNL     1       4.504   3.807  16.936  0.00  0.00    +0.000 C 
ATOM     29  O   UNL     1       3.086   3.787  17.041  0.00  0.00    +0.000 OA
ENDBRANCH  22  29
BRANCH  27  30
ATOM     30  O   UNL     1       2.586   1.228  18.454  0.00  0.00    +0.000 OA
ATOM     31  H   UNL     1       1.785   0.835  18.070  0.00  0.00    +0.000 HD
ENDBRANCH  27  30
ENDBRANCH  20  24
ENDBRANCH   1  21
BRANCH   1  32
ATOM     32  O   UNL     1       1.485   8.899  22.120  0.00  0.00    +0.000 OA
ATOM     33  H   UNL     1       2.303   9.392  22.301  0.00  0.00    +0.000 HD
ENDBRANCH   1  32
TORSDOF 8
ENDMDL
MODEL 8
REMARK VINA RESULT:      -7.8      3.507     10.819
REMARK  Name = 
REMARK  10 active torsions:
REMARK  status: ('A' for Active; 'I' for Inactive)
REMARK    1  A    between atoms: C_1  and  O_2
REMARK    2  A    between atoms: O_2  and  C_3
REMARK    3  A    between atoms: C_5  and  C_6
REMARK    4  A    between atoms: C_7  and  C_8
REMARK    5  A    between atoms: C_8  and  O_9
REMARK    6  A    between atoms: C_15  and  C_16
REMARK    7  A    between atoms: C_19  and  O_20
REMARK    8  A    between atoms: C_21  and  O_22
REMARK    9  A    between atoms: O_22  and  C_23
REMARK   10  A    between atoms: C_29  and  O_30
REMARK                            x       y       z     vdW  Elec       q    Type
REMARK                         _______ _______ _______ _____ _____    ______ ____
ROOT
ATOM      1  C   UNL     1       1.726   9.027  18.360  0.00  0.00    +0.000 C 
ATOM      2  C   UNL     1       0.968   9.083  19.475  0.00  0.00    +0.000 C 
ATOM      3  C   UNL     1       1.250   8.383  20.784  0.00  0.00    +0.000 C 
ATOM      4  C   UNL     1       1.152   9.324  21.983  0.00  0.00    +0.000 C 
ATOM      5  C   UNL     1      -0.202  10.014  22.016  0.00  0.00    +0.000 C 
ATOM      6  C   UNL     1      -0.420  10.755  20.733  0.00  0.00    +0.000 C 
ATOM      7  C   UNL     1      -0.673  12.066  20.581  0.00  0.00    +0.000 C 
ATOM      8  C   UNL     1      -0.261   9.951  19.479  0.00  0.00    +0.000 C 
ATOM      9  O   UNL     1      -1.094   9.973  18.586  0.00  0.00    +0.000 OA
ENDROOT
BRANCH   7  10
ATOM     10  C   UNL     1      -0.727  13.029  21.683  0.00  0.00    +0.000 A 
ATOM     11  C   UNL     1      -1.767  12.992  22.610  0.00  0.00    +0.000 A 
ATOM     12  C   UNL     1      -1.826  13.942  23.632  0.00  0.00    +0.000 A 
ATOM     13  C   UNL     1      -0.841  14.930  23.738  0.00  0.00    +0.000 A 
ATOM     14  C   UNL     1       0.229  14.962  22.837  0.00  0.00    +0.000 A 
ATOM     15  C   UNL     1       0.272  14.002  21.813  0.00  0.00    +0.000 A 
BRANCH  13  16
ATOM     16  O   UNL     1      -0.962  15.856  24.739  0.00  0.00    +0.000 OA
ATOM     17  H   UNL     1      -1.175  16.720  24.349  0.00  0.00    +0.000 HD
ENDBRANCH  13  16
BRANCH  14  18
ATOM     18  O   UNL     1       1.287  15.833  22.800  0.00  0.00    +0.000 OA
ATOM     19  C   UNL     1       1.438  16.661  21.656  0.00  0.00    +0.000 C 
ENDBRANCH  14  18
ENDBRANCH   7  10
BRANCH   1  21
ATOM     20  C   UNL     1       3.014   6.932  17.927  0.00  0.00    +0.000 C 
ATOM     21  C   UNL     1       2.945   8.238  18.244  0.00  0.00    +0.000 C 
BRANCH  20  24
ATOM     22  C   UNL     1       6.674   6.278  17.143  0.00  0.00    +0.000 A 
ATOM     23  C   UNL     1       5.435   6.917  17.336  0.00  0.00    +0.000 A 
ATOM     24  C   UNL     1       4.284   6.206  17.713  0.00  0.00    +0.000 A 
ATOM     25  C   UNL     1       4.386   4.818  17.856  0.00  0.00    +0.000 A 
ATOM     26  C   UNL     1       5.610   4.168  17.672  0.00  0.00    +0.000 A 
ATOM     27  C   UNL     1       6.750   4.894  17.320  0.00  0.00    +0.000 A 
BRANCH  22  29
ATOM     28  C   UNL     1       7.927   8.258  17.644  0.00  0.00    +0.000 C 
ATOM     29  O   UNL     1       7.680   7.142  16.798  0.00  0.00    +0.000 OA
ENDBRANCH  22  29
BRANCH  27  30
ATOM     30  O   UNL     1       7.922   4.208  17.154  0.00  0.00    +0.000 OA
ATOM     31  H   UNL     1       8.193   3.826  18.005  0.00  0.00    +0.000 HD
ENDBRANCH  27  30
ENDBRANCH  20  24
ENDBRANCH   1  21
BRANCH   1  32
ATOM     32  O   UNL     1       1.386   9.738  17.228  0.00  0.00    +0.000 OA
ATOM     33  H   UNL     1       1.334  10.679  17.469  0.00  0.00    +0.000 HD
ENDBRANCH   1  32
TORSDOF 8
ENDMDL
MODEL 9
REMARK VINA RESULT:      -7.8      1.379      1.908
REMARK  Name = 
REMARK  10 active torsions:
REMARK  status: ('A' for Active; 'I' for Inactive)
REMARK    1  A    between atoms: C_1  and  O_2
REMARK    2  A    between atoms: O_2  and  C_3
REMARK    3  A    between atoms: C_5  and  C_6
REMARK    4  A    between atoms: C_7  and  C_8
REMARK    5  A    between atoms: C_8  and  O_9
REMARK    6  A    between atoms: C_15  and  C_16
REMARK    7  A    between atoms: C_19  and  O_20
REMARK    8  A    between atoms: C_21  and  O_22
REMARK    9  A    between atoms: O_22  and  C_23
REMARK   10  A    between atoms: C_29  and  O_30
REMARK                            x       y       z     vdW  Elec       q    Type
REMARK                         _______ _______ _______ _____ _____    ______ ____
ROOT
ATOM      1  C   UNL     1      -0.895  10.641  18.767  0.00  0.00    +0.000 C 
ATOM      2  C   UNL     1       0.085  10.041  19.475  0.00  0.00    +0.000 C 
ATOM      3  C   UNL     1       0.017   9.636  20.929  0.00  0.00    +0.000 C 
ATOM      4  C   UNL     1       0.464   8.192  21.155  0.00  0.00    +0.000 C 
ATOM      5  C   UNL     1       1.858   7.968  20.592  0.00  0.00    +0.000 C 
ATOM      6  C   UNL     1       1.873   8.312  19.134  0.00  0.00    +0.000 C 
ATOM      7  C   UNL     1       2.221   7.514  18.111  0.00  0.00    +0.000 C 
ATOM      8  C   UNL     1       1.369   9.677  18.781  0.00  0.00    +0.000 C 
ATOM      9  O   UNL     1       1.990  10.426  18.042  0.00  0.00    +0.000 OA
ENDROOT
BRANCH   7  10
ATOM     10  C   UNL     1       2.607   6.108  18.256  0.00  0.00    +0.000 A 
ATOM     11  C   UNL     1       1.704   5.088  17.962  0.00  0.00    +0.000 A 
ATOM     12  C   UNL     1       2.074   3.754  18.144  0.00  0.00    +0.000 A 
ATOM     13  C   UNL     1       3.352   3.432  18.613  0.00  0.00    +0.000 A 
ATOM     14  C   UNL     1       4.283   4.440  18.881  0.00  0.00    +0.000 A 
ATOM     15  C   UNL     1       3.895   5.777  18.697  0.00  0.00    +0.000 A 
BRANCH  13  16
ATOM     16  O   UNL     1       3.654   2.110  18.804  0.00  0.00    +0.000 OA
ATOM     17  H   UNL     1       2.881   1.570  18.568  0.00  0.00    +0.000 HD
ENDBRANCH  13  16
BRANCH  14  18
ATOM     18  O   UNL     1       5.575   4.314  19.321  0.00  0.00    +0.000 OA
ATOM     19  C   UNL     1       6.544   5.233  18.839  0.00  0.00    +0.000 C 
ENDBRANCH  14  18
ENDBRANCH   7  10
BRANCH   1  21
ATOM     20  C   UNL     1      -2.588  12.277  19.601  0.00  0.00    +0.000 C 
ATOM     21  C   UNL     1      -2.185  11.023  19.325  0.00  0.00    +0.000 C 
BRANCH  20  24
ATOM     22  C   UNL     1      -6.352  12.095  20.088  0.00  0.00    +0.000 A 
ATOM     23  C   UNL     1      -5.038  11.827  19.659  0.00  0.00    +0.000 A 
ATOM     24  C   UNL     1      -3.950  12.619  20.062  0.00  0.00    +0.000 A 
ATOM     25  C   UNL     1      -4.208  13.721  20.883  0.00  0.00    +0.000 A 
ATOM     26  C   UNL     1      -5.506  13.998  21.323  0.00  0.00    +0.000 A 
ATOM     27  C   UNL     1      -6.573  13.188  20.930  0.00  0.00    +0.000 A 
BRANCH  22  29
ATOM     28  C   UNL     1      -7.535  10.029  20.364  0.00  0.00    +0.000 C 
ATOM     29  O   UNL     1      -7.271  11.201  19.603  0.00  0.00    +0.000 OA
ENDBRANCH  22  29
BRANCH  27  30
ATOM     30  O   UNL     1      -7.822  13.503  21.390  0.00  0.00    +0.000 OA
ATOM     31  H   UNL     1      -7.743  13.963  22.242  0.00  0.00    +0.000 HD
ENDBRANCH  27  30
ENDBRANCH  20  24
ENDBRANCH   1  21
BRANCH   1  32
ATOM     32  O   UNL     1      -0.732  10.936  17.429  0.00  0.00    +0.000 OA
ATOM     33  H   UNL     1      -1.317  10.350  16.920  0.00  0.00    +0.000 HD
ENDBRANCH   1  32
TORSDOF 8
ENDMDL
