MODEL 1
REMARK VINA RESULT:      -8.2      0.000      0.000
REMARK  Name = 
REMARK  6 active torsions:
REMARK  status: ('A' for Active; 'I' for Inactive)
REMARK    1  A    between atoms: C_1  and  C_2
REMARK    2  A    between atoms: N_5  and  C_6
REMARK    3  A    between atoms: C_6  and  C_7
REMARK    4  A    between atoms: C_7  and  N_8
REMARK    5  A    between atoms: N_8  and  C_9
REMARK    6  A    between atoms: C_16  and  C_17
REMARK                            x       y       z     vdW  Elec       q    Type
REMARK                         _______ _______ _______ _____ _____    ______ ____
ROOT
ATOM      1  C   UNL     1       2.076   4.756  19.699  0.00  0.00    +0.000 A 
ATOM      2  N   UNL     1       0.970   4.306  20.340  0.00  0.00    +0.000 NA
ATOM      3  C   UNL     1       1.012   3.136  20.998  0.00  0.00    +0.000 A 
ATOM      4  N   UNL     1       2.051   2.307  21.107  0.00  0.00    +0.000 NA
ATOM      5  C   UNL     1       3.124   2.783  20.457  0.00  0.00    +0.000 A 
ATOM      6  O   UNL     1       4.313   2.131  20.412  0.00  0.00    +0.000 OA
ATOM      7  N   UNL     1       5.221   2.863  19.677  0.00  0.00    +0.000 NA
ATOM      8  C   UNL     1       4.577   3.967  19.261  0.00  0.00    +0.000 A 
ATOM      9  C   UNL     1       3.230   3.965  19.745  0.00  0.00    +0.000 A 
ENDROOT
BRANCH   8  10
ATOM     10  C   UNL     1       5.297   4.959  18.451  0.00  0.00    +0.000 A 
ATOM     11  C   UNL     1       4.832   5.373  17.197  0.00  0.00    +0.000 A 
ATOM     12  C   UNL     1       5.506   6.358  16.480  0.00  0.00    +0.000 A 
ATOM     13  F   UNL     1       5.008   6.772  15.307  0.00  0.00    +0.000 F 
ATOM     14  C   UNL     1       6.680   6.916  16.959  0.00  0.00    +0.000 A 
ATOM     15  C   UNL     1       7.173   6.473  18.175  0.00  0.00    +0.000 A 
ATOM     16  F   UNL     1       8.322   6.979  18.639  0.00  0.00    +0.000 F 
ATOM     17  C   UNL     1       6.497   5.513  18.925  0.00  0.00    +0.000 A 
ENDBRANCH   8  10
BRANCH   1  18
ATOM     18  N   UNL     1       2.028   5.964  18.996  0.00  0.00    +0.000 N 
ATOM     19  H   UNL     1       2.602   5.872  18.152  0.00  0.00    +0.000 HD
BRANCH  18  20
ATOM     20  C   UNL     1       2.540   7.113  19.751  0.00  0.00    +0.000 C 
BRANCH  20  21
ATOM     21  C   UNL     1       1.408   8.094  20.108  0.00  0.00    +0.000 C 
BRANCH  21  26
ATOM     22  C   UNL     1      -2.201   9.966  17.934  0.00  0.00    +0.000 C 
ATOM     23  C   UNL     1      -0.807  10.373  18.408  0.00  0.00    +0.000 C 
ATOM     24  C   UNL     1       0.268   9.552  17.682  0.00  0.00    +0.000 C 
ATOM     25  C   UNL     1       1.655   9.760  18.297  0.00  0.00    +0.000 C 
ATOM     26  N   UNL     1       1.695   9.507  19.748  0.00  0.00    +0.000 NA
ATOM     27  C   UNL     1       0.746  10.414  20.418  0.00  0.00    +0.000 C 
ATOM     28  C   UNL     1      -0.697  10.242  19.933  0.00  0.00    +0.000 C 
ENDBRANCH  21  26
ENDBRANCH  20  21
ENDBRANCH  18  20
ENDBRANCH   1  18
TORSDOF 5
ENDMDL
MODEL 2
REMARK VINA RESULT:      -8.2      0.248      1.587
REMARK  Name = 
REMARK  6 active torsions:
REMARK  status: ('A' for Active; 'I' for Inactive)
REMARK    1  A    between atoms: C_1  and  C_2
REMARK    2  A    between atoms: N_5  and  C_6
REMARK    3  A    between atoms: C_6  and  C_7
REMARK    4  A    between atoms: C_7  and  N_8
REMARK    5  A    between atoms: N_8  and  C_9
REMARK    6  A    between atoms: C_16  and  C_17
REMARK                            x       y       z     vdW  Elec       q    Type
REMARK                         _______ _______ _______ _____ _____    ______ ____
ROOT
ATOM      1  C   UNL     1       2.127   4.764  19.633  0.00  0.00    +0.000 A 
ATOM      2  N   UNL     1       0.977   4.382  20.240  0.00  0.00    +0.000 NA
ATOM      3  C   UNL     1       0.938   3.229  20.927  0.00  0.00    +0.000 A 
ATOM      4  N   UNL     1       1.932   2.356  21.097  0.00  0.00    +0.000 NA
ATOM      5  C   UNL     1       3.050   2.765  20.479  0.00  0.00    +0.000 A 
ATOM      6  O   UNL     1       4.208   2.057  20.497  0.00  0.00    +0.000 OA
ATOM      7  N   UNL     1       5.177   2.728  19.782  0.00  0.00    +0.000 NA
ATOM      8  C   UNL     1       4.603   3.849  19.315  0.00  0.00    +0.000 A 
ATOM      9  C   UNL     1       3.240   3.922  19.744  0.00  0.00    +0.000 A 
ENDROOT
BRANCH   8  10
ATOM     10  C   UNL     1       5.400   4.786  18.511  0.00  0.00    +0.000 A 
ATOM     11  C   UNL     1       6.510   5.457  19.037  0.00  0.00    +0.000 A 
ATOM     12  C   UNL     1       7.281   6.293  18.233  0.00  0.00    +0.000 A 
ATOM     13  F   UNL     1       8.369   6.881  18.748  0.00  0.00    +0.000 F 
ATOM     14  C   UNL     1       6.940   6.527  16.910  0.00  0.00    +0.000 A 
ATOM     15  C   UNL     1       5.813   5.906  16.399  0.00  0.00    +0.000 A 
ATOM     16  F   UNL     1       5.452   6.144  15.132  0.00  0.00    +0.000 F 
ATOM     17  C   UNL     1       5.048   5.040  17.176  0.00  0.00    +0.000 A 
ENDBRANCH   8  10
BRANCH   1  18
ATOM     18  N   UNL     1       2.164   5.954  18.900  0.00  0.00    +0.000 N 
ATOM     19  H   UNL     1       2.819   5.837  18.121  0.00  0.00    +0.000 HD
BRANCH  18  20
ATOM     20  C   UNL     1       2.608   7.118  19.676  0.00  0.00    +0.000 C 
BRANCH  20  21
ATOM     21  C   UNL     1       1.430   8.059  19.991  0.00  0.00    +0.000 C 
BRANCH  21  26
ATOM     22  C   UNL     1      -2.253   9.947  17.962  0.00  0.00    +0.000 C 
ATOM     23  C   UNL     1      -0.853  10.359  18.413  0.00  0.00    +0.000 C 
ATOM     24  C   UNL     1       0.214   9.572  17.638  0.00  0.00    +0.000 C 
ATOM     25  C   UNL     1       1.613   9.780  18.225  0.00  0.00    +0.000 C 
ATOM     26  N   UNL     1       1.692   9.485  19.667  0.00  0.00    +0.000 NA
ATOM     27  C   UNL     1       0.748  10.361  20.386  0.00  0.00    +0.000 C 
ATOM     28  C   UNL     1      -0.703  10.184  19.932  0.00  0.00    +0.000 C 
ENDBRANCH  21  26
ENDBRANCH  20  21
ENDBRANCH  18  20
ENDBRANCH   1  18
TORSDOF 5
ENDMDL
MODEL 3
REMARK VINA RESULT:      -8.0      1.085      1.088
REMARK  Name = 
REMARK  6 active torsions:
REMARK  status: ('A' for Active; 'I' for Inactive)
REMARK    1  A    between atoms: C_1  and  C_2
REMARK    2  A    between atoms: N_5  and  C_6
REMARK    3  A    between atoms: C_6  and  C_7
REMARK    4  A    between atoms: C_7  and  N_8
REMARK    5  A    between atoms: N_8  and  C_9
REMARK    6  A    between atoms: C_16  and  C_17
REMARK                            x       y       z     vdW  Elec       q    Type
REMARK                         _______ _______ _______ _____ _____    ______ ____
ROOT
ATOM      1  C   UNL     1       2.667   4.792  20.064  0.00  0.00    +0.000 A 
ATOM      2  N   UNL     1       1.635   4.595  20.919  0.00  0.00    +0.000 NA
ATOM      3  C   UNL     1       1.059   3.385  21.001  0.00  0.00    +0.000 A 
ATOM      4  N   UNL     1       1.378   2.290  20.310  0.00  0.00    +0.000 NA
ATOM      5  C   UNL     1       2.400   2.524  19.472  0.00  0.00    +0.000 A 
ATOM      6  O   UNL     1       2.919   1.574  18.654  0.00  0.00    +0.000 OA
ATOM      7  N   UNL     1       3.955   2.108  17.916  0.00  0.00    +0.000 NA
ATOM      8  C   UNL     1       4.061   3.396  18.281  0.00  0.00    +0.000 A 
ATOM      9  C   UNL     1       3.090   3.709  19.284  0.00  0.00    +0.000 A 
ENDROOT
BRANCH   8  10
ATOM     10  C   UNL     1       5.098   4.236  17.664  0.00  0.00    +0.000 A 
ATOM     11  C   UNL     1       5.142   4.468  16.285  0.00  0.00    +0.000 A 
ATOM     12  C   UNL     1       6.101   5.316  15.737  0.00  0.00    +0.000 A 
ATOM     13  F   UNL     1       6.086   5.562  14.421  0.00  0.00    +0.000 F 
ATOM     14  C   UNL     1       7.070   5.909  16.532  0.00  0.00    +0.000 A 
ATOM     15  C   UNL     1       7.062   5.641  17.891  0.00  0.00    +0.000 A 
ATOM     16  F   UNL     1       8.009   6.181  18.669  0.00  0.00    +0.000 F 
ATOM     17  C   UNL     1       6.092   4.823  18.463  0.00  0.00    +0.000 A 
ENDBRANCH   8  10
BRANCH   1  18
ATOM     18  N   UNL     1       3.255   6.056  19.963  0.00  0.00    +0.000 N 
ATOM     19  H   UNL     1       3.263   6.486  20.893  0.00  0.00    +0.000 HD
BRANCH  18  20
ATOM     20  C   UNL     1       2.548   6.972  19.061  0.00  0.00    +0.000 C 
BRANCH  20  21
ATOM     21  C   UNL     1       1.597   7.899  19.843  0.00  0.00    +0.000 C 
BRANCH  21  26
ATOM     22  C   UNL     1      -2.141   9.934  18.073  0.00  0.00    +0.000 C 
ATOM     23  C   UNL     1      -0.729  10.311  18.517  0.00  0.00    +0.000 C 
ATOM     24  C   UNL     1       0.316   9.591  17.652  0.00  0.00    +0.000 C 
ATOM     25  C   UNL     1       1.730   9.755  18.215  0.00  0.00    +0.000 C 
ATOM     26  N   UNL     1       1.850   9.347  19.626  0.00  0.00    +0.000 NA
ATOM     27  C   UNL     1       0.927  10.160  20.438  0.00  0.00    +0.000 C 
ATOM     28  C   UNL     1      -0.537  10.017  20.012  0.00  0.00    +0.000 C 
ENDBRANCH  21  26
ENDBRANCH  20  21
ENDBRANCH  18  20
ENDBRANCH   1  18
TORSDOF 5
ENDMDL
MODEL 4
REMARK VINA RESULT:      -7.9      0.877      1.709
REMARK  Name = 
REMARK  6 active torsions:
REMARK  status: ('A' for Active; 'I' for Inactive)
REMARK    1  A    between atoms: C_1  and  C_2
REMARK    2  A    between atoms: N_5  and  C_6
REMARK    3  A    between atoms: C_6  and  C_7
REMARK    4  A    between atoms: C_7  and  N_8
REMARK    5  A    between atoms: N_8  and  C_9
REMARK    6  A    between atoms: C_16  and  C_17
REMARK                            x       y       z     vdW  Elec       q    Type
REMARK                         _______ _______ _______ _____ _____    ______ ____
ROOT
ATOM      1  C   UNL     1       2.163   4.908  19.802  0.00  0.00    +0.000 A 
ATOM      2  N   UNL     1       1.044   4.480  20.435  0.00  0.00    +0.000 NA
ATOM      3  C   UNL     1       1.037   3.281  21.039  0.00  0.00    +0.000 A 
ATOM      4  N   UNL     1       2.037   2.401  21.099  0.00  0.00    +0.000 NA
ATOM      5  C   UNL     1       3.125   2.856  20.459  0.00  0.00    +0.000 A 
ATOM      6  O   UNL     1       4.282   2.152  20.370  0.00  0.00    +0.000 OA
ATOM      7  N   UNL     1       5.216   2.874  19.658  0.00  0.00    +0.000 NA
ATOM      8  C   UNL     1       4.620   4.025  19.301  0.00  0.00    +0.000 A 
ATOM      9  C   UNL     1       3.279   4.063  19.799  0.00  0.00    +0.000 A 
ENDROOT
BRANCH   8  10
ATOM     10  C   UNL     1       5.378   5.019  18.528  0.00  0.00    +0.000 A 
ATOM     11  C   UNL     1       4.928   5.500  17.294  0.00  0.00    +0.000 A 
ATOM     12  C   UNL     1       5.639   6.485  16.614  0.00  0.00    +0.000 A 
ATOM     13  F   UNL     1       5.157   6.966  15.460  0.00  0.00    +0.000 F 
ATOM     14  C   UNL     1       6.837   6.976  17.110  0.00  0.00    +0.000 A 
ATOM     15  C   UNL     1       7.313   6.465  18.306  0.00  0.00    +0.000 A 
ATOM     16  F   UNL     1       8.483   6.906  18.786  0.00  0.00    +0.000 F 
ATOM     17  C   UNL     1       6.601   5.504  19.019  0.00  0.00    +0.000 A 
ENDBRANCH   8  10
BRANCH   1  18
ATOM     18  N   UNL     1       2.165   6.147  19.156  0.00  0.00    +0.000 N 
ATOM     19  H   UNL     1       3.045   6.243  18.639  0.00  0.00    +0.000 HD
BRANCH  18  20
ATOM     20  C   UNL     1       2.063   7.294  20.066  0.00  0.00    +0.000 C 
BRANCH  20  21
ATOM     21  C   UNL     1       1.883   8.610  19.285  0.00  0.00    +0.000 C 
BRANCH  21  26
ATOM     22  C   UNL     1       1.898  13.022  20.620  0.00  0.00    +0.000 C 
ATOM     23  C   UNL     1       0.894  11.956  20.184  0.00  0.00    +0.000 C 
ATOM     24  C   UNL     1       0.889  10.786  21.178  0.00  0.00    +0.000 C 
ATOM     25  C   UNL     1       0.076   9.599  20.653  0.00  0.00    +0.000 C 
ATOM     26  N   UNL     1       0.498   9.146  19.316  0.00  0.00    +0.000 NA
ATOM     27  C   UNL     1       0.356  10.265  18.366  0.00  0.00    +0.000 C 
ATOM     28  C   UNL     1       1.189  11.491  18.751  0.00  0.00    +0.000 C 
ENDBRANCH  21  26
ENDBRANCH  20  21
ENDBRANCH  18  20
ENDBRANCH   1  18
TORSDOF 5
ENDMDL
MODEL 5
REMARK VINA RESULT:      -7.8      0.980      2.207
REMARK  Name = 
REMARK  6 active torsions:
REMARK  status: ('A' for Active; 'I' for Inactive)
REMARK    1  A    between atoms: C_1  and  C_2
REMARK    2  A    between atoms: N_5  and  C_6
REMARK    3  A    between atoms: C_6  and  C_7
REMARK    4  A    between atoms: C_7  and  N_8
REMARK    5  A    between atoms: N_8  and  C_9
REMARK    6  A    between atoms: C_16  and  C_17
REMARK                            x       y       z     vdW  Elec       q    Type
REMARK                         _______ _______ _______ _____ _____    ______ ____
ROOT
ATOM      1  C   UNL     1       2.262   5.151  19.946  0.00  0.00    +0.000 A 
ATOM      2  N   UNL     1       1.146   4.737  20.594  0.00  0.00    +0.000 NA
ATOM      3  C   UNL     1       1.093   3.494  21.100  0.00  0.00    +0.000 A 
ATOM      4  N   UNL     1       2.040   2.557  21.043  0.00  0.00    +0.000 NA
ATOM      5  C   UNL     1       3.126   3.002  20.392  0.00  0.00    +0.000 A 
ATOM      6  O   UNL     1       4.234   2.244  20.194  0.00  0.00    +0.000 OA
ATOM      7  N   UNL     1       5.179   2.968  19.500  0.00  0.00    +0.000 NA
ATOM      8  C   UNL     1       4.639   4.176  19.264  0.00  0.00    +0.000 A 
ATOM      9  C   UNL     1       3.325   4.249  19.825  0.00  0.00    +0.000 A 
ENDROOT
BRANCH   8  10
ATOM     10  C   UNL     1       5.423   5.186  18.539  0.00  0.00    +0.000 A 
ATOM     11  C   UNL     1       6.635   5.682  19.035  0.00  0.00    +0.000 A 
ATOM     12  C   UNL     1       7.383   6.595  18.296  0.00  0.00    +0.000 A 
ATOM     13  F   UNL     1       8.565   7.011  18.770  0.00  0.00    +0.000 F 
ATOM     14  C   UNL     1       6.926   7.078  17.080  0.00  0.00    +0.000 A 
ATOM     15  C   UNL     1       5.703   6.630  16.610  0.00  0.00    +0.000 A 
ATOM     16  F   UNL     1       5.232   7.110  15.452  0.00  0.00    +0.000 F 
ATOM     17  C   UNL     1       4.954   5.692  17.316  0.00  0.00    +0.000 A 
ENDBRANCH   8  10
BRANCH   1  18
ATOM     18  N   UNL     1       2.312   6.438  19.401  0.00  0.00    +0.000 N 
ATOM     19  H   UNL     1       3.266   6.614  19.071  0.00  0.00    +0.000 HD
BRANCH  18  20
ATOM     20  C   UNL     1       1.972   7.502  20.354  0.00  0.00    +0.000 C 
BRANCH  20  21
ATOM     21  C   UNL     1       1.394   8.732  19.630  0.00  0.00    +0.000 C 
BRANCH  21  26
ATOM     22  C   UNL     1       1.200  13.205  18.529  0.00  0.00    +0.000 C 
ATOM     23  C   UNL     1       0.452  12.204  19.408  0.00  0.00    +0.000 C 
ATOM     24  C   UNL     1       1.377  11.655  20.504  0.00  0.00    +0.000 C 
ATOM     25  C   UNL     1       0.739  10.481  21.251  0.00  0.00    +0.000 C 
ATOM     26  N   UNL     1       0.285   9.398  20.361  0.00  0.00    +0.000 NA
ATOM     27  C   UNL     1      -0.705   9.942  19.413  0.00  0.00    +0.000 C 
ATOM     28  C   UNL     1      -0.152  11.081  18.552  0.00  0.00    +0.000 C 
ENDBRANCH  21  26
ENDBRANCH  20  21
ENDBRANCH  18  20
ENDBRANCH   1  18
TORSDOF 5
ENDMDL
MODEL 6
REMARK VINA RESULT:      -7.7      1.395      2.281
REMARK  Name = 
REMARK  6 active torsions:
REMARK  status: ('A' for Active; 'I' for Inactive)
REMARK    1  A    between atoms: C_1  and  C_2
REMARK    2  A    between atoms: N_5  and  C_6
REMARK    3  A    between atoms: C_6  and  C_7
REMARK    4  A    between atoms: C_7  and  N_8
REMARK    5  A    between atoms: N_8  and  C_9
REMARK    6  A    between atoms: C_16  and  C_17
REMARK                            x       y       z     vdW  Elec       q    Type
REMARK                         _______ _______ _______ _____ _____    ______ ____
ROOT
ATOM      1  C   UNL     1       2.498   5.234  19.713  0.00  0.00    +0.000 A 
ATOM      2  N   UNL     1       1.394   5.129  20.492  0.00  0.00    +0.000 NA
ATOM      3  C   UNL     1       0.770   3.945  20.608  0.00  0.00    +0.000 A 
ATOM      4  N   UNL     1       1.106   2.795  20.022  0.00  0.00    +0.000 NA
ATOM      5  C   UNL     1       2.199   2.938  19.258  0.00  0.00    +0.000 A 
ATOM      6  O   UNL     1       2.749   1.918  18.552  0.00  0.00    +0.000 OA
ATOM      7  N   UNL     1       3.858   2.367  17.868  0.00  0.00    +0.000 NA
ATOM      8  C   UNL     1       3.981   3.675  18.151  0.00  0.00    +0.000 A 
ATOM      9  C   UNL     1       2.943   4.086  19.047  0.00  0.00    +0.000 A 
ENDROOT
BRANCH   8  10
ATOM     10  C   UNL     1       5.093   4.438  17.567  0.00  0.00    +0.000 A 
ATOM     11  C   UNL     1       6.050   5.081  18.360  0.00  0.00    +0.000 A 
ATOM     12  C   UNL     1       7.125   5.747  17.776  0.00  0.00    +0.000 A 
ATOM     13  F   UNL     1       8.055   6.307  18.561  0.00  0.00    +0.000 F 
ATOM     14  C   UNL     1       7.248   5.838  16.399  0.00  0.00    +0.000 A 
ATOM     15  C   UNL     1       6.275   5.247  15.610  0.00  0.00    +0.000 A 
ATOM     16  F   UNL     1       6.362   5.352  14.278  0.00  0.00    +0.000 F 
ATOM     17  C   UNL     1       5.210   4.549  16.172  0.00  0.00    +0.000 A 
ENDBRANCH   8  10
BRANCH   1  18
ATOM     18  N   UNL     1       3.137   6.470  19.576  0.00  0.00    +0.000 N 
ATOM     19  H   UNL     1       3.015   6.997  20.446  0.00  0.00    +0.000 HD
BRANCH  18  20
ATOM     20  C   UNL     1       2.607   7.296  18.484  0.00  0.00    +0.000 C 
BRANCH  20  21
ATOM     21  C   UNL     1       1.844   8.517  19.030  0.00  0.00    +0.000 C 
BRANCH  21  26
ATOM     22  C   UNL     1      -0.664  11.903  20.900  0.00  0.00    +0.000 C 
ATOM     23  C   UNL     1      -0.147  11.480  19.526  0.00  0.00    +0.000 C 
ATOM     24  C   UNL     1      -0.747  10.125  19.121  0.00  0.00    +0.000 C 
ATOM     25  C   UNL     1      -0.074   9.558  17.868  0.00  0.00    +0.000 C 
ATOM     26  N   UNL     1       1.392   9.467  17.981  0.00  0.00    +0.000 NA
ATOM     27  C   UNL     1       1.936  10.814  18.234  0.00  0.00    +0.000 C 
ATOM     28  C   UNL     1       1.388  11.455  19.512  0.00  0.00    +0.000 C 
ENDBRANCH  21  26
ENDBRANCH  20  21
ENDBRANCH  18  20
ENDBRANCH   1  18
TORSDOF 5
ENDMDL
MODEL 7
REMARK VINA RESULT:      -7.6      1.345      1.980
REMARK  Name = 
REMARK  6 active torsions:
REMARK  status: ('A' for Active; 'I' for Inactive)
REMARK    1  A    between atoms: C_1  and  C_2
REMARK    2  A    between atoms: N_5  and  C_6
REMARK    3  A    between atoms: C_6  and  C_7
REMARK    4  A    between atoms: C_7  and  N_8
REMARK    5  A    between atoms: N_8  and  C_9
REMARK    6  A    between atoms: C_16  and  C_17
REMARK                            x       y       z     vdW  Elec       q    Type
REMARK                         _______ _______ _______ _____ _____    ______ ____
ROOT
ATOM      1  C   UNL     1       2.646   4.951  19.935  0.00  0.00    +0.000 A 
ATOM      2  N   UNL     1       1.575   4.792  20.750  0.00  0.00    +0.000 NA
ATOM      3  C   UNL     1       0.982   3.590  20.843  0.00  0.00    +0.000 A 
ATOM      4  N   UNL     1       1.319   2.471  20.202  0.00  0.00    +0.000 NA
ATOM      5  C   UNL     1       2.379   2.669  19.403  0.00  0.00    +0.000 A 
ATOM      6  O   UNL     1       2.923   1.689  18.637  0.00  0.00    +0.000 OA
ATOM      7  N   UNL     1       3.996   2.189  17.930  0.00  0.00    +0.000 NA
ATOM      8  C   UNL     1       4.101   3.488  18.259  0.00  0.00    +0.000 A 
ATOM      9  C   UNL     1       3.090   3.840  19.208  0.00  0.00    +0.000 A 
ENDROOT
BRANCH   8  10
ATOM     10  C   UNL     1       5.172   4.298  17.663  0.00  0.00    +0.000 A 
ATOM     11  C   UNL     1       5.288   4.472  16.279  0.00  0.00    +0.000 A 
ATOM     12  C   UNL     1       6.279   5.294  15.748  0.00  0.00    +0.000 A 
ATOM     13  F   UNL     1       6.333   5.485  14.423  0.00  0.00    +0.000 F 
ATOM     14  C   UNL     1       7.209   5.915  16.566  0.00  0.00    +0.000 A 
ATOM     15  C   UNL     1       7.130   5.704  17.933  0.00  0.00    +0.000 A 
ATOM     16  F   UNL     1       8.038   6.272  18.736  0.00  0.00    +0.000 F 
ATOM     17  C   UNL     1       6.127   4.913  18.487  0.00  0.00    +0.000 A 
ENDBRANCH   8  10
BRANCH   1  18
ATOM     18  N   UNL     1       3.251   6.206  19.821  0.00  0.00    +0.000 N 
ATOM     19  H   UNL     1       3.366   6.598  20.761  0.00  0.00    +0.000 HD
BRANCH  18  20
ATOM     20  C   UNL     1       2.477   7.173  19.034  0.00  0.00    +0.000 C 
BRANCH  20  21
ATOM     21  C   UNL     1       1.906   8.289  19.928  0.00  0.00    +0.000 C 
BRANCH  21  26
ATOM     22  C   UNL     1       2.055  12.894  20.082  0.00  0.00    +0.000 C 
ATOM     23  C   UNL     1       1.089  11.789  19.659  0.00  0.00    +0.000 C 
ATOM     24  C   UNL     1       0.696  10.927  20.868  0.00  0.00    +0.000 C 
ATOM     25  C   UNL     1      -0.076   9.674  20.446  0.00  0.00    +0.000 C 
ATOM     26  N   UNL     1       0.628   8.865  19.435  0.00  0.00    +0.000 NA
ATOM     27  C   UNL     1       0.863   9.695  18.239  0.00  0.00    +0.000 C 
ATOM     28  C   UNL     1       1.696  10.947  18.527  0.00  0.00    +0.000 C 
ENDBRANCH  21  26
ENDBRANCH  20  21
ENDBRANCH  18  20
ENDBRANCH   1  18
TORSDOF 5
ENDMDL
MODEL 8
REMARK VINA RESULT:      -7.6      0.903      1.305
REMARK  Name = 
REMARK  6 active torsions:
REMARK  status: ('A' for Active; 'I' for Inactive)
REMARK    1  A    between atoms: C_1  and  C_2
REMARK    2  A    between atoms: N_5  and  C_6
REMARK    3  A    between atoms: C_6  and  C_7
REMARK    4  A    between atoms: C_7  and  N_8
REMARK    5  A    between atoms: N_8  and  C_9
REMARK    6  A    between atoms: C_16  and  C_17
REMARK                            x       y       z     vdW  Elec       q    Type
REMARK                         _______ _______ _______ _____ _____    ______ ____
ROOT
ATOM      1  C   UNL     1       2.191   4.881  19.206  0.00  0.00    +0.000 A 
ATOM      2  N   UNL     1       0.984   4.599  19.753  0.00  0.00    +0.000 NA
ATOM      3  C   UNL     1       0.853   3.538  20.566  0.00  0.00    +0.000 A 
ATOM      4  N   UNL     1       1.802   2.672  20.923  0.00  0.00    +0.000 NA
ATOM      5  C   UNL     1       2.979   2.980  20.359  0.00  0.00    +0.000 A 
ATOM      6  O   UNL     1       4.110   2.256  20.560  0.00  0.00    +0.000 OA
ATOM      7  N   UNL     1       5.154   2.815  19.855  0.00  0.00    +0.000 NA
ATOM      8  C   UNL     1       4.655   3.883  19.211  0.00  0.00    +0.000 A 
ATOM      9  C   UNL     1       3.264   4.036  19.511  0.00  0.00    +0.000 A 
ENDROOT
BRANCH   8  10
ATOM     10  C   UNL     1       5.544   4.700  18.373  0.00  0.00    +0.000 A 
ATOM     11  C   UNL     1       5.426   4.733  16.978  0.00  0.00    +0.000 A 
ATOM     12  C   UNL     1       6.245   5.562  16.216  0.00  0.00    +0.000 A 
ATOM     13  F   UNL     1       6.074   5.614  14.888  0.00  0.00    +0.000 F 
ATOM     14  C   UNL     1       7.234   6.332  16.808  0.00  0.00    +0.000 A 
ATOM     15  C   UNL     1       7.389   6.263  18.182  0.00  0.00    +0.000 A 
ATOM     16  F   UNL     1       8.358   6.978  18.767  0.00  0.00    +0.000 F 
ATOM     17  C   UNL     1       6.559   5.467  18.967  0.00  0.00    +0.000 A 
ENDBRANCH   8  10
BRANCH   1  18
ATOM     18  N   UNL     1       2.324   5.973  18.343  0.00  0.00    +0.000 N 
ATOM     19  H   UNL     1       2.969   5.715  17.589  0.00  0.00    +0.000 HD
BRANCH  18  20
ATOM     20  C   UNL     1       2.860   7.178  18.986  0.00  0.00    +0.000 C 
BRANCH  20  21
ATOM     21  C   UNL     1       1.766   8.248  19.163  0.00  0.00    +0.000 C 
BRANCH  21  26
ATOM     22  C   UNL     1      -0.652  12.026  20.225  0.00  0.00    +0.000 C 
ATOM     23  C   UNL     1      -0.023  11.372  18.996  0.00  0.00    +0.000 C 
ATOM     24  C   UNL     1      -0.682  10.013  18.716  0.00  0.00    +0.000 C 
ATOM     25  C   UNL     1       0.077   9.225  17.644  0.00  0.00    +0.000 C 
ATOM     26  N   UNL     1       1.510   9.059  17.945  0.00  0.00    +0.000 NA
ATOM     27  C   UNL     1       2.129  10.391  18.070  0.00  0.00    +0.000 C 
ATOM     28  C   UNL     1       1.497  11.247  19.171  0.00  0.00    +0.000 C 
ENDBRANCH  21  26
ENDBRANCH  20  21
ENDBRANCH  18  20
ENDBRANCH   1  18
TORSDOF 5
ENDMDL
MODEL 9
REMARK VINA RESULT:      -7.6      1.176      2.440
REMARK  Name = 
REMARK  6 active torsions:
REMARK  status: ('A' for Active; 'I' for Inactive)
REMARK    1  A    between atoms: C_1  and  C_2
REMARK    2  A    between atoms: N_5  and  C_6
REMARK    3  A    between atoms: C_6  and  C_7
REMARK    4  A    between atoms: C_7  and  N_8
REMARK    5  A    between atoms: N_8  and  C_9
REMARK    6  A    between atoms: C_16  and  C_17
REMARK                            x       y       z     vdW  Elec       q    Type
REMARK                         _______ _______ _______ _____ _____    ______ ____
ROOT
ATOM      1  C   UNL     1       2.508   4.786  20.301  0.00  0.00    +0.000 A 
ATOM      2  N   UNL     1       1.527   4.352  21.130  0.00  0.00    +0.000 NA
ATOM      3  C   UNL     1       1.119   3.074  21.066  0.00  0.00    +0.000 A 
ATOM      4  N   UNL     1       1.569   2.122  20.248  0.00  0.00    +0.000 NA
ATOM      5  C   UNL     1       2.534   2.589  19.442  0.00  0.00    +0.000 A 
ATOM      6  O   UNL     1       3.160   1.823  18.514  0.00  0.00    +0.000 OA
ATOM      7  N   UNL     1       4.101   2.575  17.843  0.00  0.00    +0.000 NA
ATOM      8  C   UNL     1       4.042   3.814  18.360  0.00  0.00    +0.000 A 
ATOM      9  C   UNL     1       3.056   3.870  19.396  0.00  0.00    +0.000 A 
ENDROOT
BRANCH   8  10
ATOM     10  C   UNL     1       4.945   4.853  17.847  0.00  0.00    +0.000 A 
ATOM     11  C   UNL     1       6.132   5.197  18.505  0.00  0.00    +0.000 A 
ATOM     12  C   UNL     1       6.996   6.144  17.962  0.00  0.00    +0.000 A 
ATOM     13  F   UNL     1       8.150   6.414  18.586  0.00  0.00    +0.000 F 
ATOM     14  C   UNL     1       6.682   6.811  16.788  0.00  0.00    +0.000 A 
ATOM     15  C   UNL     1       5.484   6.511  16.160  0.00  0.00    +0.000 A 
ATOM     16  F   UNL     1       5.150   7.167  15.042  0.00  0.00    +0.000 F 
ATOM     17  C   UNL     1       4.621   5.544  16.668  0.00  0.00    +0.000 A 
ENDBRANCH   8  10
BRANCH   1  18
ATOM     18  N   UNL     1       2.919   6.121  20.352  0.00  0.00    +0.000 N 
ATOM     19  H   UNL     1       2.762   6.474  21.302  0.00  0.00    +0.000 HD
BRANCH  18  20
ATOM     20  C   UNL     1       2.195   7.004  19.430  0.00  0.00    +0.000 C 
BRANCH  20  21
ATOM     21  C   UNL     1       1.815   8.331  20.114  0.00  0.00    +0.000 C 
BRANCH  21  26
ATOM     22  C   UNL     1       2.032  12.935  20.173  0.00  0.00    +0.000 C 
ATOM     23  C   UNL     1       1.043  11.836  19.788  0.00  0.00    +0.000 C 
ATOM     24  C   UNL     1       0.659  11.004  21.021  0.00  0.00    +0.000 C 
ATOM     25  C   UNL     1      -0.138   9.754  20.637  0.00  0.00    +0.000 C 
ATOM     26  N   UNL     1       0.537   8.916  19.631  0.00  0.00    +0.000 NA
ATOM     27  C   UNL     1       0.763   9.717  18.414  0.00  0.00    +0.000 C 
ATOM     28  C   UNL     1       1.618  10.963  18.664  0.00  0.00    +0.000 C 
ENDBRANCH  21  26
ENDBRANCH  20  21
ENDBRANCH  18  20
ENDBRANCH   1  18
TORSDOF 5
ENDMDL
