MODEL 1
REMARK VINA RESULT:      -7.6      0.000      0.000
REMARK  Name = 
REMARK  15 active torsions:
REMARK  status: ('A' for Active; 'I' for Inactive)
REMARK    1  A    between atoms: C_1  and  C_2
REMARK    2  A    between atoms: C_2  and  C_3
REMARK    3  A    between atoms: C_3  and  C_4
REMARK    4  A    between atoms: C_6  and  C_7
REMARK    5  A    between atoms: C_13  and  O_14
REMARK    6  A    between atoms: O_14  and  C_15
REMARK    7  A    between atoms: C_15  and  C_16
REMARK    8  A    between atoms: C_16  and  C_17
REMARK    9  A    between atoms: C_17  and  O_18
REMARK   10  A    between atoms: O_18  and  C_19
REMARK   11  A    between atoms: C_22  and  O_23
REMARK   12  A    between atoms: O_23  and  C_24
REMARK   13  A    between atoms: C_24  and  C_25
REMARK   14  A    between atoms: C_25  and  O_27
REMARK   15  A    between atoms: C_28  and  C_29
REMARK                            x       y       z     vdW  Elec       q    Type
REMARK                         _______ _______ _______ _____ _____    ______ ____
ROOT
ATOM      1  C   UNL     1       7.036   7.391  17.703  0.00  0.00    +0.000 C 
ENDROOT
BRANCH   1   2
ATOM      2  C   UNL     1       7.858   6.292  18.382  0.00  0.00    +0.000 C 
BRANCH   2   3
ATOM      3  O   UNL     1       7.423   5.014  17.933  0.00  0.00    +0.000 OA
BRANCH   3   9
ATOM      4  C   UNL     1       5.285   4.685  16.703  0.00  0.00    +0.000 A 
ATOM      5  C   UNL     1       3.913   4.408  16.863  0.00  0.00    +0.000 A 
ATOM      6  C   UNL     1       3.314   4.266  18.126  0.00  0.00    +0.000 A 
ATOM      7  C   UNL     1       4.124   4.355  19.261  0.00  0.00    +0.000 A 
ATOM      8  C   UNL     1       5.496   4.578  19.121  0.00  0.00    +0.000 A 
ATOM      9  C   UNL     1       6.090   4.723  17.857  0.00  0.00    +0.000 A 
BRANCH   6  10
ATOM     10  C   UNL     1       1.824   4.066  18.255  0.00  0.00    +0.000 C 
ATOM     11  F   UNL     1       1.306   4.568  19.412  0.00  0.00    +0.000 F 
ATOM     12  F   UNL     1       1.123   4.658  17.249  0.00  0.00    +0.000 F 
ATOM     13  F   UNL     1       1.472   2.750  18.235  0.00  0.00    +0.000 F 
ENDBRANCH   6  10
BRANCH   4  14
ATOM     14  C   UNL     1       5.833   4.954  15.322  0.00  0.00    +0.000 C 
BRANCH  14  16
ATOM     15  C   UNL     1       6.689   4.006  13.174  0.00  0.00    +0.000 C 
ATOM     16  C   UNL     1       5.594   3.914  14.223  0.00  0.00    +0.000 C 
ENDBRANCH  14  16
ENDBRANCH   4  14
ENDBRANCH   3   9
ENDBRANCH   2   3
ENDBRANCH   1   2
BRANCH   1  17
ATOM     17  C   UNL     1       7.813   8.702  17.536  0.00  0.00    +0.000 C 
BRANCH  17  18
ATOM     18  O   UNL     1       8.692   8.881  18.647  0.00  0.00    +0.000 OA
BRANCH  18  19
ATOM     19  C   UNL     1       9.148  10.151  18.858  0.00  0.00    +0.000 A 
ATOM     20  C   UNL     1       9.667  10.810  17.751  0.00  0.00    +0.000 A 
ATOM     21  C   UNL     1      10.108  12.130  17.869  0.00  0.00    +0.000 A 
ATOM     22  C   UNL     1      10.024  12.827  19.087  0.00  0.00    +0.000 A 
ATOM     23  C   UNL     1       9.529  12.159  20.219  0.00  0.00    +0.000 A 
ATOM     24  C   UNL     1       9.427  12.695  21.618  0.00  0.00    +0.000 C 
ATOM     25  C   UNL     1       9.078  10.825  20.072  0.00  0.00    +0.000 A 
BRANCH  22  26
ATOM     26  O   UNL     1      10.512  14.104  18.992  0.00  0.00    +0.000 OA
BRANCH  26  27
ATOM     27  C   UNL     1       9.859  15.009  18.098  0.00  0.00    +0.000 C 
BRANCH  27  28
ATOM     28  C   UNL     1      10.885  15.810  17.310  0.00  0.00    +0.000 C 
ATOM     29  O   UNL     1      11.453  16.804  17.742  0.00  0.00    +0.000 OA
BRANCH  28  30
ATOM     30  O   UNL     1      11.120  15.308  16.074  0.00  0.00    +0.000 OA
ATOM     31  H   UNL     1      10.403  14.683  15.827  0.00  0.00    +0.000 HD
ENDBRANCH  28  30
ENDBRANCH  27  28
ENDBRANCH  26  27
ENDBRANCH  22  26
ENDBRANCH  18  19
ENDBRANCH  17  18
ENDBRANCH   1  17
TORSDOF 13
ENDMDL
MODEL 2
REMARK VINA RESULT:      -7.5      1.770      2.624
REMARK  Name = 
REMARK  15 active torsions:
REMARK  status: ('A' for Active; 'I' for Inactive)
REMARK    1  A    between atoms: C_1  and  C_2
REMARK    2  A    between atoms: C_2  and  C_3
REMARK    3  A    between atoms: C_3  and  C_4
REMARK    4  A    between atoms: C_6  and  C_7
REMARK    5  A    between atoms: C_13  and  O_14
REMARK    6  A    between atoms: O_14  and  C_15
REMARK    7  A    between atoms: C_15  and  C_16
REMARK    8  A    between atoms: C_16  and  C_17
REMARK    9  A    between atoms: C_17  and  O_18
REMARK   10  A    between atoms: O_18  and  C_19
REMARK   11  A    between atoms: C_22  and  O_23
REMARK   12  A    between atoms: O_23  and  C_24
REMARK   13  A    between atoms: C_24  and  C_25
REMARK   14  A    between atoms: C_25  and  O_27
REMARK   15  A    between atoms: C_28  and  C_29
REMARK                            x       y       z     vdW  Elec       q    Type
REMARK                         _______ _______ _______ _____ _____    ______ ____
ROOT
ATOM      1  C   UNL     1       7.649   7.119  17.359  0.00  0.00    +0.000 C 
ENDROOT
BRANCH   1   2
ATOM      2  C   UNL     1       6.578   6.331  18.118  0.00  0.00    +0.000 C 
BRANCH   2   3
ATOM      3  O   UNL     1       5.356   6.348  17.391  0.00  0.00    +0.000 OA
BRANCH   3   9
ATOM      4  C   UNL     1       3.113   6.069  18.433  0.00  0.00    +0.000 A 
ATOM      5  C   UNL     1       2.156   5.115  18.832  0.00  0.00    +0.000 A 
ATOM      6  C   UNL     1       2.377   3.732  18.720  0.00  0.00    +0.000 A 
ATOM      7  C   UNL     1       3.572   3.293  18.145  0.00  0.00    +0.000 A 
ATOM      8  C   UNL     1       4.511   4.224  17.695  0.00  0.00    +0.000 A 
ATOM      9  C   UNL     1       4.288   5.606  17.813  0.00  0.00    +0.000 A 
BRANCH   6  10
ATOM     10  C   UNL     1       1.366   2.745  19.249  0.00  0.00    +0.000 C 
ATOM     11  F   UNL     1       0.644   3.217  20.305  0.00  0.00    +0.000 F 
ATOM     12  F   UNL     1       0.451   2.373  18.312  0.00  0.00    +0.000 F 
ATOM     13  F   UNL     1       1.945   1.592  19.687  0.00  0.00    +0.000 F 
ENDBRANCH   6  10
BRANCH   4  14
ATOM     14  C   UNL     1       2.861   7.533  18.703  0.00  0.00    +0.000 C 
BRANCH  14  16
ATOM     15  C   UNL     1       1.653   9.625  18.062  0.00  0.00    +0.000 C 
ATOM     16  C   UNL     1       2.432   8.430  17.538  0.00  0.00    +0.000 C 
ENDBRANCH  14  16
ENDBRANCH   4  14
ENDBRANCH   3   9
ENDBRANCH   2   3
ENDBRANCH   1   2
BRANCH   1  17
ATOM     17  C   UNL     1       7.702   8.598  17.762  0.00  0.00    +0.000 C 
BRANCH  17  18
ATOM     18  O   UNL     1       8.695   8.782  18.772  0.00  0.00    +0.000 OA
BRANCH  18  19
ATOM     19  C   UNL     1       9.169  10.053  18.928  0.00  0.00    +0.000 A 
ATOM     20  C   UNL     1       9.547  10.715  17.768  0.00  0.00    +0.000 A 
ATOM     21  C   UNL     1       9.995  12.037  17.834  0.00  0.00    +0.000 A 
ATOM     22  C   UNL     1      10.056  12.732  19.055  0.00  0.00    +0.000 A 
ATOM     23  C   UNL     1       9.705  12.061  20.237  0.00  0.00    +0.000 A 
ATOM     24  C   UNL     1       9.770  12.594  21.639  0.00  0.00    +0.000 C 
ATOM     25  C   UNL     1       9.244  10.725  20.143  0.00  0.00    +0.000 A 
BRANCH  22  26
ATOM     26  O   UNL     1      10.524  14.011  18.904  0.00  0.00    +0.000 OA
BRANCH  26  27
ATOM     27  C   UNL     1       9.886  14.853  17.940  0.00  0.00    +0.000 C 
BRANCH  27  28
ATOM     28  C   UNL     1      10.642  16.165  17.795  0.00  0.00    +0.000 C 
ATOM     29  O   UNL     1      11.119  16.784  18.736  0.00  0.00    +0.000 OA
BRANCH  28  30
ATOM     30  O   UNL     1      10.746  16.582  16.511  0.00  0.00    +0.000 OA
ATOM     31  H   UNL     1      11.693  16.665  16.264  0.00  0.00    +0.000 HD
ENDBRANCH  28  30
ENDBRANCH  27  28
ENDBRANCH  26  27
ENDBRANCH  22  26
ENDBRANCH  18  19
ENDBRANCH  17  18
ENDBRANCH   1  17
TORSDOF 13
ENDMDL
MODEL 3
REMARK VINA RESULT:      -7.3      1.194      1.711
REMARK  Name = 
REMARK  15 active torsions:
REMARK  status: ('A' for Active; 'I' for Inactive)
REMARK    1  A    between atoms: C_1  and  C_2
REMARK    2  A    between atoms: C_2  and  C_3
REMARK    3  A    between atoms: C_3  and  C_4
REMARK    4  A    between atoms: C_6  and  C_7
REMARK    5  A    between atoms: C_13  and  O_14
REMARK    6  A    between atoms: O_14  and  C_15
REMARK    7  A    between atoms: C_15  and  C_16
REMARK    8  A    between atoms: C_16  and  C_17
REMARK    9  A    between atoms: C_17  and  O_18
REMARK   10  A    between atoms: O_18  and  C_19
REMARK   11  A    between atoms: C_22  and  O_23
REMARK   12  A    between atoms: O_23  and  C_24
REMARK   13  A    between atoms: C_24  and  C_25
REMARK   14  A    between atoms: C_25  and  O_27
REMARK   15  A    between atoms: C_28  and  C_29
REMARK                            x       y       z     vdW  Elec       q    Type
REMARK                         _______ _______ _______ _____ _____    ______ ____
ROOT
ATOM      1  C   UNL     1       6.963   7.652  17.649  0.00  0.00    +0.000 C 
ENDROOT
BRANCH   1   2
ATOM      2  C   UNL     1       7.773   6.516  18.279  0.00  0.00    +0.000 C 
BRANCH   2   3
ATOM      3  O   UNL     1       7.519   5.298  17.588  0.00  0.00    +0.000 OA
BRANCH   3   9
ATOM      4  C   UNL     1       5.390   4.736  16.427  0.00  0.00    +0.000 A 
ATOM      5  C   UNL     1       4.102   4.198  16.614  0.00  0.00    +0.000 A 
ATOM      6  C   UNL     1       3.625   3.801  17.875  0.00  0.00    +0.000 A 
ATOM      7  C   UNL     1       4.483   3.899  18.973  0.00  0.00    +0.000 A 
ATOM      8  C   UNL     1       5.782   4.382  18.799  0.00  0.00    +0.000 A 
ATOM      9  C   UNL     1       6.254   4.781  17.537  0.00  0.00    +0.000 A 
BRANCH   6  10
ATOM     10  C   UNL     1       2.205   3.320  18.046  0.00  0.00    +0.000 C 
ATOM     11  F   UNL     1       1.292   4.064  17.357  0.00  0.00    +0.000 F 
ATOM     12  F   UNL     1       2.027   2.037  17.628  0.00  0.00    +0.000 F 
ATOM     13  F   UNL     1       1.798   3.352  19.346  0.00  0.00    +0.000 F 
ENDBRANCH   6  10
BRANCH   4  14
ATOM     14  C   UNL     1       5.787   5.261  15.068  0.00  0.00    +0.000 C 
BRANCH  14  16
ATOM     15  C   UNL     1       5.964   3.657  13.160  0.00  0.00    +0.000 C 
ATOM     16  C   UNL     1       6.744   4.428  14.211  0.00  0.00    +0.000 C 
ENDBRANCH  14  16
ENDBRANCH   4  14
ENDBRANCH   3   9
ENDBRANCH   2   3
ENDBRANCH   1   2
BRANCH   1  17
ATOM     17  C   UNL     1       7.804   8.905  17.377  0.00  0.00    +0.000 C 
BRANCH  17  18
ATOM     18  O   UNL     1       8.580   9.221  18.533  0.00  0.00    +0.000 OA
BRANCH  18  19
ATOM     19  C   UNL     1       9.193  10.441  18.535  0.00  0.00    +0.000 A 
ATOM     20  C   UNL     1       8.559  11.449  17.821  0.00  0.00    +0.000 A 
ATOM     21  C   UNL     1       9.094  12.739  17.812  0.00  0.00    +0.000 A 
ATOM     22  C   UNL     1      10.260  13.056  18.531  0.00  0.00    +0.000 A 
ATOM     23  C   UNL     1      10.925  12.037  19.231  0.00  0.00    +0.000 A 
ATOM     24  C   UNL     1      12.214  12.149  19.994  0.00  0.00    +0.000 C 
ATOM     25  C   UNL     1      10.358  10.739  19.233  0.00  0.00    +0.000 A 
BRANCH  22  26
ATOM     26  O   UNL     1      10.619  14.372  18.390  0.00  0.00    +0.000 OA
BRANCH  26  27
ATOM     27  C   UNL     1       9.587  15.360  18.438  0.00  0.00    +0.000 C 
BRANCH  27  28
ATOM     28  C   UNL     1       9.343  15.805  19.873  0.00  0.00    +0.000 C 
ATOM     29  O   UNL     1       8.260  15.725  20.436  0.00  0.00    +0.000 OA
BRANCH  28  30
ATOM     30  O   UNL     1      10.453  16.293  20.476  0.00  0.00    +0.000 OA
ATOM     31  H   UNL     1      10.229  17.112  20.971  0.00  0.00    +0.000 HD
ENDBRANCH  28  30
ENDBRANCH  27  28
ENDBRANCH  26  27
ENDBRANCH  22  26
ENDBRANCH  18  19
ENDBRANCH  17  18
ENDBRANCH   1  17
TORSDOF 13
ENDMDL
MODEL 4
REMARK VINA RESULT:      -7.2      2.122      3.084
REMARK  Name = 
REMARK  15 active torsions:
REMARK  status: ('A' for Active; 'I' for Inactive)
REMARK    1  A    between atoms: C_1  and  C_2
REMARK    2  A    between atoms: C_2  and  C_3
REMARK    3  A    between atoms: C_3  and  C_4
REMARK    4  A    between atoms: C_6  and  C_7
REMARK    5  A    between atoms: C_13  and  O_14
REMARK    6  A    between atoms: O_14  and  C_15
REMARK    7  A    between atoms: C_15  and  C_16
REMARK    8  A    between atoms: C_16  and  C_17
REMARK    9  A    between atoms: C_17  and  O_18
REMARK   10  A    between atoms: O_18  and  C_19
REMARK   11  A    between atoms: C_22  and  O_23
REMARK   12  A    between atoms: O_23  and  C_24
REMARK   13  A    between atoms: C_24  and  C_25
REMARK   14  A    between atoms: C_25  and  O_27
REMARK   15  A    between atoms: C_28  and  C_29
REMARK                            x       y       z     vdW  Elec       q    Type
REMARK                         _______ _______ _______ _____ _____    ______ ____
ROOT
ATOM      1  C   UNL     1       7.579   6.919  18.052  0.00  0.00    +0.000 C 
ENDROOT
BRANCH   1   2
ATOM      2  C   UNL     1       6.624   6.402  16.973  0.00  0.00    +0.000 C 
BRANCH   2   3
ATOM      3  O   UNL     1       5.289   6.786  17.282  0.00  0.00    +0.000 OA
BRANCH   3   9
ATOM      4  C   UNL     1       2.987   6.042  17.868  0.00  0.00    +0.000 A 
ATOM      5  C   UNL     1       2.219   4.930  18.262  0.00  0.00    +0.000 A 
ATOM      6  C   UNL     1       2.788   3.670  18.513  0.00  0.00    +0.000 A 
ATOM      7  C   UNL     1       4.161   3.508  18.314  0.00  0.00    +0.000 A 
ATOM      8  C   UNL     1       4.932   4.586  17.874  0.00  0.00    +0.000 A 
ATOM      9  C   UNL     1       4.359   5.845  17.627  0.00  0.00    +0.000 A 
BRANCH   6  10
ATOM     10  C   UNL     1       1.942   2.531  19.028  0.00  0.00    +0.000 C 
ATOM     11  F   UNL     1       2.563   1.318  18.957  0.00  0.00    +0.000 F 
ATOM     12  F   UNL     1       1.582   2.686  20.331  0.00  0.00    +0.000 F 
ATOM     13  F   UNL     1       0.780   2.389  18.331  0.00  0.00    +0.000 F 
ENDBRANCH   6  10
BRANCH   4  14
ATOM     14  C   UNL     1       2.328   7.395  17.743  0.00  0.00    +0.000 C 
BRANCH  14  16
ATOM     15  C   UNL     1       1.469   9.555  18.663  0.00  0.00    +0.000 C 
ATOM     16  C   UNL     1       2.063   8.202  19.017  0.00  0.00    +0.000 C 
ENDBRANCH  14  16
ENDBRANCH   4  14
ENDBRANCH   3   9
ENDBRANCH   2   3
ENDBRANCH   1   2
BRANCH   1  17
ATOM     17  C   UNL     1       7.979   8.385  17.845  0.00  0.00    +0.000 C 
BRANCH  17  18
ATOM     18  O   UNL     1       8.906   8.775  18.859  0.00  0.00    +0.000 OA
BRANCH  18  19
ATOM     19  C   UNL     1       9.103  10.117  19.013  0.00  0.00    +0.000 A 
ATOM     20  C   UNL     1       8.999  10.890  17.864  0.00  0.00    +0.000 A 
ATOM     21  C   UNL     1       9.137  12.277  17.943  0.00  0.00    +0.000 A 
ATOM     22  C   UNL     1       9.360  12.926  19.171  0.00  0.00    +0.000 A 
ATOM     23  C   UNL     1       9.497  12.150  20.333  0.00  0.00    +0.000 A 
ATOM     24  C   UNL     1       9.809  12.637  21.719  0.00  0.00    +0.000 C 
ATOM     25  C   UNL     1       9.343  10.746  20.229  0.00  0.00    +0.000 A 
BRANCH  22  26
ATOM     26  O   UNL     1       9.468  14.285  19.031  0.00  0.00    +0.000 OA
BRANCH  26  27
ATOM     27  C   UNL     1       8.383  15.097  19.485  0.00  0.00    +0.000 C 
BRANCH  27  28
ATOM     28  C   UNL     1       7.582  15.624  18.302  0.00  0.00    +0.000 C 
ATOM     29  O   UNL     1       6.429  16.023  18.384  0.00  0.00    +0.000 OA
BRANCH  28  30
ATOM     30  O   UNL     1       8.280  15.618  17.141  0.00  0.00    +0.000 OA
ATOM     31  H   UNL     1       7.730  15.998  16.421  0.00  0.00    +0.000 HD
ENDBRANCH  28  30
ENDBRANCH  27  28
ENDBRANCH  26  27
ENDBRANCH  22  26
ENDBRANCH  18  19
ENDBRANCH  17  18
ENDBRANCH   1  17
TORSDOF 13
ENDMDL
MODEL 5
REMARK VINA RESULT:      -7.2      2.544      3.895
REMARK  Name = 
REMARK  15 active torsions:
REMARK  status: ('A' for Active; 'I' for Inactive)
REMARK    1  A    between atoms: C_1  and  C_2
REMARK    2  A    between atoms: C_2  and  C_3
REMARK    3  A    between atoms: C_3  and  C_4
REMARK    4  A    between atoms: C_6  and  C_7
REMARK    5  A    between atoms: C_13  and  O_14
REMARK    6  A    between atoms: O_14  and  C_15
REMARK    7  A    between atoms: C_15  and  C_16
REMARK    8  A    between atoms: C_16  and  C_17
REMARK    9  A    between atoms: C_17  and  O_18
REMARK   10  A    between atoms: O_18  and  C_19
REMARK   11  A    between atoms: C_22  and  O_23
REMARK   12  A    between atoms: O_23  and  C_24
REMARK   13  A    between atoms: C_24  and  C_25
REMARK   14  A    between atoms: C_25  and  O_27
REMARK   15  A    between atoms: C_28  and  C_29
REMARK                            x       y       z     vdW  Elec       q    Type
REMARK                         _______ _______ _______ _____ _____    ______ ____
ROOT
ATOM      1  C   UNL     1       8.034   7.570  17.529  0.00  0.00    +0.000 C 
ENDROOT
BRANCH   1   2
ATOM      2  C   UNL     1       6.834   6.731  17.977  0.00  0.00    +0.000 C 
BRANCH   2   3
ATOM      3  O   UNL     1       7.023   5.373  17.599  0.00  0.00    +0.000 OA
BRANCH   3   9
ATOM      4  C   UNL     1       5.419   4.123  16.164  0.00  0.00    +0.000 A 
ATOM      5  C   UNL     1       5.151   3.724  14.840  0.00  0.00    +0.000 A 
ATOM      6  C   UNL     1       6.023   4.006  13.776  0.00  0.00    +0.000 A 
ATOM      7  C   UNL     1       7.173   4.755  14.038  0.00  0.00    +0.000 A 
ATOM      8  C   UNL     1       7.430   5.204  15.335  0.00  0.00    +0.000 A 
ATOM      9  C   UNL     1       6.557   4.916  16.397  0.00  0.00    +0.000 A 
BRANCH   6  10
ATOM     10  C   UNL     1       5.746   3.477  12.390  0.00  0.00    +0.000 C 
ATOM     11  F   UNL     1       4.480   3.733  11.953  0.00  0.00    +0.000 F 
ATOM     12  F   UNL     1       6.576   4.003  11.448  0.00  0.00    +0.000 F 
ATOM     13  F   UNL     1       5.895   2.125  12.310  0.00  0.00    +0.000 F 
ENDBRANCH   6  10
BRANCH   4  14
ATOM     14  C   UNL     1       4.503   3.671  17.277  0.00  0.00    +0.000 C 
BRANCH  14  16
ATOM     15  C   UNL     1       3.247   5.734  17.919  0.00  0.00    +0.000 C 
ATOM     16  C   UNL     1       3.118   4.315  17.393  0.00  0.00    +0.000 C 
ENDBRANCH  14  16
ENDBRANCH   4  14
ENDBRANCH   3   9
ENDBRANCH   2   3
ENDBRANCH   1   2
BRANCH   1  17
ATOM     17  C   UNL     1       7.939   9.034  17.975  0.00  0.00    +0.000 C 
BRANCH  17  18
ATOM     18  O   UNL     1       8.947   9.302  18.951  0.00  0.00    +0.000 OA
BRANCH  18  19
ATOM     19  C   UNL     1       9.425  10.581  18.989  0.00  0.00    +0.000 A 
ATOM     20  C   UNL     1       9.315  11.242  20.205  0.00  0.00    +0.000 A 
ATOM     21  C   UNL     1       9.826  12.535  20.343  0.00  0.00    +0.000 A 
ATOM     22  C   UNL     1      10.474  13.187  19.280  0.00  0.00    +0.000 A 
ATOM     23  C   UNL     1      10.563  12.539  18.038  0.00  0.00    +0.000 A 
ATOM     24  C   UNL     1      11.144  13.085  16.766  0.00  0.00    +0.000 C 
ATOM     25  C   UNL     1      10.047  11.224  17.925  0.00  0.00    +0.000 A 
BRANCH  22  26
ATOM     26  O   UNL     1      10.897  14.446  19.620  0.00  0.00    +0.000 OA
BRANCH  26  27
ATOM     27  C   UNL     1       9.925  15.494  19.666  0.00  0.00    +0.000 C 
BRANCH  27  28
ATOM     28  C   UNL     1       9.925  16.277  18.361  0.00  0.00    +0.000 C 
ATOM     29  O   UNL     1      10.637  17.249  18.150  0.00  0.00    +0.000 OA
BRANCH  28  30
ATOM     30  O   UNL     1       9.059  15.785  17.443  0.00  0.00    +0.000 OA
ATOM     31  H   UNL     1       9.291  16.124  16.552  0.00  0.00    +0.000 HD
ENDBRANCH  28  30
ENDBRANCH  27  28
ENDBRANCH  26  27
ENDBRANCH  22  26
ENDBRANCH  18  19
ENDBRANCH  17  18
ENDBRANCH   1  17
TORSDOF 13
ENDMDL
MODEL 6
REMARK VINA RESULT:      -7.2      1.345      2.065
REMARK  Name = 
REMARK  15 active torsions:
REMARK  status: ('A' for Active; 'I' for Inactive)
REMARK    1  A    between atoms: C_1  and  C_2
REMARK    2  A    between atoms: C_2  and  C_3
REMARK    3  A    between atoms: C_3  and  C_4
REMARK    4  A    between atoms: C_6  and  C_7
REMARK    5  A    between atoms: C_13  and  O_14
REMARK    6  A    between atoms: O_14  and  C_15
REMARK    7  A    between atoms: C_15  and  C_16
REMARK    8  A    between atoms: C_16  and  C_17
REMARK    9  A    between atoms: C_17  and  O_18
REMARK   10  A    between atoms: O_18  and  C_19
REMARK   11  A    between atoms: C_22  and  O_23
REMARK   12  A    between atoms: O_23  and  C_24
REMARK   13  A    between atoms: C_24  and  C_25
REMARK   14  A    between atoms: C_25  and  O_27
REMARK   15  A    between atoms: C_28  and  C_29
REMARK                            x       y       z     vdW  Elec       q    Type
REMARK                         _______ _______ _______ _____ _____    ______ ____
ROOT
ATOM      1  C   UNL     1       7.607   8.855  17.784  0.00  0.00    +0.000 C 
ENDROOT
BRANCH   1   2
ATOM      2  C   UNL     1       7.270   7.402  17.437  0.00  0.00    +0.000 C 
BRANCH   2   3
ATOM      3  O   UNL     1       5.859   7.234  17.369  0.00  0.00    +0.000 OA
BRANCH   3   9
ATOM      4  C   UNL     1       5.113   5.063  16.408  0.00  0.00    +0.000 A 
ATOM      5  C   UNL     1       4.471   3.847  16.713  0.00  0.00    +0.000 A 
ATOM      6  C   UNL     1       3.939   3.571  17.983  0.00  0.00    +0.000 A 
ATOM      7  C   UNL     1       4.098   4.524  18.993  0.00  0.00    +0.000 A 
ATOM      8  C   UNL     1       4.777   5.715  18.724  0.00  0.00    +0.000 A 
ATOM      9  C   UNL     1       5.305   5.987  17.452  0.00  0.00    +0.000 A 
BRANCH   6  10
ATOM     10  C   UNL     1       3.174   2.296  18.240  0.00  0.00    +0.000 C 
ATOM     11  F   UNL     1       2.141   2.098  17.373  0.00  0.00    +0.000 F 
ATOM     12  F   UNL     1       3.955   1.184  18.145  0.00  0.00    +0.000 F 
ATOM     13  F   UNL     1       2.621   2.262  19.484  0.00  0.00    +0.000 F 
ENDBRANCH   6  10
BRANCH   4  14
ATOM     14  C   UNL     1       5.544   5.341  14.988  0.00  0.00    +0.000 C 
BRANCH  14  16
ATOM     15  C   UNL     1       7.374   4.744  13.394  0.00  0.00    +0.000 C 
ATOM     16  C   UNL     1       6.191   4.210  14.183  0.00  0.00    +0.000 C 
ENDBRANCH  14  16
ENDBRANCH   4  14
ENDBRANCH   3   9
ENDBRANCH   2   3
ENDBRANCH   1   2
BRANCH   1  17
ATOM     17  C   UNL     1       9.016   9.019  18.368  0.00  0.00    +0.000 C 
BRANCH  17  18
ATOM     18  O   UNL     1       8.974   9.928  19.468  0.00  0.00    +0.000 OA
BRANCH  18  19
ATOM     19  C   UNL     1       9.512  11.164  19.251  0.00  0.00    +0.000 A 
ATOM     20  C   UNL     1       9.197  12.144  20.183  0.00  0.00    +0.000 A 
ATOM     21  C   UNL     1       9.746  13.423  20.062  0.00  0.00    +0.000 A 
ATOM     22  C   UNL     1      10.637  13.745  19.022  0.00  0.00    +0.000 A 
ATOM     23  C   UNL     1      10.938  12.770  18.059  0.00  0.00    +0.000 A 
ATOM     24  C   UNL     1      11.799  12.931  16.839  0.00  0.00    +0.000 C 
ATOM     25  C   UNL     1      10.376  11.478  18.208  0.00  0.00    +0.000 A 
BRANCH  22  26
ATOM     26  O   UNL     1      11.058  15.048  19.082  0.00  0.00    +0.000 OA
BRANCH  26  27
ATOM     27  C   UNL     1      10.300  16.033  18.374  0.00  0.00    +0.000 C 
BRANCH  27  28
ATOM     28  C   UNL     1      11.121  16.617  17.233  0.00  0.00    +0.000 C 
ATOM     29  O   UNL     1      12.060  17.385  17.392  0.00  0.00    +0.000 OA
BRANCH  28  30
ATOM     30  O   UNL     1      10.715  16.193  16.013  0.00  0.00    +0.000 OA
ATOM     31  H   UNL     1      11.397  16.412  15.341  0.00  0.00    +0.000 HD
ENDBRANCH  28  30
ENDBRANCH  27  28
ENDBRANCH  26  27
ENDBRANCH  22  26
ENDBRANCH  18  19
ENDBRANCH  17  18
ENDBRANCH   1  17
TORSDOF 13
ENDMDL
MODEL 7
REMARK VINA RESULT:      -7.2      1.075      1.258
REMARK  Name = 
REMARK  15 active torsions:
REMARK  status: ('A' for Active; 'I' for Inactive)
REMARK    1  A    between atoms: C_1  and  C_2
REMARK    2  A    between atoms: C_2  and  C_3
REMARK    3  A    between atoms: C_3  and  C_4
REMARK    4  A    between atoms: C_6  and  C_7
REMARK    5  A    between atoms: C_13  and  O_14
REMARK    6  A    between atoms: O_14  and  C_15
REMARK    7  A    between atoms: C_15  and  C_16
REMARK    8  A    between atoms: C_16  and  C_17
REMARK    9  A    between atoms: C_17  and  O_18
REMARK   10  A    between atoms: O_18  and  C_19
REMARK   11  A    between atoms: C_22  and  O_23
REMARK   12  A    between atoms: O_23  and  C_24
REMARK   13  A    between atoms: C_24  and  C_25
REMARK   14  A    between atoms: C_25  and  O_27
REMARK   15  A    between atoms: C_28  and  C_29
REMARK                            x       y       z     vdW  Elec       q    Type
REMARK                         _______ _______ _______ _____ _____    ______ ____
ROOT
ATOM      1  C   UNL     1       7.124   7.646  17.776  0.00  0.00    +0.000 C 
ENDROOT
BRANCH   1   2
ATOM      2  C   UNL     1       7.681   6.350  18.372  0.00  0.00    +0.000 C 
BRANCH   2   3
ATOM      3  O   UNL     1       7.291   5.241  17.570  0.00  0.00    +0.000 OA
BRANCH   3   9
ATOM      4  C   UNL     1       5.140   4.538  16.533  0.00  0.00    +0.000 A 
ATOM      5  C   UNL     1       3.835   4.092  16.817  0.00  0.00    +0.000 A 
ATOM      6  C   UNL     1       3.349   3.965  18.129  0.00  0.00    +0.000 A 
ATOM      7  C   UNL     1       4.214   4.245  19.189  0.00  0.00    +0.000 A 
ATOM      8  C   UNL     1       5.528   4.639  18.929  0.00  0.00    +0.000 A 
ATOM      9  C   UNL     1       6.009   4.768  17.616  0.00  0.00    +0.000 A 
BRANCH   6  10
ATOM     10  C   UNL     1       1.913   3.577  18.385  0.00  0.00    +0.000 C 
ATOM     11  F   UNL     1       1.526   3.752  19.681  0.00  0.00    +0.000 F 
ATOM     12  F   UNL     1       1.030   4.292  17.635  0.00  0.00    +0.000 F 
ATOM     13  F   UNL     1       1.670   2.266  18.104  0.00  0.00    +0.000 F 
ENDBRANCH   6  10
BRANCH   4  14
ATOM     14  C   UNL     1       5.550   4.774  15.099  0.00  0.00    +0.000 C 
BRANCH  14  16
ATOM     15  C   UNL     1       6.515   4.063  12.906  0.00  0.00    +0.000 C 
ATOM     16  C   UNL     1       6.269   3.650  14.347  0.00  0.00    +0.000 C 
ENDBRANCH  14  16
ENDBRANCH   4  14
ENDBRANCH   3   9
ENDBRANCH   2   3
ENDBRANCH   1   2
BRANCH   1  17
ATOM     17  C   UNL     1       8.198   8.723  17.582  0.00  0.00    +0.000 C 
BRANCH  17  18
ATOM     18  O   UNL     1       8.888   8.937  18.814  0.00  0.00    +0.000 OA
BRANCH  18  19
ATOM     19  C   UNL     1       9.213  10.230  19.107  0.00  0.00    +0.000 A 
ATOM     20  C   UNL     1       9.557  11.037  18.031  0.00  0.00    +0.000 A 
ATOM     21  C   UNL     1       9.854  12.386  18.238  0.00  0.00    +0.000 A 
ATOM     22  C   UNL     1       9.795  12.964  19.519  0.00  0.00    +0.000 A 
ATOM     23  C   UNL     1       9.478  12.149  20.617  0.00  0.00    +0.000 A 
ATOM     24  C   UNL     1       9.434  12.549  22.064  0.00  0.00    +0.000 C 
ATOM     25  C   UNL     1       9.170  10.787  20.380  0.00  0.00    +0.000 A 
BRANCH  22  26
ATOM     26  O   UNL     1      10.125  14.294  19.507  0.00  0.00    +0.000 OA
BRANCH  26  27
ATOM     27  C   UNL     1      11.506  14.647  19.617  0.00  0.00    +0.000 C 
BRANCH  27  28
ATOM     28  C   UNL     1      11.654  16.038  20.217  0.00  0.00    +0.000 C 
ATOM     29  O   UNL     1      11.222  16.355  21.317  0.00  0.00    +0.000 OA
BRANCH  28  30
ATOM     30  O   UNL     1      12.325  16.897  19.413  0.00  0.00    +0.000 OA
ATOM     31  H   UNL     1      13.239  16.570  19.266  0.00  0.00    +0.000 HD
ENDBRANCH  28  30
ENDBRANCH  27  28
ENDBRANCH  26  27
ENDBRANCH  22  26
ENDBRANCH  18  19
ENDBRANCH  17  18
ENDBRANCH   1  17
TORSDOF 13
ENDMDL
MODEL 8
REMARK VINA RESULT:      -7.1      7.607     10.236
REMARK  Name = 
REMARK  15 active torsions:
REMARK  status: ('A' for Active; 'I' for Inactive)
REMARK    1  A    between atoms: C_1  and  C_2
REMARK    2  A    between atoms: C_2  and  C_3
REMARK    3  A    between atoms: C_3  and  C_4
REMARK    4  A    between atoms: C_6  and  C_7
REMARK    5  A    between atoms: C_13  and  O_14
REMARK    6  A    between atoms: O_14  and  C_15
REMARK    7  A    between atoms: C_15  and  C_16
REMARK    8  A    between atoms: C_16  and  C_17
REMARK    9  A    between atoms: C_17  and  O_18
REMARK   10  A    between atoms: O_18  and  C_19
REMARK   11  A    between atoms: C_22  and  O_23
REMARK   12  A    between atoms: O_23  and  C_24
REMARK   13  A    between atoms: C_24  and  C_25
REMARK   14  A    between atoms: C_25  and  O_27
REMARK   15  A    between atoms: C_28  and  C_29
REMARK                            x       y       z     vdW  Elec       q    Type
REMARK                         _______ _______ _______ _____ _____    ______ ____
ROOT
ATOM      1  C   UNL     1       2.246   8.852  18.251  0.00  0.00    +0.000 C 
ENDROOT
BRANCH   1   2
ATOM      2  C   UNL     1       2.009   7.478  18.884  0.00  0.00    +0.000 C 
BRANCH   2   3
ATOM      3  O   UNL     1       3.245   6.790  19.027  0.00  0.00    +0.000 OA
BRANCH   3   9
ATOM      4  C   UNL     1       3.711   4.677  17.796  0.00  0.00    +0.000 A 
ATOM      5  C   UNL     1       4.360   4.140  16.667  0.00  0.00    +0.000 A 
ATOM      6  C   UNL     1       5.126   4.926  15.791  0.00  0.00    +0.000 A 
ATOM      7  C   UNL     1       5.204   6.301  16.025  0.00  0.00    +0.000 A 
ATOM      8  C   UNL     1       4.525   6.861  17.110  0.00  0.00    +0.000 A 
ATOM      9  C   UNL     1       3.763   6.070  17.986  0.00  0.00    +0.000 A 
BRANCH   6  10
ATOM     10  C   UNL     1       5.883   4.294  14.648  0.00  0.00    +0.000 C 
ATOM     11  F   UNL     1       7.001   4.987  14.287  0.00  0.00    +0.000 F 
ATOM     12  F   UNL     1       6.306   3.031  14.930  0.00  0.00    +0.000 F 
ATOM     13  F   UNL     1       5.131   4.196  13.517  0.00  0.00    +0.000 F 
ENDBRANCH   6  10
BRANCH   4  14
ATOM     14  C   UNL     1       3.014   3.752  18.764  0.00  0.00    +0.000 C 
BRANCH  14  16
ATOM     15  C   UNL     1       0.996   4.012  20.216  0.00  0.00    +0.000 C 
ATOM     16  C   UNL     1       1.483   3.748  18.801  0.00  0.00    +0.000 C 
ENDBRANCH  14  16
ENDBRANCH   4  14
ENDBRANCH   3   9
ENDBRANCH   2   3
ENDBRANCH   1   2
BRANCH   1  17
ATOM     17  C   UNL     1       0.943   9.597  17.935  0.00  0.00    +0.000 C 
BRANCH  17  18
ATOM     18  O   UNL     1       0.326  10.019  19.152  0.00  0.00    +0.000 OA
BRANCH  18  19
ATOM     19  C   UNL     1      -0.886  10.635  19.032  0.00  0.00    +0.000 A 
ATOM     20  C   UNL     1      -1.709  10.180  18.010  0.00  0.00    +0.000 A 
ATOM     21  C   UNL     1      -2.986  10.723  17.851  0.00  0.00    +0.000 A 
ATOM     22  C   UNL     1      -3.477  11.715  18.718  0.00  0.00    +0.000 A 
ATOM     23  C   UNL     1      -2.642  12.202  19.735  0.00  0.00    +0.000 A 
ATOM     24  C   UNL     1      -2.944  13.301  20.713  0.00  0.00    +0.000 C 
ATOM     25  C   UNL     1      -1.355  11.629  19.884  0.00  0.00    +0.000 A 
BRANCH  22  26
ATOM     26  O   UNL     1      -4.747  12.113  18.389  0.00  0.00    +0.000 OA
BRANCH  26  27
ATOM     27  C   UNL     1      -5.591  11.180  17.711  0.00  0.00    +0.000 C 
BRANCH  27  28
ATOM     28  C   UNL     1      -6.788  10.818  18.578  0.00  0.00    +0.000 C 
ATOM     29  O   UNL     1      -6.947   9.721  19.097  0.00  0.00    +0.000 OA
BRANCH  28  30
ATOM     30  O   UNL     1      -7.665  11.839  18.732  0.00  0.00    +0.000 OA
ATOM     31  H   UNL     1      -8.106  11.770  19.606  0.00  0.00    +0.000 HD
ENDBRANCH  28  30
ENDBRANCH  27  28
ENDBRANCH  26  27
ENDBRANCH  22  26
ENDBRANCH  18  19
ENDBRANCH  17  18
ENDBRANCH   1  17
TORSDOF 13
ENDMDL
MODEL 9
REMARK VINA RESULT:      -7.1      7.265      8.866
REMARK  Name = 
REMARK  15 active torsions:
REMARK  status: ('A' for Active; 'I' for Inactive)
REMARK    1  A    between atoms: C_1  and  C_2
REMARK    2  A    between atoms: C_2  and  C_3
REMARK    3  A    between atoms: C_3  and  C_4
REMARK    4  A    between atoms: C_6  and  C_7
REMARK    5  A    between atoms: C_13  and  O_14
REMARK    6  A    between atoms: O_14  and  C_15
REMARK    7  A    between atoms: C_15  and  C_16
REMARK    8  A    between atoms: C_16  and  C_17
REMARK    9  A    between atoms: C_17  and  O_18
REMARK   10  A    between atoms: O_18  and  C_19
REMARK   11  A    between atoms: C_22  and  O_23
REMARK   12  A    between atoms: O_23  and  C_24
REMARK   13  A    between atoms: C_24  and  C_25
REMARK   14  A    between atoms: C_25  and  O_27
REMARK   15  A    between atoms: C_28  and  C_29
REMARK                            x       y       z     vdW  Elec       q    Type
REMARK                         _______ _______ _______ _____ _____    ______ ____
ROOT
ATOM      1  C   UNL     1       1.355   9.111  17.752  0.00  0.00    +0.000 C 
ENDROOT
BRANCH   1   2
ATOM      2  C   UNL     1       2.367   8.283  18.548  0.00  0.00    +0.000 C 
BRANCH   2   3
ATOM      3  O   UNL     1       3.195   7.542  17.659  0.00  0.00    +0.000 OA
BRANCH   3   9
ATOM      4  C   UNL     1       4.350   5.383  17.212  0.00  0.00    +0.000 A 
ATOM      5  C   UNL     1       4.375   4.017  17.552  0.00  0.00    +0.000 A 
ATOM      6  C   UNL     1       3.449   3.443  18.440  0.00  0.00    +0.000 A 
ATOM      7  C   UNL     1       2.501   4.273  19.042  0.00  0.00    +0.000 A 
ATOM      8  C   UNL     1       2.493   5.640  18.757  0.00  0.00    +0.000 A 
ATOM      9  C   UNL     1       3.418   6.209  17.867  0.00  0.00    +0.000 A 
BRANCH   6  10
ATOM     10  C   UNL     1       3.452   1.956  18.702  0.00  0.00    +0.000 C 
ATOM     11  F   UNL     1       3.778   1.212  17.607  0.00  0.00    +0.000 F 
ATOM     12  F   UNL     1       4.333   1.593  19.673  0.00  0.00    +0.000 F 
ATOM     13  F   UNL     1       2.235   1.498  19.108  0.00  0.00    +0.000 F 
ENDBRANCH   6  10
BRANCH   4  14
ATOM     14  C   UNL     1       5.292   5.903  16.153  0.00  0.00    +0.000 C 
BRANCH  14  16
ATOM     15  C   UNL     1       7.185   6.840  17.490  0.00  0.00    +0.000 C 
ATOM     16  C   UNL     1       6.800   5.836  16.416  0.00  0.00    +0.000 C 
ENDBRANCH  14  16
ENDBRANCH   4  14
ENDBRANCH   3   9
ENDBRANCH   2   3
ENDBRANCH   1   2
BRANCH   1  17
ATOM     17  C   UNL     1       1.284  10.572  18.212  0.00  0.00    +0.000 C 
BRANCH  17  18
ATOM     18  O   UNL     1      -0.068  10.910  18.524  0.00  0.00    +0.000 OA
BRANCH  18  19
ATOM     19  C   UNL     1      -0.320  11.259  19.819  0.00  0.00    +0.000 A 
ATOM     20  C   UNL     1      -0.656  12.588  20.043  0.00  0.00    +0.000 A 
ATOM     21  C   UNL     1      -0.978  13.017  21.332  0.00  0.00    +0.000 A 
ATOM     22  C   UNL     1      -0.993  12.128  22.421  0.00  0.00    +0.000 A 
ATOM     23  C   UNL     1      -0.626  10.789  22.210  0.00  0.00    +0.000 A 
ATOM     24  C   UNL     1      -0.507   9.705  23.242  0.00  0.00    +0.000 C 
ATOM     25  C   UNL     1      -0.314  10.376  20.892  0.00  0.00    +0.000 A 
BRANCH  22  26
ATOM     26  O   UNL     1      -1.331  12.747  23.596  0.00  0.00    +0.000 OA
BRANCH  26  27
ATOM     27  C   UNL     1      -2.467  13.615  23.597  0.00  0.00    +0.000 C 
BRANCH  27  28
ATOM     28  C   UNL     1      -3.742  12.823  23.850  0.00  0.00    +0.000 C 
ATOM     29  O   UNL     1      -4.351  12.216  22.979  0.00  0.00    +0.000 OA
BRANCH  28  30
ATOM     30  O   UNL     1      -4.137  12.845  25.145  0.00  0.00    +0.000 OA
ATOM     31  H   UNL     1      -3.475  13.329  25.686  0.00  0.00    +0.000 HD
ENDBRANCH  28  30
ENDBRANCH  27  28
ENDBRANCH  26  27
ENDBRANCH  22  26
ENDBRANCH  18  19
ENDBRANCH  17  18
ENDBRANCH   1  17
TORSDOF 13
ENDMDL
