MODEL 1
REMARK VINA RESULT:      -6.3      0.000      0.000
REMARK  Name = 
REMARK  10 active torsions:
REMARK  status: ('A' for Active; 'I' for Inactive)
REMARK    1  A    between atoms: C_1  and  C_2
REMARK    2  A    between atoms: C_2  and  C_3
REMARK    3  A    between atoms: C_2  and  C_4
REMARK    4  A    between atoms: C_2  and  S_5
REMARK    5  A    between atoms: S_5  and  C_6
REMARK    6  A    between atoms: C_6  and  C_7
REMARK    7  A    between atoms: C_7  and  N_8
REMARK    8  A    between atoms: C_9  and  C_11
REMARK    9  A    between atoms: C_11  and  O_12
REMARK   10  A    between atoms: O_12  and  C_13
REMARK                            x       y       z     vdW  Elec       q    Type
REMARK                         _______ _______ _______ _____ _____    ______ ____
ROOT
ATOM      1  N   UNL     1       7.819   6.769  18.602  0.00  0.00    +0.000 N 
ATOM      2  C   UNL     1       7.507   7.649  17.589  0.00  0.00    +0.000 C 
ATOM      3  O   UNL     1       6.859   7.319  16.596  0.00  0.00    +0.000 OA
ATOM      4  H   UNL     1       8.457   7.053  19.337  0.00  0.00    +0.000 HD
ENDROOT
BRANCH   1   5
ATOM      5  C   UNL     1       7.423   5.371  18.553  0.00  0.00    +0.000 C 
BRANCH   5   6
ATOM      6  C   UNL     1       6.037   5.102  19.151  0.00  0.00    +0.000 C 
BRANCH   6   7
ATOM      7  S   UNL     1       4.849   4.540  17.868  0.00  0.00    +0.000 S 
BRANCH   7   9
ATOM      8  C   UNL     1       3.173   5.368  19.943  0.00  0.00    +0.000 C 
ATOM      9  C   UNL     1       3.275   5.357  18.414  0.00  0.00    +0.000 C 
ATOM     10  C   UNL     1       2.054   4.664  17.797  0.00  0.00    +0.000 C 
ATOM     11  C   UNL     1       3.325   6.812  17.913  0.00  0.00    +0.000 C 
ENDBRANCH   7   9
ENDBRANCH   6   7
ENDBRANCH   5   6
ENDBRANCH   1   5
BRANCH   2  12
ATOM     12  C   UNL     1       8.042   9.065  17.781  0.00  0.00    +0.000 C 
BRANCH  12  13
ATOM     13  O   UNL     1       8.894   9.112  18.922  0.00  0.00    +0.000 OA
BRANCH  13  14
ATOM     14  C   UNL     1       9.391  10.342  19.265  0.00  0.00    +0.000 A 
ATOM     15  C   UNL     1       9.486  10.850  20.562  0.00  0.00    +0.000 A 
ATOM     16  C   UNL     1      10.002  12.132  20.781  0.00  0.00    +0.000 A 
ATOM     17  C   UNL     1      10.423  12.905  19.703  0.00  0.00    +0.000 A 
ATOM     18 CL   UNL     1      11.053  14.484  19.979  0.00  0.00    +0.000 Cl
ATOM     19  C   UNL     1      10.338  12.409  18.406  0.00  0.00    +0.000 A 
ATOM     20  C   UNL     1       9.820  11.127  18.189  0.00  0.00    +0.000 A 
ENDBRANCH  13  14
ENDBRANCH  12  13
ENDBRANCH   2  12
TORSDOF 7
ENDMDL
MODEL 2
REMARK VINA RESULT:      -6.2      1.230      1.901
REMARK  Name = 
REMARK  10 active torsions:
REMARK  status: ('A' for Active; 'I' for Inactive)
REMARK    1  A    between atoms: C_1  and  C_2
REMARK    2  A    between atoms: C_2  and  C_3
REMARK    3  A    between atoms: C_2  and  C_4
REMARK    4  A    between atoms: C_2  and  S_5
REMARK    5  A    between atoms: S_5  and  C_6
REMARK    6  A    between atoms: C_6  and  C_7
REMARK    7  A    between atoms: C_7  and  N_8
REMARK    8  A    between atoms: C_9  and  C_11
REMARK    9  A    between atoms: C_11  and  O_12
REMARK   10  A    between atoms: O_12  and  C_13
REMARK                            x       y       z     vdW  Elec       q    Type
REMARK                         _______ _______ _______ _____ _____    ______ ____
ROOT
ATOM      1  N   UNL     1       7.366   6.516  16.518  0.00  0.00    +0.000 N 
ATOM      2  C   UNL     1       7.611   7.068  17.757  0.00  0.00    +0.000 C 
ATOM      3  O   UNL     1       7.576   6.411  18.797  0.00  0.00    +0.000 OA
ATOM      4  H   UNL     1       7.286   7.118  15.706  0.00  0.00    +0.000 HD
ENDROOT
BRANCH   1   5
ATOM      5  C   UNL     1       7.019   5.114  16.357  0.00  0.00    +0.000 C 
BRANCH   5   6
ATOM      6  C   UNL     1       5.510   4.860  16.268  0.00  0.00    +0.000 C 
BRANCH   6   7
ATOM      7  S   UNL     1       4.860   4.119  17.819  0.00  0.00    +0.000 S 
BRANCH   7   9
ATOM      8  C   UNL     1       2.134   4.723  17.786  0.00  0.00    +0.000 C 
ATOM      9  C   UNL     1       3.481   5.282  18.255  0.00  0.00    +0.000 C 
ATOM     10  C   UNL     1       3.727   6.672  17.656  0.00  0.00    +0.000 C 
ATOM     11  C   UNL     1       3.460   5.400  19.790  0.00  0.00    +0.000 C 
ENDBRANCH   7   9
ENDBRANCH   6   7
ENDBRANCH   5   6
ENDBRANCH   1   5
BRANCH   2  12
ATOM     12  C   UNL     1       7.914   8.563  17.745  0.00  0.00    +0.000 C 
BRANCH  12  13
ATOM     13  O   UNL     1       8.788   8.891  18.820  0.00  0.00    +0.000 OA
BRANCH  13  14
ATOM     14  C   UNL     1       9.111  10.214  18.966  0.00  0.00    +0.000 A 
ATOM     15  C   UNL     1       9.052  11.183  17.963  0.00  0.00    +0.000 A 
ATOM     16  C   UNL     1       9.425  12.504  18.236  0.00  0.00    +0.000 A 
ATOM     17  C   UNL     1       9.855  12.856  19.512  0.00  0.00    +0.000 A 
ATOM     18 CL   UNL     1      10.316  14.482  19.839  0.00  0.00    +0.000 Cl
ATOM     19  C   UNL     1       9.914  11.900  20.522  0.00  0.00    +0.000 A 
ATOM     20  C   UNL     1       9.544  10.580  20.246  0.00  0.00    +0.000 A 
ENDBRANCH  13  14
ENDBRANCH  12  13
ENDBRANCH   2  12
TORSDOF 7
ENDMDL
MODEL 3
REMARK VINA RESULT:      -6.1      5.816      7.221
REMARK  Name = 
REMARK  10 active torsions:
REMARK  status: ('A' for Active; 'I' for Inactive)
REMARK    1  A    between atoms: C_1  and  C_2
REMARK    2  A    between atoms: C_2  and  C_3
REMARK    3  A    between atoms: C_2  and  C_4
REMARK    4  A    between atoms: C_2  and  S_5
REMARK    5  A    between atoms: S_5  and  C_6
REMARK    6  A    between atoms: C_6  and  C_7
REMARK    7  A    between atoms: C_7  and  N_8
REMARK    8  A    between atoms: C_9  and  C_11
REMARK    9  A    between atoms: C_11  and  O_12
REMARK   10  A    between atoms: O_12  and  C_13
REMARK                            x       y       z     vdW  Elec       q    Type
REMARK                         _______ _______ _______ _____ _____    ______ ____
ROOT
ATOM      1  N   UNL     1       5.348   5.369  18.460  0.00  0.00    +0.000 N 
ATOM      2  C   UNL     1       6.676   5.149  18.757  0.00  0.00    +0.000 C 
ATOM      3  O   UNL     1       7.136   5.284  19.891  0.00  0.00    +0.000 OA
ATOM      4  H   UNL     1       5.042   5.365  17.494  0.00  0.00    +0.000 HD
ENDROOT
BRANCH   1   5
ATOM      5  C   UNL     1       4.398   5.806  19.468  0.00  0.00    +0.000 C 
BRANCH   5   6
ATOM      6  C   UNL     1       2.946   5.832  18.977  0.00  0.00    +0.000 C 
BRANCH   6   7
ATOM      7  S   UNL     1       1.922   4.573  19.837  0.00  0.00    +0.000 S 
BRANCH   7   9
ATOM      8  C   UNL     1       3.276   2.203  19.246  0.00  0.00    +0.000 C 
ATOM      9  C   UNL     1       2.132   3.089  18.742  0.00  0.00    +0.000 C 
ATOM     10  C   UNL     1       2.375   3.511  17.289  0.00  0.00    +0.000 C 
ATOM     11  C   UNL     1       0.819   2.289  18.813  0.00  0.00    +0.000 C 
ENDBRANCH   7   9
ENDBRANCH   6   7
ENDBRANCH   5   6
ENDBRANCH   1   5
BRANCH   2  12
ATOM     12  C   UNL     1       7.541   4.740  17.568  0.00  0.00    +0.000 C 
BRANCH  12  13
ATOM     13  O   UNL     1       7.281   5.598  16.461  0.00  0.00    +0.000 OA
BRANCH  13  14
ATOM     14  C   UNL     1       6.908   4.991  15.290  0.00  0.00    +0.000 A 
ATOM     15  C   UNL     1       7.580   5.090  14.071  0.00  0.00    +0.000 A 
ATOM     16  C   UNL     1       7.087   4.432  12.938  0.00  0.00    +0.000 A 
ATOM     17  C   UNL     1       5.924   3.674  13.027  0.00  0.00    +0.000 A 
ATOM     18 CL   UNL     1       5.320   2.870  11.629  0.00  0.00    +0.000 Cl
ATOM     19  C   UNL     1       5.246   3.564  14.237  0.00  0.00    +0.000 A 
ATOM     20  C   UNL     1       5.740   4.225  15.367  0.00  0.00    +0.000 A 
ENDBRANCH  13  14
ENDBRANCH  12  13
ENDBRANCH   2  12
TORSDOF 7
ENDMDL
MODEL 4
REMARK VINA RESULT:      -6.1      5.903      6.770
REMARK  Name = 
REMARK  10 active torsions:
REMARK  status: ('A' for Active; 'I' for Inactive)
REMARK    1  A    between atoms: C_1  and  C_2
REMARK    2  A    between atoms: C_2  and  C_3
REMARK    3  A    between atoms: C_2  and  C_4
REMARK    4  A    between atoms: C_2  and  S_5
REMARK    5  A    between atoms: S_5  and  C_6
REMARK    6  A    between atoms: C_6  and  C_7
REMARK    7  A    between atoms: C_7  and  N_8
REMARK    8  A    between atoms: C_9  and  C_11
REMARK    9  A    between atoms: C_11  and  O_12
REMARK   10  A    between atoms: O_12  and  C_13
REMARK                            x       y       z     vdW  Elec       q    Type
REMARK                         _______ _______ _______ _____ _____    ______ ____
ROOT
ATOM      1  N   UNL     1       3.611   4.800  17.551  0.00  0.00    +0.000 N 
ATOM      2  C   UNL     1       4.313   5.884  17.070  0.00  0.00    +0.000 C 
ATOM      3  O   UNL     1       5.273   5.771  16.308  0.00  0.00    +0.000 OA
ATOM      4  H   UNL     1       2.909   4.934  18.270  0.00  0.00    +0.000 HD
ENDROOT
BRANCH   1   5
ATOM      5  C   UNL     1       3.976   3.436  17.208  0.00  0.00    +0.000 C 
BRANCH   5   6
ATOM      6  C   UNL     1       3.471   2.392  18.212  0.00  0.00    +0.000 C 
BRANCH   6   7
ATOM      7  S   UNL     1       3.531   3.030  19.933  0.00  0.00    +0.000 S 
BRANCH   7   9
ATOM      8  C   UNL     1       0.863   2.551  19.262  0.00  0.00    +0.000 C 
ATOM      9  C   UNL     1       1.729   3.202  20.346  0.00  0.00    +0.000 C 
ATOM     10  C   UNL     1       1.347   4.675  20.531  0.00  0.00    +0.000 C 
ATOM     11  C   UNL     1       1.499   2.459  21.674  0.00  0.00    +0.000 C 
ENDBRANCH   7   9
ENDBRANCH   6   7
ENDBRANCH   5   6
ENDBRANCH   1   5
BRANCH   2  12
ATOM     12  C   UNL     1       3.822   7.240  17.569  0.00  0.00    +0.000 C 
BRANCH  12  13
ATOM     13  O   UNL     1       3.064   7.072  18.763  0.00  0.00    +0.000 OA
BRANCH  13  14
ATOM     14  C   UNL     1       2.131   8.038  19.037  0.00  0.00    +0.000 A 
ATOM     15  C   UNL     1       1.583   8.309  20.292  0.00  0.00    +0.000 A 
ATOM     16  C   UNL     1       0.623   9.317  20.440  0.00  0.00    +0.000 A 
ATOM     17  C   UNL     1       0.211  10.052  19.332  0.00  0.00    +0.000 A 
ATOM     18 CL   UNL     1      -0.974  11.286  19.520  0.00  0.00    +0.000 Cl
ATOM     19  C   UNL     1       0.752   9.793  18.076  0.00  0.00    +0.000 A 
ATOM     20  C   UNL     1       1.710   8.784  17.931  0.00  0.00    +0.000 A 
ENDBRANCH  13  14
ENDBRANCH  12  13
ENDBRANCH   2  12
TORSDOF 7
ENDMDL
MODEL 5
REMARK VINA RESULT:      -6.1      5.789      7.265
REMARK  Name = 
REMARK  10 active torsions:
REMARK  status: ('A' for Active; 'I' for Inactive)
REMARK    1  A    between atoms: C_1  and  C_2
REMARK    2  A    between atoms: C_2  and  C_3
REMARK    3  A    between atoms: C_2  and  C_4
REMARK    4  A    between atoms: C_2  and  S_5
REMARK    5  A    between atoms: S_5  and  C_6
REMARK    6  A    between atoms: C_6  and  C_7
REMARK    7  A    between atoms: C_7  and  N_8
REMARK    8  A    between atoms: C_9  and  C_11
REMARK    9  A    between atoms: C_11  and  O_12
REMARK   10  A    between atoms: O_12  and  C_13
REMARK                            x       y       z     vdW  Elec       q    Type
REMARK                         _______ _______ _______ _____ _____    ______ ____
ROOT
ATOM      1  N   UNL     1       5.329   5.665  18.246  0.00  0.00    +0.000 N 
ATOM      2  C   UNL     1       6.586   5.253  18.633  0.00  0.00    +0.000 C 
ATOM      3  O   UNL     1       6.963   5.274  19.805  0.00  0.00    +0.000 OA
ATOM      4  H   UNL     1       5.107   5.745  17.261  0.00  0.00    +0.000 HD
ENDROOT
BRANCH   1   5
ATOM      5  C   UNL     1       4.363   6.181  19.201  0.00  0.00    +0.000 C 
BRANCH   5   6
ATOM      6  C   UNL     1       3.006   5.468  19.152  0.00  0.00    +0.000 C 
BRANCH   6   7
ATOM      7  S   UNL     1       3.100   3.793  19.900  0.00  0.00    +0.000 S 
BRANCH   7   9
ATOM      8  C   UNL     1       2.593   3.460  17.174  0.00  0.00    +0.000 C 
ATOM      9  C   UNL     1       2.507   2.715  18.510  0.00  0.00    +0.000 C 
ATOM     10  C   UNL     1       1.075   2.229  18.767  0.00  0.00    +0.000 C 
ATOM     11  C   UNL     1       3.443   1.494  18.457  0.00  0.00    +0.000 C 
ENDBRANCH   7   9
ENDBRANCH   6   7
ENDBRANCH   5   6
ENDBRANCH   1   5
BRANCH   2  12
ATOM     12  C   UNL     1       7.487   4.785  17.494  0.00  0.00    +0.000 C 
BRANCH  12  13
ATOM     13  O   UNL     1       7.301   5.617  16.354  0.00  0.00    +0.000 OA
BRANCH  13  14
ATOM     14  C   UNL     1       6.922   4.991  15.194  0.00  0.00    +0.000 A 
ATOM     15  C   UNL     1       7.551   5.124  13.954  0.00  0.00    +0.000 A 
ATOM     16  C   UNL     1       7.057   4.440  12.837  0.00  0.00    +0.000 A 
ATOM     17  C   UNL     1       5.936   3.626  12.960  0.00  0.00    +0.000 A 
ATOM     18 CL   UNL     1       5.330   2.792  11.581  0.00  0.00    +0.000 Cl
ATOM     19  C   UNL     1       5.302   3.483  14.191  0.00  0.00    +0.000 A 
ATOM     20  C   UNL     1       5.797   4.169  15.306  0.00  0.00    +0.000 A 
ENDBRANCH  13  14
ENDBRANCH  12  13
ENDBRANCH   2  12
TORSDOF 7
ENDMDL
MODEL 6
REMARK VINA RESULT:      -6.1      4.127      8.673
REMARK  Name = 
REMARK  10 active torsions:
REMARK  status: ('A' for Active; 'I' for Inactive)
REMARK    1  A    between atoms: C_1  and  C_2
REMARK    2  A    between atoms: C_2  and  C_3
REMARK    3  A    between atoms: C_2  and  C_4
REMARK    4  A    between atoms: C_2  and  S_5
REMARK    5  A    between atoms: S_5  and  C_6
REMARK    6  A    between atoms: C_6  and  C_7
REMARK    7  A    between atoms: C_7  and  N_8
REMARK    8  A    between atoms: C_9  and  C_11
REMARK    9  A    between atoms: C_11  and  O_12
REMARK   10  A    between atoms: O_12  and  C_13
REMARK                            x       y       z     vdW  Elec       q    Type
REMARK                         _______ _______ _______ _____ _____    ______ ____
ROOT
ATOM      1  N   UNL     1       8.376   7.962  18.633  0.00  0.00    +0.000 N 
ATOM      2  C   UNL     1       7.711   7.046  17.847  0.00  0.00    +0.000 C 
ATOM      3  O   UNL     1       7.256   7.326  16.737  0.00  0.00    +0.000 OA
ATOM      4  H   UNL     1       8.623   7.722  19.586  0.00  0.00    +0.000 HD
ENDROOT
BRANCH   1   5
ATOM      5  C   UNL     1       8.564   9.341  18.213  0.00  0.00    +0.000 C 
BRANCH   5   6
ATOM      6  C   UNL     1       9.189  10.233  19.292  0.00  0.00    +0.000 C 
BRANCH   6   7
ATOM      7  S   UNL     1       9.431  11.951  18.686  0.00  0.00    +0.000 S 
BRANCH   7   9
ATOM      8  C   UNL     1      11.956  11.817  19.871  0.00  0.00    +0.000 C 
ATOM      9  C   UNL     1      10.654  12.624  19.908  0.00  0.00    +0.000 C 
ATOM     10  C   UNL     1      10.064  12.634  21.324  0.00  0.00    +0.000 C 
ATOM     11  C   UNL     1      10.959  14.073  19.488  0.00  0.00    +0.000 C 
ENDBRANCH   7   9
ENDBRANCH   6   7
ENDBRANCH   5   6
ENDBRANCH   1   5
BRANCH   2  12
ATOM     12  C   UNL     1       7.563   5.658  18.464  0.00  0.00    +0.000 C 
BRANCH  12  13
ATOM     13  O   UNL     1       6.935   4.779  17.537  0.00  0.00    +0.000 OA
BRANCH  13  14
ATOM     14  C   UNL     1       5.611   4.500  17.758  0.00  0.00    +0.000 A 
ATOM     15  C   UNL     1       4.704   4.041  16.801  0.00  0.00    +0.000 A 
ATOM     16  C   UNL     1       3.369   3.806  17.150  0.00  0.00    +0.000 A 
ATOM     17  C   UNL     1       2.943   4.028  18.456  0.00  0.00    +0.000 A 
ATOM     18 CL   UNL     1       1.299   3.740  18.878  0.00  0.00    +0.000 Cl
ATOM     19  C   UNL     1       3.839   4.481  19.420  0.00  0.00    +0.000 A 
ATOM     20  C   UNL     1       5.172   4.718  19.068  0.00  0.00    +0.000 A 
ENDBRANCH  13  14
ENDBRANCH  12  13
ENDBRANCH   2  12
TORSDOF 7
ENDMDL
MODEL 7
REMARK VINA RESULT:      -6.1      4.794      6.972
REMARK  Name = 
REMARK  10 active torsions:
REMARK  status: ('A' for Active; 'I' for Inactive)
REMARK    1  A    between atoms: C_1  and  C_2
REMARK    2  A    between atoms: C_2  and  C_3
REMARK    3  A    between atoms: C_2  and  C_4
REMARK    4  A    between atoms: C_2  and  S_5
REMARK    5  A    between atoms: S_5  and  C_6
REMARK    6  A    between atoms: C_6  and  C_7
REMARK    7  A    between atoms: C_7  and  N_8
REMARK    8  A    between atoms: C_9  and  C_11
REMARK    9  A    between atoms: C_11  and  O_12
REMARK   10  A    between atoms: O_12  and  C_13
REMARK                            x       y       z     vdW  Elec       q    Type
REMARK                         _______ _______ _______ _____ _____    ______ ____
ROOT
ATOM      1  N   UNL     1       3.572   4.022  18.379  0.00  0.00    +0.000 N 
ATOM      2  C   UNL     1       2.215   4.239  18.466  0.00  0.00    +0.000 C 
ATOM      3  O   UNL     1       1.417   3.811  17.633  0.00  0.00    +0.000 OA
ATOM      4  H   UNL     1       4.200   4.496  19.018  0.00  0.00    +0.000 HD
ENDROOT
BRANCH   1   5
ATOM      5  C   UNL     1       4.163   3.287  17.273  0.00  0.00    +0.000 C 
BRANCH   5   6
ATOM      6  C   UNL     1       4.915   4.177  16.275  0.00  0.00    +0.000 C 
BRANCH   6   7
ATOM      7  S   UNL     1       5.153   5.874  16.934  0.00  0.00    +0.000 S 
BRANCH   7   9
ATOM      8  C   UNL     1       7.610   4.582  17.242  0.00  0.00    +0.000 C 
ATOM      9  C   UNL     1       6.767   5.716  17.837  0.00  0.00    +0.000 C 
ATOM     10  C   UNL     1       6.537   5.489  19.335  0.00  0.00    +0.000 C 
ATOM     11  C   UNL     1       7.522   7.044  17.646  0.00  0.00    +0.000 C 
ENDBRANCH   7   9
ENDBRANCH   6   7
ENDBRANCH   5   6
ENDBRANCH   1   5
BRANCH   2  12
ATOM     12  C   UNL     1       1.773   5.070  19.668  0.00  0.00    +0.000 C 
BRANCH  12  13
ATOM     13  O   UNL     1       2.653   6.175  19.844  0.00  0.00    +0.000 OA
BRANCH  13  14
ATOM     14  C   UNL     1       2.109   7.423  19.689  0.00  0.00    +0.000 A 
ATOM     15  C   UNL     1       1.449   8.153  20.679  0.00  0.00    +0.000 A 
ATOM     16  C   UNL     1       0.922   9.417  20.390  0.00  0.00    +0.000 A 
ATOM     17  C   UNL     1       1.055   9.950  19.111  0.00  0.00    +0.000 A 
ATOM     18 CL   UNL     1       0.399  11.503  18.761  0.00  0.00    +0.000 Cl
ATOM     19  C   UNL     1       1.713   9.233  18.116  0.00  0.00    +0.000 A 
ATOM     20  C   UNL     1       2.237   7.969  18.407  0.00  0.00    +0.000 A 
ENDBRANCH  13  14
ENDBRANCH  12  13
ENDBRANCH   2  12
TORSDOF 7
ENDMDL
MODEL 8
REMARK VINA RESULT:      -6.1      0.809      1.482
REMARK  Name = 
REMARK  10 active torsions:
REMARK  status: ('A' for Active; 'I' for Inactive)
REMARK    1  A    between atoms: C_1  and  C_2
REMARK    2  A    between atoms: C_2  and  C_3
REMARK    3  A    between atoms: C_2  and  C_4
REMARK    4  A    between atoms: C_2  and  S_5
REMARK    5  A    between atoms: S_5  and  C_6
REMARK    6  A    between atoms: C_6  and  C_7
REMARK    7  A    between atoms: C_7  and  N_8
REMARK    8  A    between atoms: C_9  and  C_11
REMARK    9  A    between atoms: C_11  and  O_12
REMARK   10  A    between atoms: O_12  and  C_13
REMARK                            x       y       z     vdW  Elec       q    Type
REMARK                         _______ _______ _______ _____ _____    ______ ____
ROOT
ATOM      1  N   UNL     1       7.538   6.641  18.677  0.00  0.00    +0.000 N 
ATOM      2  C   UNL     1       7.677   7.354  17.506  0.00  0.00    +0.000 C 
ATOM      3  O   UNL     1       7.562   6.837  16.395  0.00  0.00    +0.000 OA
ATOM      4  H   UNL     1       7.762   7.081  19.563  0.00  0.00    +0.000 HD
ENDROOT
BRANCH   1   5
ATOM      5  C   UNL     1       7.272   5.213  18.680  0.00  0.00    +0.000 C 
BRANCH   5   6
ATOM      6  C   UNL     1       5.896   4.844  19.248  0.00  0.00    +0.000 C 
BRANCH   6   7
ATOM      7  S   UNL     1       4.541   5.381  18.130  0.00  0.00    +0.000 S 
BRANCH   7   9
ATOM      8  C   UNL     1       2.928   4.109  20.022  0.00  0.00    +0.000 C 
ATOM      9  C   UNL     1       3.209   4.148  18.516  0.00  0.00    +0.000 C 
ATOM     10  C   UNL     1       3.587   2.754  18.001  0.00  0.00    +0.000 C 
ATOM     11  C   UNL     1       1.936   4.617  17.788  0.00  0.00    +0.000 C 
ENDBRANCH   7   9
ENDBRANCH   6   7
ENDBRANCH   5   6
ENDBRANCH   1   5
BRANCH   2  12
ATOM     12  C   UNL     1       8.002   8.833  17.689  0.00  0.00    +0.000 C 
BRANCH  12  13
ATOM     13  O   UNL     1       8.763   9.020  18.877  0.00  0.00    +0.000 OA
BRANCH  13  14
ATOM     14  C   UNL     1       9.351  10.247  19.042  0.00  0.00    +0.000 A 
ATOM     15  C   UNL     1       9.871  11.045  18.021  0.00  0.00    +0.000 A 
ATOM     16  C   UNL     1      10.462  12.277  18.322  0.00  0.00    +0.000 A 
ATOM     17  C   UNL     1      10.533  12.711  19.642  0.00  0.00    +0.000 A 
ATOM     18 CL   UNL     1      11.266  14.226  20.005  0.00  0.00    +0.000 Cl
ATOM     19  C   UNL     1      10.015  11.927  20.668  0.00  0.00    +0.000 A 
ATOM     20  C   UNL     1       9.426  10.694  20.366  0.00  0.00    +0.000 A 
ENDBRANCH  13  14
ENDBRANCH  12  13
ENDBRANCH   2  12
TORSDOF 7
ENDMDL
MODEL 9
REMARK VINA RESULT:      -6.1      4.295      8.764
REMARK  Name = 
REMARK  10 active torsions:
REMARK  status: ('A' for Active; 'I' for Inactive)
REMARK    1  A    between atoms: C_1  and  C_2
REMARK    2  A    between atoms: C_2  and  C_3
REMARK    3  A    between atoms: C_2  and  C_4
REMARK    4  A    between atoms: C_2  and  S_5
REMARK    5  A    between atoms: S_5  and  C_6
REMARK    6  A    between atoms: C_6  and  C_7
REMARK    7  A    between atoms: C_7  and  N_8
REMARK    8  A    between atoms: C_9  and  C_11
REMARK    9  A    between atoms: C_11  and  O_12
REMARK   10  A    between atoms: O_12  and  C_13
REMARK                            x       y       z     vdW  Elec       q    Type
REMARK                         _______ _______ _______ _____ _____    ______ ____
ROOT
ATOM      1  N   UNL     1       7.871   8.180  17.587  0.00  0.00    +0.000 N 
ATOM      2  C   UNL     1       7.433   6.888  17.785  0.00  0.00    +0.000 C 
ATOM      3  O   UNL     1       7.720   6.234  18.787  0.00  0.00    +0.000 OA
ATOM      4  H   UNL     1       7.713   8.633  16.694  0.00  0.00    +0.000 HD
ENDROOT
BRANCH   1   5
ATOM      5  C   UNL     1       8.731   8.854  18.545  0.00  0.00    +0.000 C 
BRANCH   5   6
ATOM      6  C   UNL     1       8.796  10.374  18.351  0.00  0.00    +0.000 C 
BRANCH   6   7
ATOM      7  S   UNL     1       9.509  11.209  19.824  0.00  0.00    +0.000 S 
BRANCH   7   9
ATOM      8  C   UNL     1      10.862  13.651  19.775  0.00  0.00    +0.000 C 
ATOM      9  C   UNL     1      10.806  12.296  19.062  0.00  0.00    +0.000 C 
ATOM     10  C   UNL     1      10.551  12.485  17.562  0.00  0.00    +0.000 C 
ATOM     11  C   UNL     1      12.158  11.583  19.249  0.00  0.00    +0.000 C 
ENDBRANCH   7   9
ENDBRANCH   6   7
ENDBRANCH   5   6
ENDBRANCH   1   5
BRANCH   2  12
ATOM     12  C   UNL     1       6.578   6.320  16.656  0.00  0.00    +0.000 C 
BRANCH  12  13
ATOM     13  O   UNL     1       5.230   6.755  16.801  0.00  0.00    +0.000 OA
BRANCH  13  14
ATOM     14  C   UNL     1       4.314   5.801  17.161  0.00  0.00    +0.000 A 
ATOM     15  C   UNL     1       4.355   4.454  16.798  0.00  0.00    +0.000 A 
ATOM     16  C   UNL     1       3.346   3.579  17.219  0.00  0.00    +0.000 A 
ATOM     17  C   UNL     1       2.298   4.053  18.002  0.00  0.00    +0.000 A 
ATOM     18 CL   UNL     1       1.058   2.973  18.512  0.00  0.00    +0.000 Cl
ATOM     19  C   UNL     1       2.248   5.393  18.374  0.00  0.00    +0.000 A 
ATOM     20  C   UNL     1       3.256   6.266  17.950  0.00  0.00    +0.000 A 
ENDBRANCH  13  14
ENDBRANCH  12  13
ENDBRANCH   2  12
TORSDOF 7
ENDMDL
