MODEL 1
REMARK VINA RESULT:      -7.8      0.000      0.000
REMARK  Name = 
REMARK  13 active torsions:
REMARK  status: ('A' for Active; 'I' for Inactive)
REMARK    1  A    between atoms: CD1_1  and  CG_2
REMARK    2  A    between atoms: CG_2  and  CD2_3
REMARK    3  A    between atoms: CG_2  and  CB_4
REMARK    4  A    between atoms: CB_4  and  CA_5
REMARK    5  A    between atoms: CA_5  and  N_6
REMARK    6  A    between atoms: CA_5  and  C_18
REMARK    7  A    between atoms: C_7  and  O_9
REMARK    8  A    between atoms: O_9  and  C_10
REMARK    9  A    between atoms: C_10  and  C_11
REMARK   10  A    between atoms: N_20  and  C_21
REMARK   11  A    between atoms: C_21  and  C_22
REMARK   12  A    between atoms: C_21  and  C_24
REMARK   13  A    between atoms: C_24  and  C_25
REMARK                            x       y       z     vdW  Elec       q    Type
REMARK                         _______ _______ _______ _____ _____    ______ ____
ROOT
ATOM      1  CA  LEU A   1       2.597   4.964  18.498  0.00  0.00    +0.000 C 
ENDROOT
BRANCH   1   2
ATOM      2  N   LEU A   1       2.520   6.276  17.830  0.00  0.00    +0.000 N 
ATOM      3  C   UNK A   0       2.292   7.450  18.489  0.00  0.00    +0.000 C 
ATOM      4  O   UNK A   0       2.297   7.585  19.700  0.00  0.00    +0.000 OA
ATOM      5  H   LEU A   1       2.399   6.313  16.825  0.00  0.00    +0.000 HD
BRANCH   3   6
ATOM      6  O   UNK A   0       1.989   8.420  17.590  0.00  0.00    +0.000 OA
BRANCH   6   7
ATOM      7  C   UNK A   0       2.041   9.768  18.080  0.00  0.00    +0.000 C 
BRANCH   7   8
ATOM      8  C   UNK A   0       0.680  10.291  18.465  0.00  0.00    +0.000 A 
ATOM      9  C   UNK A   0       0.536  11.298  19.434  0.00  0.00    +0.000 A 
ATOM     10  C   UNK A   0      -0.726  11.815  19.741  0.00  0.00    +0.000 A 
ATOM     11  C   UNK A   0      -1.859  11.327  19.091  0.00  0.00    +0.000 A 
ATOM     12  C   UNK A   0      -1.726  10.318  18.139  0.00  0.00    +0.000 A 
ATOM     13 CL   UNK A   0      -3.123   9.716  17.334  0.00  0.00    +0.000 Cl
ATOM     14  C   UNK A   0      -0.467   9.798  17.828  0.00  0.00    +0.000 A 
ENDBRANCH   7   8
ENDBRANCH   6   7
ENDBRANCH   3   6
ENDBRANCH   1   2
BRANCH   1  15
ATOM     15  C   LEU A   1       4.029   4.428  18.256  0.00  0.00    +0.000 C 
ATOM     16  O   LEU A   1       4.651   3.759  19.077  0.00  0.00    +0.000 OA
ATOM     17  N   UNK A   2       4.556   4.720  17.010  0.00  0.00    +0.000 N 
ATOM     18  H   UNK A   2       3.908   4.985  16.275  0.00  0.00    +0.000 HD
BRANCH  17  19
ATOM     19  C   UNK A   2       5.882   4.227  16.652  0.00  0.00    +0.000 C 
BRANCH  19  20
ATOM     20  C   UNK A   2       5.908   3.771  15.195  0.00  0.00    +0.000 C 
ATOM     21  O   UNK A   2       5.505   4.447  14.250  0.00  0.00    +0.000 OA
ENDBRANCH  19  20
BRANCH  19  22
ATOM     22  C   UNK A   2       6.971   5.291  16.850  0.00  0.00    +0.000 C 
BRANCH  22  23
ATOM     23  C   UNK A   2       6.629   6.312  17.942  0.00  0.00    +0.000 C 
ATOM     24  C   UNK A   2       6.810   7.760  17.460  0.00  0.00    +0.000 C 
ATOM     25  C   UNK A   2       8.237   8.113  17.836  0.00  0.00    +0.000 C 
ATOM     26  N   UNK A   2       8.480   7.307  18.991  0.00  0.00    +0.000 N 
ATOM     27  C   UNK A   2       7.613   6.247  19.093  0.00  0.00    +0.000 C 
ATOM     28  O   UNK A   2       7.681   5.373  19.942  0.00  0.00    +0.000 OA
ATOM     29  H   UNK A   2       9.266   7.393  19.625  0.00  0.00    +0.000 HD
ENDBRANCH  22  23
ENDBRANCH  19  22
ENDBRANCH  17  19
ENDBRANCH   1  15
BRANCH   1  30
ATOM     30  CB  LEU A   1       1.529   3.980  17.966  0.00  0.00    +0.000 C 
BRANCH  30  32
ATOM     31  CD1 LEU A   1       1.743   1.644  19.048  0.00  0.00    +0.000 C 
ATOM     32  CG  LEU A   1       0.958   2.954  18.977  0.00  0.00    +0.000 C 
ATOM     33  CD2 LEU A   1       0.918   3.586  20.375  0.00  0.00    +0.000 C 
ENDBRANCH  30  32
ENDBRANCH   1  30
TORSDOF 11
ENDMDL
MODEL 2
REMARK VINA RESULT:      -7.6      1.700      1.967
REMARK  Name = 
REMARK  13 active torsions:
REMARK  status: ('A' for Active; 'I' for Inactive)
REMARK    1  A    between atoms: CD1_1  and  CG_2
REMARK    2  A    between atoms: CG_2  and  CD2_3
REMARK    3  A    between atoms: CG_2  and  CB_4
REMARK    4  A    between atoms: CB_4  and  CA_5
REMARK    5  A    between atoms: CA_5  and  N_6
REMARK    6  A    between atoms: CA_5  and  C_18
REMARK    7  A    between atoms: C_7  and  O_9
REMARK    8  A    between atoms: O_9  and  C_10
REMARK    9  A    between atoms: C_10  and  C_11
REMARK   10  A    between atoms: N_20  and  C_21
REMARK   11  A    between atoms: C_21  and  C_22
REMARK   12  A    between atoms: C_21  and  C_24
REMARK   13  A    between atoms: C_24  and  C_25
REMARK                            x       y       z     vdW  Elec       q    Type
REMARK                         _______ _______ _______ _____ _____    ______ ____
ROOT
ATOM      1  CA  LEU A   1       2.726   4.980  18.453  0.00  0.00    +0.000 C 
ENDROOT
BRANCH   1   2
ATOM      2  N   LEU A   1       2.773   6.350  17.911  0.00  0.00    +0.000 N 
ATOM      3  C   UNK A   0       2.471   7.464  18.640  0.00  0.00    +0.000 C 
ATOM      4  O   UNK A   0       2.298   7.486  19.845  0.00  0.00    +0.000 OA
ATOM      5  H   LEU A   1       2.802   6.484  16.907  0.00  0.00    +0.000 HD
BRANCH   3   6
ATOM      6  O   UNK A   0       2.322   8.523  17.804  0.00  0.00    +0.000 OA
BRANCH   6   7
ATOM      7  C   UNK A   0       1.097   9.260  17.936  0.00  0.00    +0.000 C 
BRANCH   7   8
ATOM      8  C   UNK A   0       1.282  10.543  18.708  0.00  0.00    +0.000 A 
ATOM      9  C   UNK A   0       0.715  10.711  19.981  0.00  0.00    +0.000 A 
ATOM     10  C   UNK A   0       0.940  11.883  20.712  0.00  0.00    +0.000 A 
ATOM     11  C   UNK A   0       1.725  12.902  20.174  0.00  0.00    +0.000 A 
ATOM     12  C   UNK A   0       2.278  12.748  18.904  0.00  0.00    +0.000 A 
ATOM     13 CL   UNK A   0       3.250  14.004  18.240  0.00  0.00    +0.000 Cl
ATOM     14  C   UNK A   0       2.057  11.580  18.171  0.00  0.00    +0.000 A 
ENDBRANCH   7   8
ENDBRANCH   6   7
ENDBRANCH   3   6
ENDBRANCH   1   2
BRANCH   1  15
ATOM     15  C   LEU A   1       4.109   4.345  18.172  0.00  0.00    +0.000 C 
ATOM     16  O   LEU A   1       4.657   3.548  18.930  0.00  0.00    +0.000 OA
ATOM     17  N   UNK A   2       4.679   4.706  16.963  0.00  0.00    +0.000 N 
ATOM     18  H   UNK A   2       4.069   5.095  16.252  0.00  0.00    +0.000 HD
BRANCH  17  19
ATOM     19  C   UNK A   2       5.963   4.134  16.570  0.00  0.00    +0.000 C 
BRANCH  19  20
ATOM     20  C   UNK A   2       6.062   4.038  15.050  0.00  0.00    +0.000 C 
ATOM     21  O   UNK A   2       5.161   4.354  14.276  0.00  0.00    +0.000 OA
ENDBRANCH  19  20
BRANCH  19  22
ATOM     22  C   UNK A   2       7.150   4.960  17.086  0.00  0.00    +0.000 C 
BRANCH  22  23
ATOM     23  C   UNK A   2       6.741   6.056  18.076  0.00  0.00    +0.000 C 
ATOM     24  C   UNK A   2       6.820   7.460  17.455  0.00  0.00    +0.000 C 
ATOM     25  C   UNK A   2       8.220   7.944  17.783  0.00  0.00    +0.000 C 
ATOM     26  N   UNK A   2       8.520   7.273  19.009  0.00  0.00    +0.000 N 
ATOM     27  C   UNK A   2       7.728   6.171  19.220  0.00  0.00    +0.000 C 
ATOM     28  O   UNK A   2       7.858   5.391  20.149  0.00  0.00    +0.000 OA
ATOM     29  H   UNK A   2       9.300   7.474  19.625  0.00  0.00    +0.000 HD
ENDBRANCH  22  23
ENDBRANCH  19  22
ENDBRANCH  17  19
ENDBRANCH   1  15
BRANCH   1  30
ATOM     30  CB  LEU A   1       1.584   4.147  17.823  0.00  0.00    +0.000 C 
BRANCH  30  32
ATOM     31  CD1 LEU A   1       1.572   1.734  18.745  0.00  0.00    +0.000 C 
ATOM     32  CG  LEU A   1       0.893   3.104  18.737  0.00  0.00    +0.000 C 
ATOM     33  CD2 LEU A   1       0.840   3.641  20.173  0.00  0.00    +0.000 C 
ENDBRANCH  30  32
ENDBRANCH   1  30
TORSDOF 11
ENDMDL
MODEL 3
REMARK VINA RESULT:      -7.5      1.913      3.493
REMARK  Name = 
REMARK  13 active torsions:
REMARK  status: ('A' for Active; 'I' for Inactive)
REMARK    1  A    between atoms: CD1_1  and  CG_2
REMARK    2  A    between atoms: CG_2  and  CD2_3
REMARK    3  A    between atoms: CG_2  and  CB_4
REMARK    4  A    between atoms: CB_4  and  CA_5
REMARK    5  A    between atoms: CA_5  and  N_6
REMARK    6  A    between atoms: CA_5  and  C_18
REMARK    7  A    between atoms: C_7  and  O_9
REMARK    8  A    between atoms: O_9  and  C_10
REMARK    9  A    between atoms: C_10  and  C_11
REMARK   10  A    between atoms: N_20  and  C_21
REMARK   11  A    between atoms: C_21  and  C_22
REMARK   12  A    between atoms: C_21  and  C_24
REMARK   13  A    between atoms: C_24  and  C_25
REMARK                            x       y       z     vdW  Elec       q    Type
REMARK                         _______ _______ _______ _____ _____    ______ ____
ROOT
ATOM      1  CA  LEU A   1       3.246   6.398  18.314  0.00  0.00    +0.000 C 
ENDROOT
BRANCH   1   2
ATOM      2  N   LEU A   1       2.632   7.718  18.086  0.00  0.00    +0.000 N 
ATOM      3  C   UNK A   0       1.864   8.367  19.010  0.00  0.00    +0.000 C 
ATOM      4  O   UNK A   0       1.736   8.031  20.173  0.00  0.00    +0.000 OA
ATOM      5  H   LEU A   1       2.567   8.077  17.140  0.00  0.00    +0.000 HD
BRANCH   3   6
ATOM      6  O   UNK A   0       1.215   9.398  18.412  0.00  0.00    +0.000 OA
BRANCH   6   7
ATOM      7  C   UNK A   0       0.495  10.279  19.289  0.00  0.00    +0.000 C 
BRANCH   7   8
ATOM      8  C   UNK A   0      -0.871  10.628  18.753  0.00  0.00    +0.000 A 
ATOM      9  C   UNK A   0      -1.692  11.558  19.412  0.00  0.00    +0.000 A 
ATOM     10  C   UNK A   0      -2.933  11.917  18.876  0.00  0.00    +0.000 A 
ATOM     11  C   UNK A   0      -3.371  11.344  17.683  0.00  0.00    +0.000 A 
ATOM     12  C   UNK A   0      -2.569  10.409  17.032  0.00  0.00    +0.000 A 
ATOM     13 CL   UNK A   0      -3.107   9.703  15.558  0.00  0.00    +0.000 Cl
ATOM     14  C   UNK A   0      -1.328  10.047  17.562  0.00  0.00    +0.000 A 
ENDBRANCH   7   8
ENDBRANCH   6   7
ENDBRANCH   3   6
ENDBRANCH   1   2
BRANCH   1  15
ATOM     15  C   LEU A   1       4.496   6.328  17.405  0.00  0.00    +0.000 C 
ATOM     16  O   LEU A   1       4.964   7.300  16.818  0.00  0.00    +0.000 OA
ATOM     17  N   UNK A   2       5.091   5.080  17.330  0.00  0.00    +0.000 N 
ATOM     18  H   UNK A   2       4.870   4.409  18.058  0.00  0.00    +0.000 HD
BRANCH  17  19
ATOM     19  C   UNK A   2       6.303   4.904  16.537  0.00  0.00    +0.000 C 
BRANCH  19  20
ATOM     20  C   UNK A   2       7.434   4.356  17.405  0.00  0.00    +0.000 C 
ATOM     21  O   UNK A   2       8.119   5.041  18.163  0.00  0.00    +0.000 OA
ENDBRANCH  19  20
BRANCH  19  22
ATOM     22  C   UNK A   2       6.091   3.950  15.353  0.00  0.00    +0.000 C 
BRANCH  22  23
ATOM     23  C   UNK A   2       5.885   4.678  14.019  0.00  0.00    +0.000 C 
ATOM     24  C   UNK A   2       5.106   3.825  13.005  0.00  0.00    +0.000 C 
ATOM     25  C   UNK A   2       6.177   3.086  12.225  0.00  0.00    +0.000 C 
ATOM     26  N   UNK A   2       7.293   3.977  12.274  0.00  0.00    +0.000 N 
ATOM     27  C   UNK A   2       7.199   4.892  13.294  0.00  0.00    +0.000 C 
ATOM     28  O   UNK A   2       8.070   5.694  13.589  0.00  0.00    +0.000 OA
ATOM     29  H   UNK A   2       8.140   3.905  11.722  0.00  0.00    +0.000 HD
ENDBRANCH  22  23
ENDBRANCH  19  22
ENDBRANCH  17  19
ENDBRANCH   1  15
BRANCH   1  30
ATOM     30  CB  LEU A   1       2.263   5.242  18.013  0.00  0.00    +0.000 C 
BRANCH  30  32
ATOM     31  CD1 LEU A   1       1.181   4.061  20.039  0.00  0.00    +0.000 C 
ATOM     32  CG  LEU A   1       2.286   4.034  18.982  0.00  0.00    +0.000 C 
ATOM     33  CD2 LEU A   1       2.172   2.733  18.177  0.00  0.00    +0.000 C 
ENDBRANCH  30  32
ENDBRANCH   1  30
TORSDOF 11
ENDMDL
MODEL 4
REMARK VINA RESULT:      -7.5      1.554      1.996
REMARK  Name = 
REMARK  13 active torsions:
REMARK  status: ('A' for Active; 'I' for Inactive)
REMARK    1  A    between atoms: CD1_1  and  CG_2
REMARK    2  A    between atoms: CG_2  and  CD2_3
REMARK    3  A    between atoms: CG_2  and  CB_4
REMARK    4  A    between atoms: CB_4  and  CA_5
REMARK    5  A    between atoms: CA_5  and  N_6
REMARK    6  A    between atoms: CA_5  and  C_18
REMARK    7  A    between atoms: C_7  and  O_9
REMARK    8  A    between atoms: O_9  and  C_10
REMARK    9  A    between atoms: C_10  and  C_11
REMARK   10  A    between atoms: N_20  and  C_21
REMARK   11  A    between atoms: C_21  and  C_22
REMARK   12  A    between atoms: C_21  and  C_24
REMARK   13  A    between atoms: C_24  and  C_25
REMARK                            x       y       z     vdW  Elec       q    Type
REMARK                         _______ _______ _______ _____ _____    ______ ____
ROOT
ATOM      1  CA  LEU A   1       2.422   5.848  20.066  0.00  0.00    +0.000 C 
ENDROOT
BRANCH   1   2
ATOM      2  N   LEU A   1       2.097   7.208  19.602  0.00  0.00    +0.000 N 
ATOM      3  C   UNK A   0       1.498   8.152  20.387  0.00  0.00    +0.000 C 
ATOM      4  O   UNK A   0       1.319   8.055  21.587  0.00  0.00    +0.000 OA
ATOM      5  H   LEU A   1       2.094   7.406  18.608  0.00  0.00    +0.000 HD
BRANCH   3   6
ATOM      6  O   UNK A   0       1.070   9.179  19.609  0.00  0.00    +0.000 OA
BRANCH   6   7
ATOM      7  C   UNK A   0       0.392  10.244  20.292  0.00  0.00    +0.000 C 
BRANCH   7   8
ATOM      8  C   UNK A   0      -0.837  10.709  19.551  0.00  0.00    +0.000 A 
ATOM      9  C   UNK A   0      -1.660  11.719  20.075  0.00  0.00    +0.000 A 
ATOM     10  C   UNK A   0      -2.765  12.182  19.352  0.00  0.00    +0.000 A 
ATOM     11  C   UNK A   0      -3.064  11.635  18.105  0.00  0.00    +0.000 A 
ATOM     12  C   UNK A   0      -2.259  10.622  17.587  0.00  0.00    +0.000 A 
ATOM     13 CL   UNK A   0      -2.626   9.948  16.046  0.00  0.00    +0.000 Cl
ATOM     14  C   UNK A   0      -1.155  10.156  18.303  0.00  0.00    +0.000 A 
ENDBRANCH   7   8
ENDBRANCH   6   7
ENDBRANCH   3   6
ENDBRANCH   1   2
BRANCH   1  15
ATOM     15  C   LEU A   1       3.773   5.469  19.411  0.00  0.00    +0.000 C 
ATOM     16  O   LEU A   1       4.771   5.150  20.051  0.00  0.00    +0.000 OA
ATOM     17  N   UNK A   2       3.767   5.469  18.026  0.00  0.00    +0.000 N 
ATOM     18  H   UNK A   2       2.868   5.424  17.559  0.00  0.00    +0.000 HD
BRANCH  17  19
ATOM     19  C   UNK A   2       4.973   5.084  17.299  0.00  0.00    +0.000 C 
BRANCH  19  20
ATOM     20  C   UNK A   2       4.617   4.203  16.104  0.00  0.00    +0.000 C 
ATOM     21  O   UNK A   2       5.106   4.327  14.982  0.00  0.00    +0.000 OA
ENDBRANCH  19  20
BRANCH  19  22
ATOM     22  C   UNK A   2       5.760   6.301  16.793  0.00  0.00    +0.000 C 
BRANCH  22  23
ATOM     23  C   UNK A   2       7.278   6.148  16.949  0.00  0.00    +0.000 C 
ATOM     24  C   UNK A   2       7.652   5.000  17.900  0.00  0.00    +0.000 C 
ATOM     25  C   UNK A   2       7.763   5.654  19.265  0.00  0.00    +0.000 C 
ATOM     26  N   UNK A   2       8.163   6.991  18.955  0.00  0.00    +0.000 N 
ATOM     27  C   UNK A   2       7.888   7.342  17.656  0.00  0.00    +0.000 C 
ATOM     28  O   UNK A   2       8.055   8.456  17.188  0.00  0.00    +0.000 OA
ATOM     29  H   UNK A   2       8.501   7.682  19.616  0.00  0.00    +0.000 HD
ENDBRANCH  22  23
ENDBRANCH  19  22
ENDBRANCH  17  19
ENDBRANCH   1  15
BRANCH   1  30
ATOM     30  CB  LEU A   1       1.314   4.831  19.701  0.00  0.00    +0.000 C 
BRANCH  30  32
ATOM     31  CD1 LEU A   1       1.357   2.806  21.304  0.00  0.00    +0.000 C 
ATOM     32  CG  LEU A   1       1.649   3.331  19.898  0.00  0.00    +0.000 C 
ATOM     33  CD2 LEU A   1       0.860   2.496  18.881  0.00  0.00    +0.000 C 
ENDBRANCH  30  32
ENDBRANCH   1  30
TORSDOF 11
ENDMDL
MODEL 5
REMARK VINA RESULT:      -7.5      1.718      2.779
REMARK  Name = 
REMARK  13 active torsions:
REMARK  status: ('A' for Active; 'I' for Inactive)
REMARK    1  A    between atoms: CD1_1  and  CG_2
REMARK    2  A    between atoms: CG_2  and  CD2_3
REMARK    3  A    between atoms: CG_2  and  CB_4
REMARK    4  A    between atoms: CB_4  and  CA_5
REMARK    5  A    between atoms: CA_5  and  N_6
REMARK    6  A    between atoms: CA_5  and  C_18
REMARK    7  A    between atoms: C_7  and  O_9
REMARK    8  A    between atoms: O_9  and  C_10
REMARK    9  A    between atoms: C_10  and  C_11
REMARK   10  A    between atoms: N_20  and  C_21
REMARK   11  A    between atoms: C_21  and  C_22
REMARK   12  A    between atoms: C_21  and  C_24
REMARK   13  A    between atoms: C_24  and  C_25
REMARK                            x       y       z     vdW  Elec       q    Type
REMARK                         _______ _______ _______ _____ _____    ______ ____
ROOT
ATOM      1  CA  LEU A   1       2.483   5.786  20.202  0.00  0.00    +0.000 C 
ENDROOT
BRANCH   1   2
ATOM      2  N   LEU A   1       2.247   7.030  19.448  0.00  0.00    +0.000 N 
ATOM      3  C   UNK A   0       1.730   8.165  20.003  0.00  0.00    +0.000 C 
ATOM      4  O   UNK A   0       1.565   8.350  21.195  0.00  0.00    +0.000 OA
ATOM      5  H   LEU A   1       2.241   7.001  18.435  0.00  0.00    +0.000 HD
BRANCH   3   6
ATOM      6  O   UNK A   0       1.363   9.022  19.016  0.00  0.00    +0.000 OA
BRANCH   6   7
ATOM      7  C   UNK A   0       0.723  10.235  19.443  0.00  0.00    +0.000 C 
BRANCH   7   8
ATOM      8  C   UNK A   0      -0.604  10.453  18.761  0.00  0.00    +0.000 A 
ATOM      9  C   UNK A   0      -0.917   9.798  17.559  0.00  0.00    +0.000 A 
ATOM     10  C   UNK A   0      -2.173   9.963  16.965  0.00  0.00    +0.000 A 
ATOM     11  C   UNK A   0      -3.124  10.792  17.559  0.00  0.00    +0.000 A 
ATOM     12  C   UNK A   0      -2.814  11.456  18.744  0.00  0.00    +0.000 A 
ATOM     13 CL   UNK A   0      -3.988  12.477  19.480  0.00  0.00    +0.000 Cl
ATOM     14  C   UNK A   0      -1.562  11.295  19.342  0.00  0.00    +0.000 A 
ENDBRANCH   7   8
ENDBRANCH   6   7
ENDBRANCH   3   6
ENDBRANCH   1   2
BRANCH   1  15
ATOM     15  C   LEU A   1       3.704   5.097  19.547  0.00  0.00    +0.000 C 
ATOM     16  O   LEU A   1       4.860   5.250  19.936  0.00  0.00    +0.000 OA
ATOM     17  N   UNK A   2       3.398   4.243  18.501  0.00  0.00    +0.000 N 
ATOM     18  H   UNK A   2       2.442   3.911  18.429  0.00  0.00    +0.000 HD
BRANCH  17  19
ATOM     19  C   UNK A   2       4.465   3.503  17.836  0.00  0.00    +0.000 C 
BRANCH  19  20
ATOM     20  C   UNK A   2       4.015   2.076  17.528  0.00  0.00    +0.000 C 
ATOM     21  O   UNK A   2       3.622   1.276  18.375  0.00  0.00    +0.000 OA
ENDBRANCH  19  20
BRANCH  19  22
ATOM     22  C   UNK A   2       4.907   4.170  16.526  0.00  0.00    +0.000 C 
BRANCH  22  23
ATOM     23  C   UNK A   2       6.427   4.164  16.326  0.00  0.00    +0.000 C 
ATOM     24  C   UNK A   2       7.184   4.540  17.609  0.00  0.00    +0.000 C 
ATOM     25  C   UNK A   2       7.364   6.044  17.521  0.00  0.00    +0.000 C 
ATOM     26  N   UNK A   2       7.412   6.286  16.113  0.00  0.00    +0.000 N 
ATOM     27  C   UNK A   2       6.868   5.262  15.378  0.00  0.00    +0.000 C 
ATOM     28  O   UNK A   2       6.716   5.281  14.167  0.00  0.00    +0.000 OA
ATOM     29  H   UNK A   2       7.692   7.151  15.664  0.00  0.00    +0.000 HD
ENDBRANCH  22  23
ENDBRANCH  19  22
ENDBRANCH  17  19
ENDBRANCH   1  15
BRANCH   1  30
ATOM     30  CB  LEU A   1       1.244   4.861  20.197  0.00  0.00    +0.000 C 
BRANCH  30  32
ATOM     31  CD1 LEU A   1       1.347   2.798  21.747  0.00  0.00    +0.000 C 
ATOM     32  CG  LEU A   1       1.506   3.339  20.326  0.00  0.00    +0.000 C 
ATOM     33  CD2 LEU A   1       0.554   2.577  19.394  0.00  0.00    +0.000 C 
ENDBRANCH  30  32
ENDBRANCH   1  30
TORSDOF 11
ENDMDL
MODEL 6
REMARK VINA RESULT:      -7.3      2.413      3.813
REMARK  Name = 
REMARK  13 active torsions:
REMARK  status: ('A' for Active; 'I' for Inactive)
REMARK    1  A    between atoms: CD1_1  and  CG_2
REMARK    2  A    between atoms: CG_2  and  CD2_3
REMARK    3  A    between atoms: CG_2  and  CB_4
REMARK    4  A    between atoms: CB_4  and  CA_5
REMARK    5  A    between atoms: CA_5  and  N_6
REMARK    6  A    between atoms: CA_5  and  C_18
REMARK    7  A    between atoms: C_7  and  O_9
REMARK    8  A    between atoms: O_9  and  C_10
REMARK    9  A    between atoms: C_10  and  C_11
REMARK   10  A    between atoms: N_20  and  C_21
REMARK   11  A    between atoms: C_21  and  C_22
REMARK   12  A    between atoms: C_21  and  C_24
REMARK   13  A    between atoms: C_24  and  C_25
REMARK                            x       y       z     vdW  Elec       q    Type
REMARK                         _______ _______ _______ _____ _____    ______ ____
ROOT
ATOM      1  CA  LEU A   1       3.009   5.921  18.397  0.00  0.00    +0.000 C 
ENDROOT
BRANCH   1   2
ATOM      2  N   LEU A   1       2.449   7.276  18.543  0.00  0.00    +0.000 N 
ATOM      3  C   UNK A   0       1.784   7.705  19.656  0.00  0.00    +0.000 C 
ATOM      4  O   UNK A   0       1.723   7.101  20.712  0.00  0.00    +0.000 OA
ATOM      5  H   LEU A   1       2.334   7.855  17.720  0.00  0.00    +0.000 HD
BRANCH   3   6
ATOM      6  O   UNK A   0       1.147   8.871  19.379  0.00  0.00    +0.000 OA
BRANCH   6   7
ATOM      7  C   UNK A   0       1.521   9.998  20.185  0.00  0.00    +0.000 C 
BRANCH   7   8
ATOM      8  C   UNK A   0       0.426  10.411  21.137  0.00  0.00    +0.000 A 
ATOM      9  C   UNK A   0       0.233   9.740  22.356  0.00  0.00    +0.000 A 
ATOM     10  C   UNK A   0      -0.749  10.168  23.256  0.00  0.00    +0.000 A 
ATOM     11  C   UNK A   0      -1.554  11.262  22.943  0.00  0.00    +0.000 A 
ATOM     12  C   UNK A   0      -1.379  11.922  21.729  0.00  0.00    +0.000 A 
ATOM     13 CL   UNK A   0      -2.372  13.274  21.344  0.00  0.00    +0.000 Cl
ATOM     14  C   UNK A   0      -0.400  11.500  20.827  0.00  0.00    +0.000 A 
ENDBRANCH   7   8
ENDBRANCH   6   7
ENDBRANCH   3   6
ENDBRANCH   1   2
BRANCH   1  15
ATOM     15  C   LEU A   1       4.215   6.042  17.435  0.00  0.00    +0.000 C 
ATOM     16  O   LEU A   1       4.474   7.058  16.796  0.00  0.00    +0.000 OA
ATOM     17  N   UNK A   2       5.027   4.922  17.376  0.00  0.00    +0.000 N 
ATOM     18  H   UNK A   2       4.961   4.252  18.135  0.00  0.00    +0.000 HD
BRANCH  17  19
ATOM     19  C   UNK A   2       6.220   4.937  16.536  0.00  0.00    +0.000 C 
BRANCH  19  20
ATOM     20  C   UNK A   2       7.454   4.561  17.354  0.00  0.00    +0.000 C 
ATOM     21  O   UNK A   2       7.459   4.424  18.576  0.00  0.00    +0.000 OA
ENDBRANCH  19  20
BRANCH  19  22
ATOM     22  C   UNK A   2       6.108   3.971  15.348  0.00  0.00    +0.000 C 
BRANCH  22  23
ATOM     23  C   UNK A   2       5.896   4.683  14.007  0.00  0.00    +0.000 C 
ATOM     24  C   UNK A   2       5.095   3.826  13.014  0.00  0.00    +0.000 C 
ATOM     25  C   UNK A   2       6.148   3.063  12.232  0.00  0.00    +0.000 C 
ATOM     26  N   UNK A   2       7.274   3.942  12.255  0.00  0.00    +0.000 N 
ATOM     27  C   UNK A   2       7.203   4.872  13.263  0.00  0.00    +0.000 C 
ATOM     28  O   UNK A   2       8.086   5.667  13.538  0.00  0.00    +0.000 OA
ATOM     29  H   UNK A   2       8.114   3.853  11.694  0.00  0.00    +0.000 HD
ENDBRANCH  22  23
ENDBRANCH  19  22
ENDBRANCH  17  19
ENDBRANCH   1  15
BRANCH   1  30
ATOM     30  CB  LEU A   1       1.962   4.915  17.864  0.00  0.00    +0.000 C 
BRANCH  30  32
ATOM     31  CD1 LEU A   1       2.334   2.359  17.878  0.00  0.00    +0.000 C 
ATOM     32  CG  LEU A   1       1.816   3.580  18.638  0.00  0.00    +0.000 C 
ATOM     33  CD2 LEU A   1       2.558   3.685  19.976  0.00  0.00    +0.000 C 
ENDBRANCH  30  32
ENDBRANCH   1  30
TORSDOF 11
ENDMDL
MODEL 7
REMARK VINA RESULT:      -7.2      3.904      7.650
REMARK  Name = 
REMARK  13 active torsions:
REMARK  status: ('A' for Active; 'I' for Inactive)
REMARK    1  A    between atoms: CD1_1  and  CG_2
REMARK    2  A    between atoms: CG_2  and  CD2_3
REMARK    3  A    between atoms: CG_2  and  CB_4
REMARK    4  A    between atoms: CB_4  and  CA_5
REMARK    5  A    between atoms: CA_5  and  N_6
REMARK    6  A    between atoms: CA_5  and  C_18
REMARK    7  A    between atoms: C_7  and  O_9
REMARK    8  A    between atoms: O_9  and  C_10
REMARK    9  A    between atoms: C_10  and  C_11
REMARK   10  A    between atoms: N_20  and  C_21
REMARK   11  A    between atoms: C_21  and  C_22
REMARK   12  A    between atoms: C_21  and  C_24
REMARK   13  A    between atoms: C_24  and  C_25
REMARK                            x       y       z     vdW  Elec       q    Type
REMARK                         _______ _______ _______ _____ _____    ______ ____
ROOT
ATOM      1  CA  LEU A   1       5.675   6.649  16.461  0.00  0.00    +0.000 C 
ENDROOT
BRANCH   1   2
ATOM      2  N   LEU A   1       6.417   7.858  16.861  0.00  0.00    +0.000 N 
ATOM      3  C   UNK A   0       7.566   7.833  17.598  0.00  0.00    +0.000 C 
ATOM      4  O   UNK A   0       8.205   6.831  17.864  0.00  0.00    +0.000 OA
ATOM      5  H   LEU A   1       5.962   8.762  16.799  0.00  0.00    +0.000 HD
BRANCH   3   6
ATOM      6  O   UNK A   0       7.843   9.084  18.045  0.00  0.00    +0.000 OA
BRANCH   6   7
ATOM      7  C   UNK A   0       9.000   9.209  18.885  0.00  0.00    +0.000 C 
BRANCH   7   8
ATOM      8  C   UNK A   0       9.459  10.640  19.019  0.00  0.00    +0.000 A 
ATOM      9  C   UNK A   0       9.328  11.333  20.233  0.00  0.00    +0.000 A 
ATOM     10  C   UNK A   0       9.809  12.640  20.362  0.00  0.00    +0.000 A 
ATOM     11  C   UNK A   0      10.416  13.271  19.277  0.00  0.00    +0.000 A 
ATOM     12  C   UNK A   0      10.536  12.595  18.065  0.00  0.00    +0.000 A 
ATOM     13 CL   UNK A   0      11.288  13.372  16.726  0.00  0.00    +0.000 Cl
ATOM     14  C   UNK A   0      10.058  11.289  17.931  0.00  0.00    +0.000 A 
ENDBRANCH   7   8
ENDBRANCH   6   7
ENDBRANCH   3   6
ENDBRANCH   1   2
BRANCH   1  15
ATOM     15  C   LEU A   1       4.996   6.104  17.740  0.00  0.00    +0.000 C 
ATOM     16  O   LEU A   1       5.602   5.518  18.633  0.00  0.00    +0.000 OA
ATOM     17  N   UNK A   2       3.640   6.366  17.834  0.00  0.00    +0.000 N 
ATOM     18  H   UNK A   2       3.261   7.106  17.252  0.00  0.00    +0.000 HD
BRANCH  17  19
ATOM     19  C   UNK A   2       2.902   5.939  19.019  0.00  0.00    +0.000 C 
BRANCH  19  20
ATOM     20  C   UNK A   2       2.258   7.139  19.709  0.00  0.00    +0.000 C 
ATOM     21  O   UNK A   2       1.962   8.189  19.140  0.00  0.00    +0.000 OA
ENDBRANCH  19  20
BRANCH  19  22
ATOM     22  C   UNK A   2       1.803   4.920  18.684  0.00  0.00    +0.000 C 
BRANCH  22  23
ATOM     23  C   UNK A   2       1.864   3.657  19.551  0.00  0.00    +0.000 C 
ATOM     24  C   UNK A   2       3.308   3.253  19.890  0.00  0.00    +0.000 C 
ATOM     25  C   UNK A   2       3.703   2.290  18.786  0.00  0.00    +0.000 C 
ATOM     26  N   UNK A   2       2.461   1.692  18.411  0.00  0.00    +0.000 N 
ATOM     27  C   UNK A   2       1.373   2.439  18.796  0.00  0.00    +0.000 C 
ATOM     28  O   UNK A   2       0.216   2.178  18.510  0.00  0.00    +0.000 OA
ATOM     29  H   UNK A   2       2.343   0.877  17.821  0.00  0.00    +0.000 HD
ENDBRANCH  22  23
ENDBRANCH  19  22
ENDBRANCH  17  19
ENDBRANCH   1  15
BRANCH   1  30
ATOM     30  CB  LEU A   1       6.600   5.589  15.818  0.00  0.00    +0.000 C 
BRANCH  30  32
ATOM     31  CD1 LEU A   1       6.790   4.293  13.592  0.00  0.00    +0.000 C 
ATOM     32  CG  LEU A   1       5.942   4.595  14.827  0.00  0.00    +0.000 C 
ATOM     33  CD2 LEU A   1       5.635   3.280  15.554  0.00  0.00    +0.000 C 
ENDBRANCH  30  32
ENDBRANCH   1  30
TORSDOF 11
ENDMDL
MODEL 8
REMARK VINA RESULT:      -7.2      3.957      7.821
REMARK  Name = 
REMARK  13 active torsions:
REMARK  status: ('A' for Active; 'I' for Inactive)
REMARK    1  A    between atoms: CD1_1  and  CG_2
REMARK    2  A    between atoms: CG_2  and  CD2_3
REMARK    3  A    between atoms: CG_2  and  CB_4
REMARK    4  A    between atoms: CB_4  and  CA_5
REMARK    5  A    between atoms: CA_5  and  N_6
REMARK    6  A    between atoms: CA_5  and  C_18
REMARK    7  A    between atoms: C_7  and  O_9
REMARK    8  A    between atoms: O_9  and  C_10
REMARK    9  A    between atoms: C_10  and  C_11
REMARK   10  A    between atoms: N_20  and  C_21
REMARK   11  A    between atoms: C_21  and  C_22
REMARK   12  A    between atoms: C_21  and  C_24
REMARK   13  A    between atoms: C_24  and  C_25
REMARK                            x       y       z     vdW  Elec       q    Type
REMARK                         _______ _______ _______ _____ _____    ______ ____
ROOT
ATOM      1  CA  LEU A   1       6.521   6.480  16.599  0.00  0.00    +0.000 C 
ENDROOT
BRANCH   1   2
ATOM      2  N   LEU A   1       7.638   7.204  17.231  0.00  0.00    +0.000 N 
ATOM      3  C   UNK A   0       7.571   8.513  17.617  0.00  0.00    +0.000 C 
ATOM      4  O   UNK A   0       6.554   9.182  17.650  0.00  0.00    +0.000 OA
ATOM      5  H   LEU A   1       8.573   6.815  17.181  0.00  0.00    +0.000 HD
BRANCH   3   6
ATOM      6  O   UNK A   0       8.821   8.967  17.888  0.00  0.00    +0.000 OA
BRANCH   6   7
ATOM      7  C   UNK A   0       9.018   9.518  19.200  0.00  0.00    +0.000 C 
BRANCH   7   8
ATOM      8  C   UNK A   0       9.761  10.830  19.164  0.00  0.00    +0.000 A 
ATOM      9  C   UNK A   0      10.126  11.489  20.349  0.00  0.00    +0.000 A 
ATOM     10  C   UNK A   0      10.865  12.676  20.304  0.00  0.00    +0.000 A 
ATOM     11  C   UNK A   0      11.238  13.221  19.076  0.00  0.00    +0.000 A 
ATOM     12  C   UNK A   0      10.866  12.581  17.896  0.00  0.00    +0.000 A 
ATOM     13 CL   UNK A   0      11.327  13.252  16.380  0.00  0.00    +0.000 Cl
ATOM     14  C   UNK A   0      10.128  11.395  17.935  0.00  0.00    +0.000 A 
ENDBRANCH   7   8
ENDBRANCH   6   7
ENDBRANCH   3   6
ENDBRANCH   1   2
BRANCH   1  15
ATOM     15  C   LEU A   1       5.551   6.083  17.737  0.00  0.00    +0.000 C 
ATOM     16  O   LEU A   1       5.878   5.393  18.699  0.00  0.00    +0.000 OA
ATOM     17  N   UNK A   2       4.274   6.607  17.621  0.00  0.00    +0.000 N 
ATOM     18  H   UNK A   2       4.146   7.405  17.007  0.00  0.00    +0.000 HD
BRANCH  17  19
ATOM     19  C   UNK A   2       3.285   6.337  18.660  0.00  0.00    +0.000 C 
BRANCH  19  20
ATOM     20  C   UNK A   2       2.474   7.595  18.965  0.00  0.00    +0.000 C 
ATOM     21  O   UNK A   2       1.785   7.747  19.972  0.00  0.00    +0.000 OA
ENDBRANCH  19  20
BRANCH  19  22
ATOM     22  C   UNK A   2       2.316   5.215  18.263  0.00  0.00    +0.000 C 
BRANCH  22  23
ATOM     23  C   UNK A   2       2.576   3.900  19.007  0.00  0.00    +0.000 C 
ATOM     24  C   UNK A   2       2.002   2.685  18.260  0.00  0.00    +0.000 C 
ATOM     25  C   UNK A   2       0.605   2.514  18.826  0.00  0.00    +0.000 C 
ATOM     26  N   UNK A   2       0.725   3.021  20.156  0.00  0.00    +0.000 N 
ATOM     27  C   UNK A   2       1.816   3.841  20.317  0.00  0.00    +0.000 C 
ATOM     28  O   UNK A   2       2.074   4.460  21.336  0.00  0.00    +0.000 OA
ATOM     29  H   UNK A   2       0.043   2.919  20.900  0.00  0.00    +0.000 HD
ENDBRANCH  22  23
ENDBRANCH  19  22
ENDBRANCH  17  19
ENDBRANCH   1  15
BRANCH   1  30
ATOM     30  CB  LEU A   1       7.007   5.239  15.814  0.00  0.00    +0.000 C 
BRANCH  30  32
ATOM     31  CD1 LEU A   1       6.469   3.983  13.622  0.00  0.00    +0.000 C 
ATOM     32  CG  LEU A   1       5.948   4.488  14.967  0.00  0.00    +0.000 C 
ATOM     33  CD2 LEU A   1       5.405   3.298  15.770  0.00  0.00    +0.000 C 
ENDBRANCH  30  32
ENDBRANCH   1  30
TORSDOF 11
ENDMDL
MODEL 9
REMARK VINA RESULT:      -7.1      1.913      3.307
REMARK  Name = 
REMARK  13 active torsions:
REMARK  status: ('A' for Active; 'I' for Inactive)
REMARK    1  A    between atoms: CD1_1  and  CG_2
REMARK    2  A    between atoms: CG_2  and  CD2_3
REMARK    3  A    between atoms: CG_2  and  CB_4
REMARK    4  A    between atoms: CB_4  and  CA_5
REMARK    5  A    between atoms: CA_5  and  N_6
REMARK    6  A    between atoms: CA_5  and  C_18
REMARK    7  A    between atoms: C_7  and  O_9
REMARK    8  A    between atoms: O_9  and  C_10
REMARK    9  A    between atoms: C_10  and  C_11
REMARK   10  A    between atoms: N_20  and  C_21
REMARK   11  A    between atoms: C_21  and  C_22
REMARK   12  A    between atoms: C_21  and  C_24
REMARK   13  A    between atoms: C_24  and  C_25
REMARK                            x       y       z     vdW  Elec       q    Type
REMARK                         _______ _______ _______ _____ _____    ______ ____
ROOT
ATOM      1  CA  LEU A   1       3.413   5.549  19.227  0.00  0.00    +0.000 C 
ENDROOT
BRANCH   1   2
ATOM      2  N   LEU A   1       2.916   6.874  19.639  0.00  0.00    +0.000 N 
ATOM      3  C   UNK A   0       1.852   7.058  20.474  0.00  0.00    +0.000 C 
ATOM      4  O   UNK A   0       1.299   6.177  21.108  0.00  0.00    +0.000 OA
ATOM      5  H   LEU A   1       3.207   7.695  19.121  0.00  0.00    +0.000 HD
BRANCH   3   6
ATOM      6  O   UNK A   0       1.463   8.357  20.430  0.00  0.00    +0.000 OA
BRANCH   6   7
ATOM      7  C   UNK A   0       1.283   8.915  19.119  0.00  0.00    +0.000 C 
BRANCH   7   8
ATOM      8  C   UNK A   0       0.122   9.875  19.059  0.00  0.00    +0.000 A 
ATOM      9  C   UNK A   0      -0.225  10.663  20.169  0.00  0.00    +0.000 A 
ATOM     10  C   UNK A   0      -1.267  11.592  20.084  0.00  0.00    +0.000 A 
ATOM     11  C   UNK A   0      -1.980  11.736  18.895  0.00  0.00    +0.000 A 
ATOM     12  C   UNK A   0      -1.652  10.946  17.795  0.00  0.00    +0.000 A 
ATOM     13 CL   UNK A   0      -2.530  11.124  16.325  0.00  0.00    +0.000 Cl
ATOM     14  C   UNK A   0      -0.611  10.017  17.873  0.00  0.00    +0.000 A 
ENDBRANCH   7   8
ENDBRANCH   6   7
ENDBRANCH   3   6
ENDBRANCH   1   2
BRANCH   1  15
ATOM     15  C   LEU A   1       4.457   5.795  18.111  0.00  0.00    +0.000 C 
ATOM     16  O   LEU A   1       4.610   6.878  17.552  0.00  0.00    +0.000 OA
ATOM     17  N   UNK A   2       5.255   4.705  17.811  0.00  0.00    +0.000 N 
ATOM     18  H   UNK A   2       5.310   3.958  18.496  0.00  0.00    +0.000 HD
BRANCH  17  19
ATOM     19  C   UNK A   2       6.306   4.832  16.806  0.00  0.00    +0.000 C 
BRANCH  19  20
ATOM     20  C   UNK A   2       7.662   4.464  17.402  0.00  0.00    +0.000 C 
ATOM     21  O   UNK A   2       7.900   4.418  18.607  0.00  0.00    +0.000 OA
ENDBRANCH  19  20
BRANCH  19  22
ATOM     22  C   UNK A   2       6.051   3.943  15.581  0.00  0.00    +0.000 C 
BRANCH  22  23
ATOM     23  C   UNK A   2       5.880   4.736  14.281  0.00  0.00    +0.000 C 
ATOM     24  C   UNK A   2       5.071   3.962  13.228  0.00  0.00    +0.000 C 
ATOM     25  C   UNK A   2       6.114   3.215  12.418  0.00  0.00    +0.000 C 
ATOM     26  N   UNK A   2       7.265   4.057  12.509  0.00  0.00    +0.000 N 
ATOM     27  C   UNK A   2       7.204   4.929  13.568  0.00  0.00    +0.000 C 
ATOM     28  O   UNK A   2       8.106   5.681  13.901  0.00  0.00    +0.000 OA
ATOM     29  H   UNK A   2       8.110   3.975  11.956  0.00  0.00    +0.000 HD
ENDBRANCH  22  23
ENDBRANCH  19  22
ENDBRANCH  17  19
ENDBRANCH   1  15
BRANCH   1  30
ATOM     30  CB  LEU A   1       2.270   4.629  18.736  0.00  0.00    +0.000 C 
BRANCH  30  32
ATOM     31  CD1 LEU A   1       1.056   2.361  18.967  0.00  0.00    +0.000 C 
ATOM     32  CG  LEU A   1       1.876   3.449  19.660  0.00  0.00    +0.000 C 
ATOM     33  CD2 LEU A   1       3.145   2.818  20.248  0.00  0.00    +0.000 C 
ENDBRANCH  30  32
ENDBRANCH   1  30
TORSDOF 11
ENDMDL
