MODEL 1
REMARK VINA RESULT:      -8.5      0.000      0.000
REMARK  Name = 
REMARK  3 active torsions:
REMARK  status: ('A' for Active; 'I' for Inactive)
REMARK    1  A    between atoms: C_1  and  C_2
REMARK    2  A    between atoms: N_4  and  C_5
REMARK    3  A    between atoms: C_21  and  C_22
REMARK                            x       y       z     vdW  Elec       q    Type
REMARK                         _______ _______ _______ _____ _____    ______ ____
ROOT
ATOM      1  C   UNL     1      -0.796   9.920  23.080  0.00  0.00    +0.000 C 
ATOM      2  C   UNL     1       0.015   9.600  21.882  0.00  0.00    +0.000 A 
ATOM      3  N   UNL     1       0.364   8.334  21.622  0.00  0.00    +0.000 NA
ATOM      4  N   UNL     1       1.204   8.416  20.548  0.00  0.00    +0.000 N 
ATOM      5  C   UNL     1       1.268   9.706  20.051  0.00  0.00    +0.000 A 
ATOM      6  C   UNL     1       0.488  10.475  20.884  0.00  0.00    +0.000 A 
ATOM      7  C   UNL     1       0.321  11.914  20.573  0.00  0.00    +0.000 C 
ATOM      8  N   UNL     1       1.018  12.299  19.352  0.00  0.00    +0.000 N 
ATOM      9  C   UNL     1       1.723  11.373  18.634  0.00  0.00    +0.000 C 
ATOM     10  N   UNL     1       2.298  11.907  17.526  0.00  0.00    +0.000 N 
ATOM     11  N   UNL     1       1.905  10.118  18.917  0.00  0.00    +0.000 NA
ATOM     12  H   UNL     1       0.778  13.188  18.944  0.00  0.00    +0.000 HD
ATOM     13  H   UNL     1       1.742  12.582  17.024  0.00  0.00    +0.000 HD
ATOM     14  H   UNL     1       2.645  11.173  16.913  0.00  0.00    +0.000 HD
ENDROOT
BRANCH   4  15
ATOM     15  C   UNL     1       1.899   7.269  20.094  0.00  0.00    +0.000 A 
ATOM     16  C   UNL     1       1.476   5.995  20.483  0.00  0.00    +0.000 A 
ATOM     17  C   UNL     1       2.136   4.870  19.984  0.00  0.00    +0.000 A 
ATOM     18  C   UNL     1       3.234   5.014  19.127  0.00  0.00    +0.000 A 
ATOM     19  C   UNL     1       3.694   6.298  18.779  0.00  0.00    +0.000 A 
ATOM     20  C   UNL     1       3.008   7.418  19.255  0.00  0.00    +0.000 A 
ATOM     21  N   UNL     1       4.745   6.492  17.867  0.00  0.00    +0.000 N 
ATOM     22  C   UNL     1       5.139   5.553  16.899  0.00  0.00    +0.000 A 
ATOM     23  C   UNL     1       5.743   6.009  15.720  0.00  0.00    +0.000 A 
ATOM     24  C   UNL     1       5.992   5.128  14.665  0.00  0.00    +0.000 A 
ATOM     25  C   UNL     1       5.663   3.782  14.791  0.00  0.00    +0.000 A 
ATOM     26  C   UNL     1       5.091   3.309  15.973  0.00  0.00    +0.000 A 
ATOM     27  C   UNL     1       4.814   4.190  17.023  0.00  0.00    +0.000 A 
ATOM     28  S   UNL     1       4.021   3.539  18.490  0.00  0.00    +0.000 S 
ATOM     29  H   UNL     1       5.098   7.433  17.771  0.00  0.00    +0.000 HD
ENDBRANCH   4  15
BRANCH   7  30
ATOM     30  C   UNL     1      -1.172  12.141  20.408  0.00  0.00    +0.000 A 
ATOM     31  C   UNL     1      -1.826  11.649  19.261  0.00  0.00    +0.000 A 
ATOM     32  C   UNL     1      -3.186  11.911  19.056  0.00  0.00    +0.000 A 
ATOM     33  C   UNL     1      -3.905  12.655  19.989  0.00  0.00    +0.000 A 
ATOM     34  C   UNL     1      -3.280  13.126  21.141  0.00  0.00    +0.000 A 
ATOM     35  C   UNL     1      -1.927  12.861  21.355  0.00  0.00    +0.000 A 
ENDBRANCH   7  30
TORSDOF 2
ENDMDL
MODEL 2
REMARK VINA RESULT:      -8.5      2.424      9.354
REMARK  Name = 
REMARK  3 active torsions:
REMARK  status: ('A' for Active; 'I' for Inactive)
REMARK    1  A    between atoms: C_1  and  C_2
REMARK    2  A    between atoms: N_4  and  C_5
REMARK    3  A    between atoms: C_21  and  C_22
REMARK                            x       y       z     vdW  Elec       q    Type
REMARK                         _______ _______ _______ _____ _____    ______ ____
ROOT
ATOM      1  C   UNL     1       7.296   7.003  16.755  0.00  0.00    +0.000 C 
ATOM      2  C   UNL     1       5.911   6.646  17.143  0.00  0.00    +0.000 A 
ATOM      3  N   UNL     1       5.059   7.594  17.552  0.00  0.00    +0.000 NA
ATOM      4  N   UNL     1       3.945   6.914  17.955  0.00  0.00    +0.000 N 
ATOM      5  C   UNL     1       4.043   5.564  17.667  0.00  0.00    +0.000 A 
ATOM      6  C   UNL     1       5.293   5.379  17.121  0.00  0.00    +0.000 A 
ATOM      7  C   UNL     1       5.675   4.024  16.662  0.00  0.00    +0.000 C 
ATOM      8  N   UNL     1       4.599   3.057  16.839  0.00  0.00    +0.000 N 
ATOM      9  C   UNL     1       3.402   3.443  17.376  0.00  0.00    +0.000 C 
ATOM     10  N   UNL     1       2.517   2.415  17.458  0.00  0.00    +0.000 N 
ATOM     11  N   UNL     1       3.069   4.620  17.815  0.00  0.00    +0.000 NA
ATOM     12  H   UNL     1       4.683   2.179  16.354  0.00  0.00    +0.000 HD
ATOM     13  H   UNL     1       2.510   1.778  16.677  0.00  0.00    +0.000 HD
ATOM     14  H   UNL     1       1.585   2.762  17.673  0.00  0.00    +0.000 HD
ENDROOT
BRANCH   4  15
ATOM     15  C   UNL     1       2.886   7.594  18.602  0.00  0.00    +0.000 A 
ATOM     16  C   UNL     1       2.385   7.115  19.816  0.00  0.00    +0.000 A 
ATOM     17  C   UNL     1       1.377   7.824  20.472  0.00  0.00    +0.000 A 
ATOM     18  C   UNL     1       0.848   8.991  19.905  0.00  0.00    +0.000 A 
ATOM     19  C   UNL     1       1.314   9.443  18.657  0.00  0.00    +0.000 A 
ATOM     20  C   UNL     1       2.345   8.746  18.023  0.00  0.00    +0.000 A 
ATOM     21  N   UNL     1       0.864  10.645  18.084  0.00  0.00    +0.000 N 
ATOM     22  C   UNL     1       0.301  11.708  18.808  0.00  0.00    +0.000 A 
ATOM     23  C   UNL     1       0.420  13.009  18.306  0.00  0.00    +0.000 A 
ATOM     24  C   UNL     1       0.026  14.106  19.076  0.00  0.00    +0.000 A 
ATOM     25  C   UNL     1      -0.515  13.907  20.343  0.00  0.00    +0.000 A 
ATOM     26  C   UNL     1      -0.670  12.613  20.842  0.00  0.00    +0.000 A 
ATOM     27  C   UNL     1      -0.253  11.512  20.088  0.00  0.00    +0.000 A 
ATOM     28  S   UNL     1      -0.417   9.880  20.804  0.00  0.00    +0.000 S 
ATOM     29  H   UNL     1       1.149  10.831  17.133  0.00  0.00    +0.000 HD
ENDBRANCH   4  15
BRANCH   7  30
ATOM     30  C   UNL     1       6.012   4.156  15.186  0.00  0.00    +0.000 A 
ATOM     31  C   UNL     1       5.117   3.650  14.223  0.00  0.00    +0.000 A 
ATOM     32  C   UNL     1       5.443   3.696  12.862  0.00  0.00    +0.000 A 
ATOM     33  C   UNL     1       6.653   4.250  12.449  0.00  0.00    +0.000 A 
ATOM     34  C   UNL     1       7.536   4.778  13.387  0.00  0.00    +0.000 A 
ATOM     35  C   UNL     1       7.214   4.742  14.744  0.00  0.00    +0.000 A 
ENDBRANCH   7  30
TORSDOF 2
ENDMDL
MODEL 3
REMARK VINA RESULT:      -8.3      1.444      2.792
REMARK  Name = 
REMARK  3 active torsions:
REMARK  status: ('A' for Active; 'I' for Inactive)
REMARK    1  A    between atoms: C_1  and  C_2
REMARK    2  A    between atoms: N_4  and  C_5
REMARK    3  A    between atoms: C_21  and  C_22
REMARK                            x       y       z     vdW  Elec       q    Type
REMARK                         _______ _______ _______ _____ _____    ______ ____
ROOT
ATOM      1  C   UNL     1      -1.190  11.375  17.897  0.00  0.00    +0.000 C 
ATOM      2  C   UNL     1      -0.405  10.533  18.831  0.00  0.00    +0.000 A 
ATOM      3  N   UNL     1       0.572   9.743  18.368  0.00  0.00    +0.000 NA
ATOM      4  N   UNL     1       0.981   9.021  19.453  0.00  0.00    +0.000 N 
ATOM      5  C   UNL     1       0.366   9.456  20.614  0.00  0.00    +0.000 A 
ATOM      6  C   UNL     1      -0.511  10.447  20.233  0.00  0.00    +0.000 A 
ATOM      7  C   UNL     1      -1.289  11.147  21.281  0.00  0.00    +0.000 C 
ATOM      8  N   UNL     1      -0.962  10.676  22.620  0.00  0.00    +0.000 N 
ATOM      9  C   UNL     1      -0.028   9.694  22.801  0.00  0.00    +0.000 C 
ATOM     10  N   UNL     1       0.153   9.388  24.112  0.00  0.00    +0.000 N 
ATOM     11  N   UNL     1       0.634   9.048  21.888  0.00  0.00    +0.000 NA
ATOM     12  H   UNL     1      -1.267  11.241  23.395  0.00  0.00    +0.000 HD
ATOM     13  H   UNL     1       0.147  10.169  24.750  0.00  0.00    +0.000 HD
ATOM     14  H   UNL     1       0.980   8.807  24.233  0.00  0.00    +0.000 HD
ENDROOT
BRANCH   4  15
ATOM     15  C   UNL     1       1.905   7.960  19.300  0.00  0.00    +0.000 A 
ATOM     16  C   UNL     1       1.874   6.872  20.178  0.00  0.00    +0.000 A 
ATOM     17  C   UNL     1       2.755   5.806  19.983  0.00  0.00    +0.000 A 
ATOM     18  C   UNL     1       3.686   5.838  18.937  0.00  0.00    +0.000 A 
ATOM     19  C   UNL     1       3.755   6.958  18.087  0.00  0.00    +0.000 A 
ATOM     20  C   UNL     1       2.847   8.005  18.268  0.00  0.00    +0.000 A 
ATOM     21  N   UNL     1       4.622   7.004  16.983  0.00  0.00    +0.000 N 
ATOM     22  C   UNL     1       5.152   5.872  16.342  0.00  0.00    +0.000 A 
ATOM     23  C   UNL     1       5.496   5.960  14.988  0.00  0.00    +0.000 A 
ATOM     24  C   UNL     1       5.863   4.816  14.274  0.00  0.00    +0.000 A 
ATOM     25  C   UNL     1       5.915   3.582  14.917  0.00  0.00    +0.000 A 
ATOM     26  C   UNL     1       5.607   3.488  16.274  0.00  0.00    +0.000 A 
ATOM     27  C   UNL     1       5.212   4.623  16.988  0.00  0.00    +0.000 A 
ATOM     28  S   UNL     1       4.767   4.431  18.712  0.00  0.00    +0.000 S 
ATOM     29  H   UNL     1       4.703   7.889  16.504  0.00  0.00    +0.000 HD
ENDBRANCH   4  15
BRANCH   7  30
ATOM     30  C   UNL     1      -0.942  12.621  21.153  0.00  0.00    +0.000 A 
ATOM     31  C   UNL     1      -1.954  13.546  20.828  0.00  0.00    +0.000 A 
ATOM     32  C   UNL     1      -1.642  14.896  20.635  0.00  0.00    +0.000 A 
ATOM     33  C   UNL     1      -0.327  15.338  20.769  0.00  0.00    +0.000 A 
ATOM     34  C   UNL     1       0.680  14.441  21.116  0.00  0.00    +0.000 A 
ATOM     35  C   UNL     1       0.374  13.095  21.318  0.00  0.00    +0.000 A 
ENDBRANCH   7  30
TORSDOF 2
ENDMDL
MODEL 4
REMARK VINA RESULT:      -8.0      6.105      8.113
REMARK  Name = 
REMARK  3 active torsions:
REMARK  status: ('A' for Active; 'I' for Inactive)
REMARK    1  A    between atoms: C_1  and  C_2
REMARK    2  A    between atoms: N_4  and  C_5
REMARK    3  A    between atoms: C_21  and  C_22
REMARK                            x       y       z     vdW  Elec       q    Type
REMARK                         _______ _______ _______ _____ _____    ______ ____
ROOT
ATOM      1  C   UNL     1       1.078  18.053  19.345  0.00  0.00    +0.000 C 
ATOM      2  C   UNL     1       2.047  16.961  19.088  0.00  0.00    +0.000 A 
ATOM      3  N   UNL     1       3.363  17.198  19.154  0.00  0.00    +0.000 NA
ATOM      4  N   UNL     1       3.948  16.037  18.734  0.00  0.00    +0.000 N 
ATOM      5  C   UNL     1       3.012  15.036  18.545  0.00  0.00    +0.000 A 
ATOM      6  C   UNL     1       1.785  15.608  18.793  0.00  0.00    +0.000 A 
ATOM      7  C   UNL     1       0.575  14.757  18.716  0.00  0.00    +0.000 C 
ATOM      8  N   UNL     1       0.895  13.369  18.407  0.00  0.00    +0.000 N 
ATOM      9  C   UNL     1       2.193  12.981  18.225  0.00  0.00    +0.000 C 
ATOM     10  N   UNL     1       2.302  11.655  17.954  0.00  0.00    +0.000 N 
ATOM     11  N   UNL     1       3.258  13.725  18.254  0.00  0.00    +0.000 NA
ATOM     12  H   UNL     1       0.172  12.685  18.558  0.00  0.00    +0.000 HD
ATOM     13  H   UNL     1       1.688  11.047  18.474  0.00  0.00    +0.000 HD
ATOM     14  H   UNL     1       3.273  11.355  18.017  0.00  0.00    +0.000 HD
ENDROOT
BRANCH   4  15
ATOM     15  C   UNL     1       5.346  15.976  18.523  0.00  0.00    +0.000 A 
ATOM     16  C   UNL     1       6.144  17.094  18.788  0.00  0.00    +0.000 A 
ATOM     17  C   UNL     1       7.528  17.004  18.628  0.00  0.00    +0.000 A 
ATOM     18  C   UNL     1       8.113  15.815  18.173  0.00  0.00    +0.000 A 
ATOM     19  C   UNL     1       7.306  14.708  17.854  0.00  0.00    +0.000 A 
ATOM     20  C   UNL     1       5.925  14.795  18.049  0.00  0.00    +0.000 A 
ATOM     21  N   UNL     1       7.853  13.474  17.464  0.00  0.00    +0.000 N 
ATOM     22  C   UNL     1       9.159  13.055  17.763  0.00  0.00    +0.000 A 
ATOM     23  C   UNL     1       9.425  11.683  17.863  0.00  0.00    +0.000 A 
ATOM     24  C   UNL     1      10.663  11.233  18.325  0.00  0.00    +0.000 A 
ATOM     25  C   UNL     1      11.654  12.150  18.665  0.00  0.00    +0.000 A 
ATOM     26  C   UNL     1      11.414  13.518  18.537  0.00  0.00    +0.000 A 
ATOM     27  C   UNL     1      10.167  13.977  18.101  0.00  0.00    +0.000 A 
ATOM     28  S   UNL     1       9.894  15.745  18.018  0.00  0.00    +0.000 S 
ATOM     29  H   UNL     1       7.206  12.775  17.129  0.00  0.00    +0.000 HD
ENDBRANCH   4  15
BRANCH   7  30
ATOM     30  C   UNL     1      -0.090  14.842  20.080  0.00  0.00    +0.000 A 
ATOM     31  C   UNL     1      -1.319  15.519  20.210  0.00  0.00    +0.000 A 
ATOM     32  C   UNL     1      -1.912  15.671  21.469  0.00  0.00    +0.000 A 
ATOM     33  C   UNL     1      -1.295  15.147  22.603  0.00  0.00    +0.000 A 
ATOM     34  C   UNL     1      -0.094  14.452  22.487  0.00  0.00    +0.000 A 
ATOM     35  C   UNL     1       0.498  14.290  21.234  0.00  0.00    +0.000 A 
ENDBRANCH   7  30
TORSDOF 2
ENDMDL
MODEL 5
REMARK VINA RESULT:      -7.9      1.789      2.289
REMARK  Name = 
REMARK  3 active torsions:
REMARK  status: ('A' for Active; 'I' for Inactive)
REMARK    1  A    between atoms: C_1  and  C_2
REMARK    2  A    between atoms: N_4  and  C_5
REMARK    3  A    between atoms: C_21  and  C_22
REMARK                            x       y       z     vdW  Elec       q    Type
REMARK                         _______ _______ _______ _____ _____    ______ ____
ROOT
ATOM      1  C   UNL     1      -0.387  12.887  21.682  0.00  0.00    +0.000 C 
ATOM      2  C   UNL     1      -0.313  11.754  20.730  0.00  0.00    +0.000 A 
ATOM      3  N   UNL     1       0.412  10.668  21.029  0.00  0.00    +0.000 NA
ATOM      4  N   UNL     1       0.375   9.901  19.899  0.00  0.00    +0.000 N 
ATOM      5  C   UNL     1      -0.483  10.434  18.952  0.00  0.00    +0.000 A 
ATOM      6  C   UNL     1      -0.953  11.614  19.483  0.00  0.00    +0.000 A 
ATOM      7  C   UNL     1      -1.942  12.397  18.707  0.00  0.00    +0.000 C 
ATOM      8  N   UNL     1      -2.306  11.744  17.457  0.00  0.00    +0.000 N 
ATOM      9  C   UNL     1      -1.749  10.543  17.114  0.00  0.00    +0.000 C 
ATOM     10  N   UNL     1      -2.210  10.081  15.923  0.00  0.00    +0.000 N 
ATOM     11  N   UNL     1      -0.854   9.866  17.769  0.00  0.00    +0.000 NA
ATOM     12  H   UNL     1      -3.127  12.082  16.981  0.00  0.00    +0.000 HD
ATOM     13  H   UNL     1      -3.193  10.222  15.747  0.00  0.00    +0.000 HD
ATOM     14  H   UNL     1      -1.937   9.110  15.785  0.00  0.00    +0.000 HD
ENDROOT
BRANCH   4  15
ATOM     15  C   UNL     1       1.173   8.738  19.797  0.00  0.00    +0.000 A 
ATOM     16  C   UNL     1       0.905   7.631  20.609  0.00  0.00    +0.000 A 
ATOM     17  C   UNL     1       1.665   6.470  20.462  0.00  0.00    +0.000 A 
ATOM     18  C   UNL     1       2.712   6.421  19.531  0.00  0.00    +0.000 A 
ATOM     19  C   UNL     1       3.018   7.553  18.753  0.00  0.00    +0.000 A 
ATOM     20  C   UNL     1       2.230   8.700  18.883  0.00  0.00    +0.000 A 
ATOM     21  N   UNL     1       4.009   7.528  17.758  0.00  0.00    +0.000 N 
ATOM     22  C   UNL     1       4.470   6.362  17.125  0.00  0.00    +0.000 A 
ATOM     23  C   UNL     1       4.981   6.454  15.825  0.00  0.00    +0.000 A 
ATOM     24  C   UNL     1       5.287   5.300  15.100  0.00  0.00    +0.000 A 
ATOM     25  C   UNL     1       5.111   4.047  15.680  0.00  0.00    +0.000 A 
ATOM     26  C   UNL     1       4.634   3.943  16.988  0.00  0.00    +0.000 A 
ATOM     27  C   UNL     1       4.299   5.093  17.709  0.00  0.00    +0.000 A 
ATOM     28  S   UNL     1       3.632   4.897  19.359  0.00  0.00    +0.000 S 
ATOM     29  H   UNL     1       4.255   8.412  17.337  0.00  0.00    +0.000 HD
ENDBRANCH   4  15
BRANCH   7  30
ATOM     30  C   UNL     1      -3.168  12.530  19.596  0.00  0.00    +0.000 A 
ATOM     31  C   UNL     1      -4.341  11.822  19.268  0.00  0.00    +0.000 A 
ATOM     32  C   UNL     1      -5.503  11.987  20.032  0.00  0.00    +0.000 A 
ATOM     33  C   UNL     1      -5.505  12.847  21.128  0.00  0.00    +0.000 A 
ATOM     34  C   UNL     1      -4.345  13.533  21.481  0.00  0.00    +0.000 A 
ATOM     35  C   UNL     1      -3.182  13.367  20.728  0.00  0.00    +0.000 A 
ENDBRANCH   7  30
TORSDOF 2
ENDMDL
MODEL 6
REMARK VINA RESULT:      -7.9      6.318      8.256
REMARK  Name = 
REMARK  3 active torsions:
REMARK  status: ('A' for Active; 'I' for Inactive)
REMARK    1  A    between atoms: C_1  and  C_2
REMARK    2  A    between atoms: N_4  and  C_5
REMARK    3  A    between atoms: C_21  and  C_22
REMARK                            x       y       z     vdW  Elec       q    Type
REMARK                         _______ _______ _______ _____ _____    ______ ____
ROOT
ATOM      1  C   UNL     1       0.915  18.168  17.083  0.00  0.00    +0.000 C 
ATOM      2  C   UNL     1       1.825  17.214  17.761  0.00  0.00    +0.000 A 
ATOM      3  N   UNL     1       3.148  17.414  17.742  0.00  0.00    +0.000 NA
ATOM      4  N   UNL     1       3.679  16.298  18.326  0.00  0.00    +0.000 N 
ATOM      5  C   UNL     1       2.691  15.474  18.835  0.00  0.00    +0.000 A 
ATOM      6  C   UNL     1       1.492  16.062  18.501  0.00  0.00    +0.000 A 
ATOM      7  C   UNL     1       0.236  15.425  18.960  0.00  0.00    +0.000 C 
ATOM      8  N   UNL     1       0.482  14.233  19.761  0.00  0.00    +0.000 N 
ATOM      9  C   UNL     1       1.761  13.819  20.015  0.00  0.00    +0.000 C 
ATOM     10  N   UNL     1       1.799  12.699  20.782  0.00  0.00    +0.000 N 
ATOM     11  N   UNL     1       2.867  14.349  19.588  0.00  0.00    +0.000 NA
ATOM     12  H   UNL     1      -0.289  13.870  20.298  0.00  0.00    +0.000 HD
ATOM     13  H   UNL     1       1.123  12.655  21.529  0.00  0.00    +0.000 HD
ATOM     14  H   UNL     1       2.744  12.526  21.117  0.00  0.00    +0.000 HD
ENDROOT
BRANCH   4  15
ATOM     15  C   UNL     1       5.079  16.092  18.333  0.00  0.00    +0.000 A 
ATOM     16  C   UNL     1       5.929  17.073  18.852  0.00  0.00    +0.000 A 
ATOM     17  C   UNL     1       7.303  16.835  18.904  0.00  0.00    +0.000 A 
ATOM     18  C   UNL     1       7.834  15.636  18.410  0.00  0.00    +0.000 A 
ATOM     19  C   UNL     1       6.985  14.672  17.837  0.00  0.00    +0.000 A 
ATOM     20  C   UNL     1       5.607  14.903  17.820  0.00  0.00    +0.000 A 
ATOM     21  N   UNL     1       7.462  13.426  17.395  0.00  0.00    +0.000 N 
ATOM     22  C   UNL     1       8.648  12.826  17.846  0.00  0.00    +0.000 A 
ATOM     23  C   UNL     1       8.752  11.429  17.823  0.00  0.00    +0.000 A 
ATOM     24  C   UNL     1       9.841  10.789  18.419  0.00  0.00    +0.000 A 
ATOM     25  C   UNL     1      10.848  11.542  19.017  0.00  0.00    +0.000 A 
ATOM     26  C   UNL     1      10.773  12.935  19.017  0.00  0.00    +0.000 A 
ATOM     27  C   UNL     1       9.672  13.582  18.447  0.00  0.00    +0.000 A 
ATOM     28  S   UNL     1       9.598  15.368  18.532  0.00  0.00    +0.000 S 
ATOM     29  H   UNL     1       6.814  12.847  16.881  0.00  0.00    +0.000 HD
ENDBRANCH   4  15
BRANCH   7  30
ATOM     30  C   UNL     1      -0.488  16.467  19.795  0.00  0.00    +0.000 A 
ATOM     31  C   UNL     1      -1.676  17.045  19.304  0.00  0.00    +0.000 A 
ATOM     32  C   UNL     1      -2.318  18.059  20.024  0.00  0.00    +0.000 A 
ATOM     33  C   UNL     1      -1.792  18.500  21.236  0.00  0.00    +0.000 A 
ATOM     34  C   UNL     1      -0.634  17.920  21.748  0.00  0.00    +0.000 A 
ATOM     35  C   UNL     1       0.007  16.904  21.039  0.00  0.00    +0.000 A 
ENDBRANCH   7  30
TORSDOF 2
ENDMDL
MODEL 7
REMARK VINA RESULT:      -7.9      6.807      8.445
REMARK  Name = 
REMARK  3 active torsions:
REMARK  status: ('A' for Active; 'I' for Inactive)
REMARK    1  A    between atoms: C_1  and  C_2
REMARK    2  A    between atoms: N_4  and  C_5
REMARK    3  A    between atoms: C_21  and  C_22
REMARK                            x       y       z     vdW  Elec       q    Type
REMARK                         _______ _______ _______ _____ _____    ______ ____
ROOT
ATOM      1  C   UNL     1       2.112  15.230  22.221  0.00  0.00    +0.000 C 
ATOM      2  C   UNL     1       2.726  15.646  20.937  0.00  0.00    +0.000 A 
ATOM      3  N   UNL     1       4.008  15.361  20.679  0.00  0.00    +0.000 NA
ATOM      4  N   UNL     1       4.277  15.999  19.500  0.00  0.00    +0.000 N 
ATOM      5  C   UNL     1       3.135  16.558  18.954  0.00  0.00    +0.000 A 
ATOM      6  C   UNL     1       2.123  16.318  19.855  0.00  0.00    +0.000 A 
ATOM      7  C   UNL     1       0.751  16.763  19.518  0.00  0.00    +0.000 C 
ATOM      8  N   UNL     1       0.680  17.387  18.203  0.00  0.00    +0.000 N 
ATOM      9  C   UNL     1       1.803  17.507  17.431  0.00  0.00    +0.000 C 
ATOM     10  N   UNL     1       1.548  18.103  16.238  0.00  0.00    +0.000 N 
ATOM     11  N   UNL     1       3.016  17.153  17.732  0.00  0.00    +0.000 NA
ATOM     12  H   UNL     1      -0.233  17.511  17.799  0.00  0.00    +0.000 HD
ATOM     13  H   UNL     1       0.684  17.841  15.790  0.00  0.00    +0.000 HD
ATOM     14  H   UNL     1       2.343  18.005  15.611  0.00  0.00    +0.000 HD
ENDROOT
BRANCH   4  15
ATOM     15  C   UNL     1       5.599  16.047  18.999  0.00  0.00    +0.000 A 
ATOM     16  C   UNL     1       6.313  17.249  19.022  0.00  0.00    +0.000 A 
ATOM     17  C   UNL     1       7.636  17.271  18.574  0.00  0.00    +0.000 A 
ATOM     18  C   UNL     1       8.235  16.108  18.074  0.00  0.00    +0.000 A 
ATOM     19  C   UNL     1       7.499  14.911  18.000  0.00  0.00    +0.000 A 
ATOM     20  C   UNL     1       6.187  14.889  18.481  0.00  0.00    +0.000 A 
ATOM     21  N   UNL     1       8.078  13.704  17.574  0.00  0.00    +0.000 N 
ATOM     22  C   UNL     1       9.455  13.429  17.610  0.00  0.00    +0.000 A 
ATOM     23  C   UNL     1       9.876  12.099  17.730  0.00  0.00    +0.000 A 
ATOM     24  C   UNL     1      11.224  11.798  17.942  0.00  0.00    +0.000 A 
ATOM     25  C   UNL     1      12.163  12.824  18.007  0.00  0.00    +0.000 A 
ATOM     26  C   UNL     1      11.760  14.151  17.855  0.00  0.00    +0.000 A 
ATOM     27  C   UNL     1      10.409  14.461  17.671  0.00  0.00    +0.000 A 
ATOM     28  S   UNL     1       9.942  16.185  17.546  0.00  0.00    +0.000 S 
ATOM     29  H   UNL     1       7.453  12.926  17.426  0.00  0.00    +0.000 HD
ENDBRANCH   4  15
BRANCH   7  30
ATOM     30  C   UNL     1      -0.118  15.517  19.545  0.00  0.00    +0.000 A 
ATOM     31  C   UNL     1      -1.156  15.417  20.493  0.00  0.00    +0.000 A 
ATOM     32  C   UNL     1      -1.921  14.248  20.582  0.00  0.00    +0.000 A 
ATOM     33  C   UNL     1      -1.666  13.176  19.729  0.00  0.00    +0.000 A 
ATOM     34  C   UNL     1      -0.661  13.270  18.770  0.00  0.00    +0.000 A 
ATOM     35  C   UNL     1       0.099  14.435  18.670  0.00  0.00    +0.000 A 
ENDBRANCH   7  30
TORSDOF 2
ENDMDL
MODEL 8
REMARK VINA RESULT:      -7.8      5.458      7.649
REMARK  Name = 
REMARK  3 active torsions:
REMARK  status: ('A' for Active; 'I' for Inactive)
REMARK    1  A    between atoms: C_1  and  C_2
REMARK    2  A    between atoms: N_4  and  C_5
REMARK    3  A    between atoms: C_21  and  C_22
REMARK                            x       y       z     vdW  Elec       q    Type
REMARK                         _______ _______ _______ _____ _____    ______ ____
ROOT
ATOM      1  C   UNL     1      -0.790  16.098  19.851  0.00  0.00    +0.000 C 
ATOM      2  C   UNL     1       0.445  15.363  19.492  0.00  0.00    +0.000 A 
ATOM      3  N   UNL     1       1.641  15.954  19.609  0.00  0.00    +0.000 NA
ATOM      4  N   UNL     1       2.526  15.062  19.073  0.00  0.00    +0.000 N 
ATOM      5  C   UNL     1       1.909  13.865  18.754  0.00  0.00    +0.000 A 
ATOM      6  C   UNL     1       0.574  14.034  19.041  0.00  0.00    +0.000 A 
ATOM      7  C   UNL     1      -0.345  12.889  18.845  0.00  0.00    +0.000 C 
ATOM      8  N   UNL     1       0.351  11.693  18.388  0.00  0.00    +0.000 N 
ATOM      9  C   UNL     1       1.704  11.712  18.188  0.00  0.00    +0.000 C 
ATOM     10  N   UNL     1       2.181  10.511  17.771  0.00  0.00    +0.000 N 
ATOM     11  N   UNL     1       2.513  12.720  18.322  0.00  0.00    +0.000 NA
ATOM     12  H   UNL     1      -0.145  10.820  18.447  0.00  0.00    +0.000 HD
ATOM     13  H   UNL     1       1.772   9.700  18.208  0.00  0.00    +0.000 HD
ATOM     14  H   UNL     1       3.198  10.494  17.819  0.00  0.00    +0.000 HD
ENDROOT
BRANCH   4  15
ATOM     15  C   UNL     1       3.881  15.424  18.884  0.00  0.00    +0.000 A 
ATOM     16  C   UNL     1       4.347  16.658  19.347  0.00  0.00    +0.000 A 
ATOM     17  C   UNL     1       5.697  16.982  19.203  0.00  0.00    +0.000 A 
ATOM     18  C   UNL     1       6.575  16.092  18.569  0.00  0.00    +0.000 A 
ATOM     19  C   UNL     1       6.095  14.874  18.053  0.00  0.00    +0.000 A 
ATOM     20  C   UNL     1       4.750  14.544  18.232  0.00  0.00    +0.000 A 
ATOM     21  N   UNL     1       6.950  13.921  17.475  0.00  0.00    +0.000 N 
ATOM     22  C   UNL     1       8.328  13.834  17.727  0.00  0.00    +0.000 A 
ATOM     23  C   UNL     1       8.963  12.592  17.603  0.00  0.00    +0.000 A 
ATOM     24  C   UNL     1      10.290  12.430  18.009  0.00  0.00    +0.000 A 
ATOM     25  C   UNL     1      10.999  13.515  18.517  0.00  0.00    +0.000 A 
ATOM     26  C   UNL     1      10.388  14.766  18.614  0.00  0.00    +0.000 A 
ATOM     27  C   UNL     1       9.052  14.929  18.235  0.00  0.00    +0.000 A 
ATOM     28  S   UNL     1       8.302  16.541  18.441  0.00  0.00    +0.000 S 
ATOM     29  H   UNL     1       6.512  13.136  17.015  0.00  0.00    +0.000 HD
ENDBRANCH   4  15
BRANCH   7  30
ATOM     30  C   UNL     1      -0.989  12.626  20.196  0.00  0.00    +0.000 A 
ATOM     31  C   UNL     1      -2.374  12.829  20.355  0.00  0.00    +0.000 A 
ATOM     32  C   UNL     1      -2.974  12.663  21.609  0.00  0.00    +0.000 A 
ATOM     33  C   UNL     1      -2.206  12.287  22.709  0.00  0.00    +0.000 A 
ATOM     34  C   UNL     1      -0.840  12.057  22.563  0.00  0.00    +0.000 A 
ATOM     35  C   UNL     1      -0.238  12.214  21.314  0.00  0.00    +0.000 A 
ENDBRANCH   7  30
TORSDOF 2
ENDMDL
MODEL 9
REMARK VINA RESULT:      -7.8      2.203      3.185
REMARK  Name = 
REMARK  3 active torsions:
REMARK  status: ('A' for Active; 'I' for Inactive)
REMARK    1  A    between atoms: C_1  and  C_2
REMARK    2  A    between atoms: N_4  and  C_5
REMARK    3  A    between atoms: C_21  and  C_22
REMARK                            x       y       z     vdW  Elec       q    Type
REMARK                         _______ _______ _______ _____ _____    ______ ____
ROOT
ATOM      1  C   UNL     1       1.909  13.863  21.079  0.00  0.00    +0.000 C 
ATOM      2  C   UNL     1       1.298  12.639  20.512  0.00  0.00    +0.000 A 
ATOM      3  N   UNL     1       1.560  11.442  21.051  0.00  0.00    +0.000 NA
ATOM      4  N   UNL     1       0.960  10.543  20.215  0.00  0.00    +0.000 N 
ATOM      5  C   UNL     1       0.209  11.178  19.242  0.00  0.00    +0.000 A 
ATOM      6  C   UNL     1       0.395  12.528  19.435  0.00  0.00    +0.000 A 
ATOM      7  C   UNL     1      -0.332  13.477  18.562  0.00  0.00    +0.000 C 
ATOM      8  N   UNL     1      -1.201  12.798  17.610  0.00  0.00    +0.000 N 
ATOM      9  C   UNL     1      -1.278  11.433  17.593  0.00  0.00    +0.000 C 
ATOM     10  N   UNL     1      -2.141  10.976  16.649  0.00  0.00    +0.000 N 
ATOM     11  N   UNL     1      -0.618  10.590  18.329  0.00  0.00    +0.000 NA
ATOM     12  H   UNL     1      -1.895  13.355  17.139  0.00  0.00    +0.000 HD
ATOM     13  H   UNL     1      -2.991  11.506  16.537  0.00  0.00    +0.000 HD
ATOM     14  H   UNL     1      -2.329   9.985  16.785  0.00  0.00    +0.000 HD
ENDROOT
BRANCH   4  15
ATOM     15  C   UNL     1       1.166   9.154  20.392  0.00  0.00    +0.000 A 
ATOM     16  C   UNL     1       0.449   8.458  21.369  0.00  0.00    +0.000 A 
ATOM     17  C   UNL     1       0.621   7.078  21.497  0.00  0.00    +0.000 A 
ATOM     18  C   UNL     1       1.530   6.399  20.676  0.00  0.00    +0.000 A 
ATOM     19  C   UNL     1       2.293   7.107  19.729  0.00  0.00    +0.000 A 
ATOM     20  C   UNL     1       2.090   8.482  19.585  0.00  0.00    +0.000 A 
ATOM     21  N   UNL     1       3.163   6.460  18.836  0.00  0.00    +0.000 N 
ATOM     22  C   UNL     1       3.058   5.109  18.466  0.00  0.00    +0.000 A 
ATOM     23  C   UNL     1       3.544   4.710  17.214  0.00  0.00    +0.000 A 
ATOM     24  C   UNL     1       3.305   3.418  16.740  0.00  0.00    +0.000 A 
ATOM     25  C   UNL     1       2.604   2.508  17.525  0.00  0.00    +0.000 A 
ATOM     26  C   UNL     1       2.144   2.883  18.788  0.00  0.00    +0.000 A 
ATOM     27  C   UNL     1       2.355   4.182  19.258  0.00  0.00    +0.000 A 
ATOM     28  S   UNL     1       1.687   4.626  20.858  0.00  0.00    +0.000 S 
ATOM     29  H   UNL     1       3.766   7.048  18.281  0.00  0.00    +0.000 HD
ENDBRANCH   4  15
BRANCH   7  30
ATOM     30  C   UNL     1      -1.163  14.352  19.486  0.00  0.00    +0.000 A 
ATOM     31  C   UNL     1      -0.891  15.732  19.563  0.00  0.00    +0.000 A 
ATOM     32  C   UNL     1      -1.596  16.542  20.461  0.00  0.00    +0.000 A 
ATOM     33  C   UNL     1      -2.578  15.990  21.281  0.00  0.00    +0.000 A 
ATOM     34  C   UNL     1      -2.877  14.633  21.198  0.00  0.00    +0.000 A 
ATOM     35  C   UNL     1      -2.183  13.822  20.299  0.00  0.00    +0.000 A 
ENDBRANCH   7  30
TORSDOF 2
ENDMDL
