MODEL 1
REMARK VINA RESULT:      -7.8      0.000      0.000
REMARK  Name = 
REMARK  10 active torsions:
REMARK  status: ('A' for Active; 'I' for Inactive)
REMARK    1  A    between atoms: C_1  and  N_2
REMARK    2  A    between atoms: C_4  and  C_5
REMARK    3  A    between atoms: C_5  and  C_7
REMARK    4  A    between atoms: C_13  and  C_14
REMARK    5  A    between atoms: N_16  and  C_17
REMARK    6  A    between atoms: C_17  and  C_18
REMARK    7  A    between atoms: C_21  and  C_22
REMARK    8  A    between atoms: C_22  and  C_23
REMARK    9  A    between atoms: C_22  and  C_24
REMARK   10  A    between atoms: C_22  and  C_25
REMARK                            x       y       z     vdW  Elec       q    Type
REMARK                         _______ _______ _______ _____ _____    ______ ____
ROOT
ATOM      1  C   UNL     1       2.773   5.479  20.014  0.00  0.00    +0.000 C 
ATOM      2  O   UNL     1       2.518   4.787  20.994  0.00  0.00    +0.000 OA
ATOM      3  N   UNL     1       2.422   6.802  19.933  0.00  0.00    +0.000 N 
ATOM      4  H   UNL     1       2.573   7.297  19.064  0.00  0.00    +0.000 HD
ENDROOT
BRANCH   1  11
ATOM      5  C   UNL     1       1.433   4.095  17.613  0.00  0.00    +0.000 C 
ATOM      6  N   UNL     1       2.851   4.322  17.802  0.00  0.00    +0.000 N 
ATOM      7  N   UNL     1       3.701   3.920  16.832  0.00  0.00    +0.000 NA
ATOM      8  C   UNL     1       4.906   4.319  17.262  0.00  0.00    +0.000 A 
ATOM      9  C   UNL     1       4.808   4.975  18.511  0.00  0.00    +0.000 A 
ATOM     10 CL   UNL     1       6.127   5.601  19.388  0.00  0.00    +0.000 Cl
ATOM     11  C   UNL     1       3.465   4.971  18.849  0.00  0.00    +0.000 A 
BRANCH   8  12
ATOM     12  C   UNL     1       6.125   4.072  16.432  0.00  0.00    +0.000 C 
ATOM     13  F   UNL     1       5.900   3.027  15.572  0.00  0.00    +0.000 F 
BRANCH  12  14
ATOM     14  C   UNL     1       6.610   5.297  15.658  0.00  0.00    +0.000 C 
ATOM     15  F   UNL     1       5.609   6.080  15.192  0.00  0.00    +0.000 F 
ATOM     16  F   UNL     1       7.393   6.084  16.438  0.00  0.00    +0.000 F 
ATOM     17  F   UNL     1       7.361   4.947  14.584  0.00  0.00    +0.000 F 
ENDBRANCH  12  14
ENDBRANCH   8  12
ENDBRANCH   1  11
BRANCH   3  18
ATOM     18  C   UNL     1       1.793   7.538  21.000  0.00  0.00    +0.000 C 
BRANCH  18  19
ATOM     19  C   UNL     1       1.038   8.723  20.463  0.00  0.00    +0.000 A 
ATOM     20  C   UNL     1       1.289   9.178  19.167  0.00  0.00    +0.000 A 
ATOM     21  C   UNL     1       0.586  10.266  18.641  0.00  0.00    +0.000 A 
ATOM     22  C   UNL     1      -0.384  10.948  19.397  0.00  0.00    +0.000 A 
ATOM     23  C   UNL     1      -0.602  10.502  20.715  0.00  0.00    +0.000 A 
ATOM     24  C   UNL     1       0.099   9.409  21.242  0.00  0.00    +0.000 A 
BRANCH  22  25
ATOM     25  C   UNL     1      -1.208  12.115  18.823  0.00  0.00    +0.000 C 
ATOM     26  C   UNL     1      -0.336  13.289  18.314  0.00  0.00    +0.000 C 
ATOM     27  C   UNL     1      -2.043  11.618  17.623  0.00  0.00    +0.000 C 
ATOM     28  C   UNL     1      -2.158  12.687  19.895  0.00  0.00    +0.000 C 
ENDBRANCH  22  25
ENDBRANCH  18  19
ENDBRANCH   3  18
TORSDOF 6
ENDMDL
MODEL 2
REMARK VINA RESULT:      -7.8      0.050      1.104
REMARK  Name = 
REMARK  10 active torsions:
REMARK  status: ('A' for Active; 'I' for Inactive)
REMARK    1  A    between atoms: C_1  and  N_2
REMARK    2  A    between atoms: C_4  and  C_5
REMARK    3  A    between atoms: C_5  and  C_7
REMARK    4  A    between atoms: C_13  and  C_14
REMARK    5  A    between atoms: N_16  and  C_17
REMARK    6  A    between atoms: C_17  and  C_18
REMARK    7  A    between atoms: C_21  and  C_22
REMARK    8  A    between atoms: C_22  and  C_23
REMARK    9  A    between atoms: C_22  and  C_24
REMARK   10  A    between atoms: C_22  and  C_25
REMARK                            x       y       z     vdW  Elec       q    Type
REMARK                         _______ _______ _______ _____ _____    ______ ____
ROOT
ATOM      1  C   UNL     1       2.797   5.497  20.022  0.00  0.00    +0.000 C 
ATOM      2  O   UNL     1       2.554   4.811  21.009  0.00  0.00    +0.000 OA
ATOM      3  N   UNL     1       2.435   6.817  19.932  0.00  0.00    +0.000 N 
ATOM      4  H   UNL     1       2.578   7.306  19.058  0.00  0.00    +0.000 HD
ENDROOT
BRANCH   1  11
ATOM      5  C   UNL     1       1.451   4.116  17.623  0.00  0.00    +0.000 C 
ATOM      6  N   UNL     1       2.870   4.337  17.812  0.00  0.00    +0.000 N 
ATOM      7  N   UNL     1       3.718   3.931  16.842  0.00  0.00    +0.000 NA
ATOM      8  C   UNL     1       4.925   4.324  17.271  0.00  0.00    +0.000 A 
ATOM      9  C   UNL     1       4.830   4.982  18.519  0.00  0.00    +0.000 A 
ATOM     10 CL   UNL     1       6.152   5.604  19.395  0.00  0.00    +0.000 Cl
ATOM     11  C   UNL     1       3.487   4.985  18.857  0.00  0.00    +0.000 A 
BRANCH   8  12
ATOM     12  C   UNL     1       6.142   4.071  16.441  0.00  0.00    +0.000 C 
ATOM     13  F   UNL     1       5.917   3.018  15.591  0.00  0.00    +0.000 F 
BRANCH  12  14
ATOM     14  C   UNL     1       6.624   5.289  15.654  0.00  0.00    +0.000 C 
ATOM     15  F   UNL     1       7.364   4.979  14.565  0.00  0.00    +0.000 F 
ATOM     16  F   UNL     1       5.574   6.030  15.217  0.00  0.00    +0.000 F 
ATOM     17  F   UNL     1       7.385   6.111  16.420  0.00  0.00    +0.000 F 
ENDBRANCH  12  14
ENDBRANCH   8  12
ENDBRANCH   1  11
BRANCH   3  18
ATOM     18  C   UNL     1       1.806   7.557  20.997  0.00  0.00    +0.000 C 
BRANCH  18  19
ATOM     19  C   UNL     1       1.031   8.724  20.453  0.00  0.00    +0.000 A 
ATOM     20  C   UNL     1       1.283   9.186  19.159  0.00  0.00    +0.000 A 
ATOM     21  C   UNL     1       0.561  10.258  18.628  0.00  0.00    +0.000 A 
ATOM     22  C   UNL     1      -0.431  10.917  19.374  0.00  0.00    +0.000 A 
ATOM     23  C   UNL     1      -0.651  10.466  20.691  0.00  0.00    +0.000 A 
ATOM     24  C   UNL     1       0.069   9.389  21.224  0.00  0.00    +0.000 A 
BRANCH  22  25
ATOM     25  C   UNL     1      -1.275  12.067  18.793  0.00  0.00    +0.000 C 
ATOM     26  C   UNL     1      -2.150  11.638  17.590  0.00  0.00    +0.000 C 
ATOM     27  C   UNL     1      -2.231  12.607  19.880  0.00  0.00    +0.000 C 
ATOM     28  C   UNL     1      -0.367  13.215  18.307  0.00  0.00    +0.000 C 
ENDBRANCH  22  25
ENDBRANCH  18  19
ENDBRANCH   3  18
TORSDOF 6
ENDMDL
MODEL 3
REMARK VINA RESULT:      -7.7      1.456      1.825
REMARK  Name = 
REMARK  10 active torsions:
REMARK  status: ('A' for Active; 'I' for Inactive)
REMARK    1  A    between atoms: C_1  and  N_2
REMARK    2  A    between atoms: C_4  and  C_5
REMARK    3  A    between atoms: C_5  and  C_7
REMARK    4  A    between atoms: C_13  and  C_14
REMARK    5  A    between atoms: N_16  and  C_17
REMARK    6  A    between atoms: C_17  and  C_18
REMARK    7  A    between atoms: C_21  and  C_22
REMARK    8  A    between atoms: C_22  and  C_23
REMARK    9  A    between atoms: C_22  and  C_24
REMARK   10  A    between atoms: C_22  and  C_25
REMARK                            x       y       z     vdW  Elec       q    Type
REMARK                         _______ _______ _______ _____ _____    ______ ____
ROOT
ATOM      1  C   UNL     1       2.535   5.415  19.566  0.00  0.00    +0.000 C 
ATOM      2  O   UNL     1       1.527   4.715  19.556  0.00  0.00    +0.000 OA
ATOM      3  N   UNL     1       2.571   6.648  20.165  0.00  0.00    +0.000 N 
ATOM      4  H   UNL     1       3.400   7.219  20.061  0.00  0.00    +0.000 HD
ENDROOT
BRANCH   1  11
ATOM      5  C   UNL     1       4.056   2.809  20.175  0.00  0.00    +0.000 C 
ATOM      6  N   UNL     1       4.464   3.858  19.265  0.00  0.00    +0.000 N 
ATOM      7  N   UNL     1       5.614   3.698  18.574  0.00  0.00    +0.000 NA
ATOM      8  C   UNL     1       5.683   4.781  17.788  0.00  0.00    +0.000 A 
ATOM      9  C   UNL     1       4.565   5.625  17.989  0.00  0.00    +0.000 A 
ATOM     10 CL   UNL     1       4.309   7.107  17.191  0.00  0.00    +0.000 Cl
ATOM     11  C   UNL     1       3.781   5.011  18.951  0.00  0.00    +0.000 A 
BRANCH   8  12
ATOM     12  C   UNL     1       6.825   4.956  16.840  0.00  0.00    +0.000 C 
ATOM     13  F   UNL     1       7.918   4.261  17.291  0.00  0.00    +0.000 F 
BRANCH  12  14
ATOM     14  C   UNL     1       6.505   4.559  15.400  0.00  0.00    +0.000 C 
ATOM     15  F   UNL     1       6.125   3.267  15.261  0.00  0.00    +0.000 F 
ATOM     16  F   UNL     1       5.499   5.319  14.899  0.00  0.00    +0.000 F 
ATOM     17  F   UNL     1       7.571   4.740  14.580  0.00  0.00    +0.000 F 
ENDBRANCH  12  14
ENDBRANCH   8  12
ENDBRANCH   1  11
BRANCH   3  18
ATOM     18  C   UNL     1       1.474   7.222  20.902  0.00  0.00    +0.000 C 
BRANCH  18  19
ATOM     19  C   UNL     1       1.236   8.647  20.486  0.00  0.00    +0.000 A 
ATOM     20  C   UNL     1       1.410   9.022  19.152  0.00  0.00    +0.000 A 
ATOM     21  C   UNL     1       1.176  10.337  18.741  0.00  0.00    +0.000 A 
ATOM     22  C   UNL     1       0.773  11.330  19.650  0.00  0.00    +0.000 A 
ATOM     23  C   UNL     1       0.636  10.948  21.000  0.00  0.00    +0.000 A 
ATOM     24  C   UNL     1       0.866   9.629  21.413  0.00  0.00    +0.000 A 
BRANCH  22  25
ATOM     25  C   UNL     1       0.460  12.773  19.213  0.00  0.00    +0.000 C 
ATOM     26  C   UNL     1       1.615  13.440  18.429  0.00  0.00    +0.000 C 
ATOM     27  C   UNL     1      -0.777  12.775  18.288  0.00  0.00    +0.000 C 
ATOM     28  C   UNL     1       0.171  13.661  20.441  0.00  0.00    +0.000 C 
ENDBRANCH  22  25
ENDBRANCH  18  19
ENDBRANCH   3  18
TORSDOF 6
ENDMDL
MODEL 4
REMARK VINA RESULT:      -7.7      0.069      1.179
REMARK  Name = 
REMARK  10 active torsions:
REMARK  status: ('A' for Active; 'I' for Inactive)
REMARK    1  A    between atoms: C_1  and  N_2
REMARK    2  A    between atoms: C_4  and  C_5
REMARK    3  A    between atoms: C_5  and  C_7
REMARK    4  A    between atoms: C_13  and  C_14
REMARK    5  A    between atoms: N_16  and  C_17
REMARK    6  A    between atoms: C_17  and  C_18
REMARK    7  A    between atoms: C_21  and  C_22
REMARK    8  A    between atoms: C_22  and  C_23
REMARK    9  A    between atoms: C_22  and  C_24
REMARK   10  A    between atoms: C_22  and  C_25
REMARK                            x       y       z     vdW  Elec       q    Type
REMARK                         _______ _______ _______ _____ _____    ______ ____
ROOT
ATOM      1  C   UNL     1       2.808   5.508  19.979  0.00  0.00    +0.000 C 
ATOM      2  O   UNL     1       2.540   4.825  20.962  0.00  0.00    +0.000 OA
ATOM      3  N   UNL     1       2.475   6.836  19.889  0.00  0.00    +0.000 N 
ATOM      4  H   UNL     1       2.636   7.324  19.017  0.00  0.00    +0.000 HD
ENDROOT
BRANCH   1  11
ATOM      5  C   UNL     1       1.466   4.105  17.591  0.00  0.00    +0.000 C 
ATOM      6  N   UNL     1       2.884   4.327  17.780  0.00  0.00    +0.000 N 
ATOM      7  N   UNL     1       3.733   3.912  16.815  0.00  0.00    +0.000 NA
ATOM      8  C   UNL     1       4.940   4.309  17.242  0.00  0.00    +0.000 A 
ATOM      9  C   UNL     1       4.843   4.979  18.484  0.00  0.00    +0.000 A 
ATOM     10 CL   UNL     1       6.164   5.609  19.356  0.00  0.00    +0.000 Cl
ATOM     11  C   UNL     1       3.500   4.985  18.820  0.00  0.00    +0.000 A 
BRANCH   8  12
ATOM     12  C   UNL     1       6.158   4.047  16.416  0.00  0.00    +0.000 C 
ATOM     13  F   UNL     1       5.924   3.006  15.555  0.00  0.00    +0.000 F 
BRANCH  12  14
ATOM     14  C   UNL     1       6.661   5.267  15.645  0.00  0.00    +0.000 C 
ATOM     15  F   UNL     1       7.426   4.958  14.573  0.00  0.00    +0.000 F 
ATOM     16  F   UNL     1       5.623   6.011  15.185  0.00  0.00    +0.000 F 
ATOM     17  F   UNL     1       7.405   6.085  16.430  0.00  0.00    +0.000 F 
ENDBRANCH  12  14
ENDBRANCH   8  12
ENDBRANCH   1  11
BRANCH   3  18
ATOM     18  C   UNL     1       1.850   7.586  20.948  0.00  0.00    +0.000 C 
BRANCH  18  19
ATOM     19  C   UNL     1       1.054   8.735  20.395  0.00  0.00    +0.000 A 
ATOM     20  C   UNL     1       0.117   9.385  21.200  0.00  0.00    +0.000 A 
ATOM     21  C   UNL     1      -0.621  10.467  20.711  0.00  0.00    +0.000 A 
ATOM     22  C   UNL     1      -0.457  10.932  19.395  0.00  0.00    +0.000 A 
ATOM     23  C   UNL     1       0.465  10.245  18.581  0.00  0.00    +0.000 A 
ATOM     24  C   UNL     1       1.208   9.163  19.070  0.00  0.00    +0.000 A 
BRANCH  22  25
ATOM     25  C   UNL     1      -1.220  12.154  18.850  0.00  0.00    +0.000 C 
ATOM     26  C   UNL     1      -0.289  13.302  18.391  0.00  0.00    +0.000 C 
ATOM     27  C   UNL     1      -2.060  11.734  17.624  0.00  0.00    +0.000 C 
ATOM     28  C   UNL     1      -2.158  12.733  19.928  0.00  0.00    +0.000 C 
ENDBRANCH  22  25
ENDBRANCH  18  19
ENDBRANCH   3  18
TORSDOF 6
ENDMDL
MODEL 5
REMARK VINA RESULT:      -7.7      1.346      2.019
REMARK  Name = 
REMARK  10 active torsions:
REMARK  status: ('A' for Active; 'I' for Inactive)
REMARK    1  A    between atoms: C_1  and  N_2
REMARK    2  A    between atoms: C_4  and  C_5
REMARK    3  A    between atoms: C_5  and  C_7
REMARK    4  A    between atoms: C_13  and  C_14
REMARK    5  A    between atoms: N_16  and  C_17
REMARK    6  A    between atoms: C_17  and  C_18
REMARK    7  A    between atoms: C_21  and  C_22
REMARK    8  A    between atoms: C_22  and  C_23
REMARK    9  A    between atoms: C_22  and  C_24
REMARK   10  A    between atoms: C_22  and  C_25
REMARK                            x       y       z     vdW  Elec       q    Type
REMARK                         _______ _______ _______ _____ _____    ______ ____
ROOT
ATOM      1  C   UNL     1       2.515   5.344  19.663  0.00  0.00    +0.000 C 
ATOM      2  O   UNL     1       1.515   4.634  19.635  0.00  0.00    +0.000 OA
ATOM      3  N   UNL     1       2.545   6.552  20.312  0.00  0.00    +0.000 N 
ATOM      4  H   UNL     1       3.365   7.137  20.222  0.00  0.00    +0.000 HD
ENDROOT
BRANCH   1  11
ATOM      5  C   UNL     1       4.098   2.756  20.181  0.00  0.00    +0.000 C 
ATOM      6  N   UNL     1       4.469   3.835  19.290  0.00  0.00    +0.000 N 
ATOM      7  N   UNL     1       5.609   3.715  18.576  0.00  0.00    +0.000 NA
ATOM      8  C   UNL     1       5.643   4.819  17.816  0.00  0.00    +0.000 A 
ATOM      9  C   UNL     1       4.513   5.635  18.057  0.00  0.00    +0.000 A 
ATOM     10 CL   UNL     1       4.213   7.130  17.300  0.00  0.00    +0.000 Cl
ATOM     11  C   UNL     1       3.758   4.981  19.016  0.00  0.00    +0.000 A 
BRANCH   8  12
ATOM     12  C   UNL     1       6.764   5.041  16.853  0.00  0.00    +0.000 C 
ATOM     13  F   UNL     1       7.881   4.364  17.272  0.00  0.00    +0.000 F 
BRANCH  12  14
ATOM     14  C   UNL     1       6.430   4.663  15.410  0.00  0.00    +0.000 C 
ATOM     15  F   UNL     1       5.404   5.372  14.884  0.00  0.00    +0.000 F 
ATOM     16  F   UNL     1       7.499   4.859  14.598  0.00  0.00    +0.000 F 
ATOM     17  F   UNL     1       6.094   3.354  15.299  0.00  0.00    +0.000 F 
ENDBRANCH  12  14
ENDBRANCH   8  12
ENDBRANCH   1  11
BRANCH   3  18
ATOM     18  C   UNL     1       1.450   7.082  21.085  0.00  0.00    +0.000 C 
BRANCH  18  19
ATOM     19  C   UNL     1       1.017   8.421  20.555  0.00  0.00    +0.000 A 
ATOM     20  C   UNL     1       0.105   9.194  21.276  0.00  0.00    +0.000 A 
ATOM     21  C   UNL     1      -0.296  10.449  20.810  0.00  0.00    +0.000 A 
ATOM     22  C   UNL     1       0.188  10.972  19.599  0.00  0.00    +0.000 A 
ATOM     23  C   UNL     1       1.079  10.167  18.862  0.00  0.00    +0.000 A 
ATOM     24  C   UNL     1       1.486   8.911  19.330  0.00  0.00    +0.000 A 
BRANCH  22  25
ATOM     25  C   UNL     1      -0.199  12.373  19.090  0.00  0.00    +0.000 C 
ATOM     26  C   UNL     1      -0.766  13.293  20.199  0.00  0.00    +0.000 C 
ATOM     27  C   UNL     1       1.048  13.076  18.511  0.00  0.00    +0.000 C 
ATOM     28  C   UNL     1      -1.276  12.272  17.990  0.00  0.00    +0.000 C 
ENDBRANCH  22  25
ENDBRANCH  18  19
ENDBRANCH   3  18
TORSDOF 6
ENDMDL
MODEL 6
REMARK VINA RESULT:      -7.7      0.098      1.434
REMARK  Name = 
REMARK  10 active torsions:
REMARK  status: ('A' for Active; 'I' for Inactive)
REMARK    1  A    between atoms: C_1  and  N_2
REMARK    2  A    between atoms: C_4  and  C_5
REMARK    3  A    between atoms: C_5  and  C_7
REMARK    4  A    between atoms: C_13  and  C_14
REMARK    5  A    between atoms: N_16  and  C_17
REMARK    6  A    between atoms: C_17  and  C_18
REMARK    7  A    between atoms: C_21  and  C_22
REMARK    8  A    between atoms: C_22  and  C_23
REMARK    9  A    between atoms: C_22  and  C_24
REMARK   10  A    between atoms: C_22  and  C_25
REMARK                            x       y       z     vdW  Elec       q    Type
REMARK                         _______ _______ _______ _____ _____    ______ ____
ROOT
ATOM      1  C   UNL     1       2.834   5.517  19.993  0.00  0.00    +0.000 C 
ATOM      2  O   UNL     1       2.573   4.839  20.982  0.00  0.00    +0.000 OA
ATOM      3  N   UNL     1       2.494   6.842  19.897  0.00  0.00    +0.000 N 
ATOM      4  H   UNL     1       2.650   7.325  19.022  0.00  0.00    +0.000 HD
ENDROOT
BRANCH   1  11
ATOM      5  C   UNL     1       1.485   4.098  17.619  0.00  0.00    +0.000 C 
ATOM      6  N   UNL     1       2.903   4.324  17.801  0.00  0.00    +0.000 N 
ATOM      7  N   UNL     1       3.750   3.906  16.835  0.00  0.00    +0.000 NA
ATOM      8  C   UNL     1       4.957   4.308  17.255  0.00  0.00    +0.000 A 
ATOM      9  C   UNL     1       4.864   4.985  18.494  0.00  0.00    +0.000 A 
ATOM     10 CL   UNL     1       6.187   5.622  19.357  0.00  0.00    +0.000 Cl
ATOM     11  C   UNL     1       3.522   4.989  18.835  0.00  0.00    +0.000 A 
BRANCH   8  12
ATOM     12  C   UNL     1       6.173   4.045  16.426  0.00  0.00    +0.000 C 
ATOM     13  F   UNL     1       5.936   3.002  15.567  0.00  0.00    +0.000 F 
BRANCH  12  14
ATOM     14  C   UNL     1       6.673   5.263  15.650  0.00  0.00    +0.000 C 
ATOM     15  F   UNL     1       7.406   6.123  16.395  0.00  0.00    +0.000 F 
ATOM     16  F   UNL     1       7.452   4.886  14.605  0.00  0.00    +0.000 F 
ATOM     17  F   UNL     1       5.646   5.980  15.127  0.00  0.00    +0.000 F 
ENDBRANCH  12  14
ENDBRANCH   8  12
ENDBRANCH   1  11
BRANCH   3  18
ATOM     18  C   UNL     1       1.871   7.596  20.955  0.00  0.00    +0.000 C 
BRANCH  18  19
ATOM     19  C   UNL     1       1.052   8.727  20.397  0.00  0.00    +0.000 A 
ATOM     20  C   UNL     1       0.127   9.384  21.211  0.00  0.00    +0.000 A 
ATOM     21  C   UNL     1      -0.632  10.449  20.718  0.00  0.00    +0.000 A 
ATOM     22  C   UNL     1      -0.504  10.888  19.388  0.00  0.00    +0.000 A 
ATOM     23  C   UNL     1       0.405  10.194  18.567  0.00  0.00    +0.000 A 
ATOM     24  C   UNL     1       1.170   9.129  19.061  0.00  0.00    +0.000 A 
BRANCH  22  25
ATOM     25  C   UNL     1      -1.291  12.091  18.837  0.00  0.00    +0.000 C 
ATOM     26  C   UNL     1      -2.170  11.740  17.612  0.00  0.00    +0.000 C 
ATOM     27  C   UNL     1      -2.235  12.637  19.930  0.00  0.00    +0.000 C 
ATOM     28  C   UNL     1      -0.328  13.213  18.398  0.00  0.00    +0.000 C 
ENDBRANCH  22  25
ENDBRANCH  18  19
ENDBRANCH   3  18
TORSDOF 6
ENDMDL
MODEL 7
REMARK VINA RESULT:      -7.7      1.373      1.871
REMARK  Name = 
REMARK  10 active torsions:
REMARK  status: ('A' for Active; 'I' for Inactive)
REMARK    1  A    between atoms: C_1  and  N_2
REMARK    2  A    between atoms: C_4  and  C_5
REMARK    3  A    between atoms: C_5  and  C_7
REMARK    4  A    between atoms: C_13  and  C_14
REMARK    5  A    between atoms: N_16  and  C_17
REMARK    6  A    between atoms: C_17  and  C_18
REMARK    7  A    between atoms: C_21  and  C_22
REMARK    8  A    between atoms: C_22  and  C_23
REMARK    9  A    between atoms: C_22  and  C_24
REMARK   10  A    between atoms: C_22  and  C_25
REMARK                            x       y       z     vdW  Elec       q    Type
REMARK                         _______ _______ _______ _____ _____    ______ ____
ROOT
ATOM      1  C   UNL     1       2.508   5.322  19.618  0.00  0.00    +0.000 C 
ATOM      2  O   UNL     1       1.513   4.603  19.601  0.00  0.00    +0.000 OA
ATOM      3  N   UNL     1       2.529   6.537  20.253  0.00  0.00    +0.000 N 
ATOM      4  H   UNL     1       3.345   7.127  20.154  0.00  0.00    +0.000 HD
ENDROOT
BRANCH   1  11
ATOM      5  C   UNL     1       4.100   2.741  20.146  0.00  0.00    +0.000 C 
ATOM      6  N   UNL     1       4.467   3.819  19.251  0.00  0.00    +0.000 N 
ATOM      7  N   UNL     1       5.608   3.700  18.538  0.00  0.00    +0.000 NA
ATOM      8  C   UNL     1       5.638   4.801  17.774  0.00  0.00    +0.000 A 
ATOM      9  C   UNL     1       4.505   5.613  18.012  0.00  0.00    +0.000 A 
ATOM     10 CL   UNL     1       4.200   7.105  17.249  0.00  0.00    +0.000 Cl
ATOM     11  C   UNL     1       3.752   4.961  18.973  0.00  0.00    +0.000 A 
BRANCH   8  12
ATOM     12  C   UNL     1       6.759   5.023  16.810  0.00  0.00    +0.000 C 
ATOM     13  F   UNL     1       7.875   4.343  17.227  0.00  0.00    +0.000 F 
BRANCH  12  14
ATOM     14  C   UNL     1       6.422   4.651  15.367  0.00  0.00    +0.000 C 
ATOM     15  F   UNL     1       5.406   5.371  14.840  0.00  0.00    +0.000 F 
ATOM     16  F   UNL     1       7.495   4.835  14.557  0.00  0.00    +0.000 F 
ATOM     17  F   UNL     1       6.072   3.345  15.255  0.00  0.00    +0.000 F 
ENDBRANCH  12  14
ENDBRANCH   8  12
ENDBRANCH   1  11
BRANCH   3  18
ATOM     18  C   UNL     1       1.432   7.067  21.022  0.00  0.00    +0.000 C 
BRANCH  18  19
ATOM     19  C   UNL     1       1.072   8.452  20.559  0.00  0.00    +0.000 A 
ATOM     20  C   UNL     1       1.535   8.916  19.327  0.00  0.00    +0.000 A 
ATOM     21  C   UNL     1       1.197  10.193  18.869  0.00  0.00    +0.000 A 
ATOM     22  C   UNL     1       0.395  11.058  19.633  0.00  0.00    +0.000 A 
ATOM     23  C   UNL     1      -0.035  10.592  20.891  0.00  0.00    +0.000 A 
ATOM     24  C   UNL     1       0.298   9.311  21.349  0.00  0.00    +0.000 A 
BRANCH  22  25
ATOM     25  C   UNL     1      -0.033  12.449  19.129  0.00  0.00    +0.000 C 
ATOM     26  C   UNL     1      -1.182  12.399  18.094  0.00  0.00    +0.000 C 
ATOM     27  C   UNL     1      -0.531  13.299  20.318  0.00  0.00    +0.000 C 
ATOM     28  C   UNL     1       1.153  13.170  18.457  0.00  0.00    +0.000 C 
ENDBRANCH  22  25
ENDBRANCH  18  19
ENDBRANCH   3  18
TORSDOF 6
ENDMDL
MODEL 8
REMARK VINA RESULT:      -7.6      1.723      2.406
REMARK  Name = 
REMARK  10 active torsions:
REMARK  status: ('A' for Active; 'I' for Inactive)
REMARK    1  A    between atoms: C_1  and  N_2
REMARK    2  A    between atoms: C_4  and  C_5
REMARK    3  A    between atoms: C_5  and  C_7
REMARK    4  A    between atoms: C_13  and  C_14
REMARK    5  A    between atoms: N_16  and  C_17
REMARK    6  A    between atoms: C_17  and  C_18
REMARK    7  A    between atoms: C_21  and  C_22
REMARK    8  A    between atoms: C_22  and  C_23
REMARK    9  A    between atoms: C_22  and  C_24
REMARK   10  A    between atoms: C_22  and  C_25
REMARK                            x       y       z     vdW  Elec       q    Type
REMARK                         _______ _______ _______ _____ _____    ______ ____
ROOT
ATOM      1  C   UNL     1       1.985   5.517  20.267  0.00  0.00    +0.000 C 
ATOM      2  O   UNL     1       0.950   4.901  20.500  0.00  0.00    +0.000 OA
ATOM      3  N   UNL     1       2.140   6.844  20.576  0.00  0.00    +0.000 N 
ATOM      4  H   UNL     1       2.979   7.323  20.275  0.00  0.00    +0.000 HD
ENDROOT
BRANCH   1  11
ATOM      5  C   UNL     1       3.151   2.763  20.993  0.00  0.00    +0.000 C 
ATOM      6  N   UNL     1       3.669   3.691  20.010  0.00  0.00    +0.000 N 
ATOM      7  N   UNL     1       4.760   3.332  19.300  0.00  0.00    +0.000 NA
ATOM      8  C   UNL     1       4.951   4.348  18.448  0.00  0.00    +0.000 A 
ATOM      9  C   UNL     1       3.969   5.351  18.626  0.00  0.00    +0.000 A 
ATOM     10 CL   UNL     1       3.893   6.806  17.746  0.00  0.00    +0.000 Cl
ATOM     11  C   UNL     1       3.141   4.908  19.644  0.00  0.00    +0.000 A 
BRANCH   8  12
ATOM     12  C   UNL     1       6.073   4.307  17.461  0.00  0.00    +0.000 C 
ATOM     13  F   UNL     1       5.657   4.825  16.260  0.00  0.00    +0.000 F 
BRANCH  12  14
ATOM     14  C   UNL     1       7.342   5.017  17.930  0.00  0.00    +0.000 C 
ATOM     15  F   UNL     1       7.289   5.438  19.216  0.00  0.00    +0.000 F 
ATOM     16  F   UNL     1       8.420   4.200  17.829  0.00  0.00    +0.000 F 
ATOM     17  F   UNL     1       7.613   6.111  17.175  0.00  0.00    +0.000 F 
ENDBRANCH  12  14
ENDBRANCH   8  12
ENDBRANCH   1  11
BRANCH   3  18
ATOM     18  C   UNL     1       1.152   7.634  21.266  0.00  0.00    +0.000 C 
BRANCH  18  19
ATOM     19  C   UNL     1       1.067   9.017  20.680  0.00  0.00    +0.000 A 
ATOM     20  C   UNL     1       0.734  10.100  21.496  0.00  0.00    +0.000 A 
ATOM     21  C   UNL     1       0.666  11.395  20.975  0.00  0.00    +0.000 A 
ATOM     22  C   UNL     1       0.915  11.654  19.617  0.00  0.00    +0.000 A 
ATOM     23  C   UNL     1       1.214  10.549  18.796  0.00  0.00    +0.000 A 
ATOM     24  C   UNL     1       1.286   9.250  19.316  0.00  0.00    +0.000 A 
BRANCH  22  25
ATOM     25  C   UNL     1       0.898  13.078  19.030  0.00  0.00    +0.000 C 
ATOM     26  C   UNL     1       0.993  14.186  20.107  0.00  0.00    +0.000 C 
ATOM     27  C   UNL     1       2.103  13.262  18.083  0.00  0.00    +0.000 C 
ATOM     28  C   UNL     1      -0.404  13.323  18.241  0.00  0.00    +0.000 C 
ENDBRANCH  22  25
ENDBRANCH  18  19
ENDBRANCH   3  18
TORSDOF 6
ENDMDL
MODEL 9
REMARK VINA RESULT:      -7.6      1.697      2.249
REMARK  Name = 
REMARK  10 active torsions:
REMARK  status: ('A' for Active; 'I' for Inactive)
REMARK    1  A    between atoms: C_1  and  N_2
REMARK    2  A    between atoms: C_4  and  C_5
REMARK    3  A    between atoms: C_5  and  C_7
REMARK    4  A    between atoms: C_13  and  C_14
REMARK    5  A    between atoms: N_16  and  C_17
REMARK    6  A    between atoms: C_17  and  C_18
REMARK    7  A    between atoms: C_21  and  C_22
REMARK    8  A    between atoms: C_22  and  C_23
REMARK    9  A    between atoms: C_22  and  C_24
REMARK   10  A    between atoms: C_22  and  C_25
REMARK                            x       y       z     vdW  Elec       q    Type
REMARK                         _______ _______ _______ _____ _____    ______ ____
ROOT
ATOM      1  C   UNL     1       1.955   5.463  20.202  0.00  0.00    +0.000 C 
ATOM      2  O   UNL     1       0.910   4.850  20.399  0.00  0.00    +0.000 OA
ATOM      3  N   UNL     1       2.115   6.780  20.551  0.00  0.00    +0.000 N 
ATOM      4  H   UNL     1       2.964   7.259  20.278  0.00  0.00    +0.000 HD
ENDROOT
BRANCH   1  11
ATOM      5  C   UNL     1       3.136   2.717  20.935  0.00  0.00    +0.000 C 
ATOM      6  N   UNL     1       3.651   3.648  19.952  0.00  0.00    +0.000 N 
ATOM      7  N   UNL     1       4.747   3.295  19.246  0.00  0.00    +0.000 NA
ATOM      8  C   UNL     1       4.934   4.312  18.394  0.00  0.00    +0.000 A 
ATOM      9  C   UNL     1       3.945   5.308  18.568  0.00  0.00    +0.000 A 
ATOM     10 CL   UNL     1       3.862   6.762  17.685  0.00  0.00    +0.000 Cl
ATOM     11  C   UNL     1       3.116   4.861  19.584  0.00  0.00    +0.000 A 
BRANCH   8  12
ATOM     12  C   UNL     1       6.059   4.277  17.410  0.00  0.00    +0.000 C 
ATOM     13  F   UNL     1       5.642   4.786  16.206  0.00  0.00    +0.000 F 
BRANCH  12  14
ATOM     14  C   UNL     1       7.319   5.001  17.880  0.00  0.00    +0.000 C 
ATOM     15  F   UNL     1       8.430   4.227  17.871  0.00  0.00    +0.000 F 
ATOM     16  F   UNL     1       7.584   6.075  17.094  0.00  0.00    +0.000 F 
ATOM     17  F   UNL     1       7.185   5.472  19.145  0.00  0.00    +0.000 F 
ENDBRANCH  12  14
ENDBRANCH   8  12
ENDBRANCH   1  11
BRANCH   3  18
ATOM     18  C   UNL     1       1.122   7.559  21.244  0.00  0.00    +0.000 C 
BRANCH  18  19
ATOM     19  C   UNL     1       1.051   8.955  20.688  0.00  0.00    +0.000 A 
ATOM     20  C   UNL     1       1.283   9.175  19.329  0.00  0.00    +0.000 A 
ATOM     21  C   UNL     1       1.204  10.461  18.788  0.00  0.00    +0.000 A 
ATOM     22  C   UNL     1       0.903  11.577  19.588  0.00  0.00    +0.000 A 
ATOM     23  C   UNL     1       0.707  11.347  20.964  0.00  0.00    +0.000 A 
ATOM     24  C   UNL     1       0.781  10.058  21.507  0.00  0.00    +0.000 A 
BRANCH  22  25
ATOM     25  C   UNL     1       0.760  12.996  19.007  0.00  0.00    +0.000 C 
ATOM     26  C   UNL     1       0.704  14.100  20.091  0.00  0.00    +0.000 C 
ATOM     27  C   UNL     1       1.972  13.309  18.103  0.00  0.00    +0.000 C 
ATOM     28  C   UNL     1      -0.532  13.112  18.173  0.00  0.00    +0.000 C 
ENDBRANCH  22  25
ENDBRANCH  18  19
ENDBRANCH   3  18
TORSDOF 6
ENDMDL
