MODEL 1
REMARK VINA RESULT:      -8.4      0.000      0.000
REMARK  Name = 
REMARK  7 active torsions:
REMARK  status: ('A' for Active; 'I' for Inactive)
REMARK    1  A    between atoms: C_1  and  C_2
REMARK    2  A    between atoms: C_2  and  O_3
REMARK    3  A    between atoms: O_3  and  C_4
REMARK    4  A    between atoms: C_8  and  C_9
REMARK    5  A    between atoms: C_9  and  N_10
REMARK    6  A    between atoms: C_11  and  C_13
REMARK    7  A    between atoms: C_28  and  N_29
REMARK                            x       y       z     vdW  Elec       q    Type
REMARK                         _______ _______ _______ _____ _____    ______ ____
ROOT
ATOM      1  C   UNL     1       2.078   6.950  19.435  0.00  0.00    +0.000 A 
ATOM      2  C   UNL     1       1.675   6.848  20.745  0.00  0.00    +0.000 A 
ATOM      3  N   UNL     1       1.172   7.879  21.457  0.00  0.00    +0.000 NA
ATOM      4  C   UNL     1       1.056   9.065  20.841  0.00  0.00    +0.000 A 
ATOM      5  N   UNL     1       0.475  10.115  21.510  0.00  0.00    +0.000 N 
ATOM      6  C   UNL     1       0.131  10.011  22.920  0.00  0.00    +0.000 C 
ATOM      7  C   UNL     1      -1.254  10.622  23.120  0.00  0.00    +0.000 C 
ATOM      8  C   UNL     1      -1.336  12.037  22.544  0.00  0.00    +0.000 C 
ATOM      9  C   UNL     1      -0.811  12.118  21.109  0.00  0.00    +0.000 C 
ATOM     10  C   UNL     1       0.557  11.464  20.974  0.00  0.00    +0.000 C 
ATOM     11  O   UNL     1      -0.587  12.931  23.390  0.00  0.00    +0.000 OA
ATOM     12  C   UNL     1      -1.451  14.046  23.605  0.00  0.00    +0.000 C 
ATOM     13  C   UNL     1      -2.827  13.447  23.540  0.00  0.00    +0.000 C 
ATOM     14  O   UNL     1      -2.715  12.455  22.523  0.00  0.00    +0.000 OA
ATOM     15  N   UNL     1       1.430   9.243  19.561  0.00  0.00    +0.000 NA
ATOM     16  C   UNL     1       1.919   8.199  18.872  0.00  0.00    +0.000 A 
ENDROOT
BRANCH   1  18
ATOM     17  N   UNL     1       3.643   5.100  19.353  0.00  0.00    +0.000 N 
ATOM     18  C   UNL     1       2.600   5.756  18.744  0.00  0.00    +0.000 C 
ATOM     19  O   UNL     1       2.094   5.399  17.687  0.00  0.00    +0.000 OA
ATOM     20  H   UNL     1       3.979   5.437  20.251  0.00  0.00    +0.000 HD
BRANCH  17  21
ATOM     21  C   UNL     1       4.287   3.948  18.768  0.00  0.00    +0.000 C 
BRANCH  21  26
ATOM     22  C   UNL     1       6.904   5.832  16.722  0.00  0.00    +0.000 A 
ATOM     23  C   UNL     1       6.866   5.115  15.526  0.00  0.00    +0.000 A 
ATOM     24  C   UNL     1       6.015   4.022  15.375  0.00  0.00    +0.000 A 
ATOM     25  C   UNL     1       5.189   3.635  16.428  0.00  0.00    +0.000 A 
ATOM     26  C   UNL     1       5.213   4.333  17.642  0.00  0.00    +0.000 A 
ATOM     27  C   UNL     1       6.076   5.434  17.778  0.00  0.00    +0.000 A 
BRANCH  22  28
ATOM     28  O   UNL     1       7.767   6.896  16.750  0.00  0.00    +0.000 OA
BRANCH  28  30
ATOM     29  C   UNL     1       8.106   9.042  17.761  0.00  0.00    +0.000 C 
ATOM     30  C   UNL     1       7.923   7.556  18.006  0.00  0.00    +0.000 C 
ENDBRANCH  28  30
ENDBRANCH  22  28
ENDBRANCH  21  26
ENDBRANCH  17  21
ENDBRANCH   1  18
BRANCH  16  31
ATOM     31  N   UNL     1       2.269   8.498  17.547  0.00  0.00    +0.000 N 
ATOM     32  H   UNL     1       2.582   7.619  17.135  0.00  0.00    +0.000 HD
ATOM     33  H   UNL     1       3.009   9.195  17.514  0.00  0.00    +0.000 HD
ENDBRANCH  16  31
TORSDOF 6
ENDMDL
MODEL 2
REMARK VINA RESULT:      -8.3      1.328      2.321
REMARK  Name = 
REMARK  7 active torsions:
REMARK  status: ('A' for Active; 'I' for Inactive)
REMARK    1  A    between atoms: C_1  and  C_2
REMARK    2  A    between atoms: C_2  and  O_3
REMARK    3  A    between atoms: O_3  and  C_4
REMARK    4  A    between atoms: C_8  and  C_9
REMARK    5  A    between atoms: C_9  and  N_10
REMARK    6  A    between atoms: C_11  and  C_13
REMARK    7  A    between atoms: C_28  and  N_29
REMARK                            x       y       z     vdW  Elec       q    Type
REMARK                         _______ _______ _______ _____ _____    ______ ____
ROOT
ATOM      1  C   UNL     1       2.076   6.749  19.559  0.00  0.00    +0.000 A 
ATOM      2  C   UNL     1       1.626   6.691  20.856  0.00  0.00    +0.000 A 
ATOM      3  N   UNL     1       1.147   7.758  21.532  0.00  0.00    +0.000 NA
ATOM      4  C   UNL     1       1.107   8.936  20.891  0.00  0.00    +0.000 A 
ATOM      5  N   UNL     1       0.554  10.024  21.520  0.00  0.00    +0.000 N 
ATOM      6  C   UNL     1       0.160   9.964  22.919  0.00  0.00    +0.000 C 
ATOM      7  C   UNL     1      -1.202  10.641  23.062  0.00  0.00    +0.000 C 
ATOM      8  C   UNL     1      -1.199  12.046  22.457  0.00  0.00    +0.000 C 
ATOM      9  C   UNL     1      -0.624  12.075  21.040  0.00  0.00    +0.000 C 
ATOM     10  C   UNL     1       0.717  11.357  20.963  0.00  0.00    +0.000 C 
ATOM     11  O   UNL     1      -0.437  12.922  23.312  0.00  0.00    +0.000 OA
ATOM     12  C   UNL     1      -1.255  14.080  23.477  0.00  0.00    +0.000 C 
ATOM     13  C   UNL     1      -2.655  13.543  23.377  0.00  0.00    +0.000 C 
ATOM     14  O   UNL     1      -2.556  12.527  22.382  0.00  0.00    +0.000 OA
ATOM     15  N   UNL     1       1.531   9.071  19.621  0.00  0.00    +0.000 NA
ATOM     16  C   UNL     1       1.994   7.992  18.969  0.00  0.00    +0.000 A 
ENDROOT
BRANCH   1  18
ATOM     17  N   UNL     1       3.740   4.993  19.388  0.00  0.00    +0.000 N 
ATOM     18  C   UNL     1       2.564   5.518  18.908  0.00  0.00    +0.000 C 
ATOM     19  O   UNL     1       1.918   5.019  17.995  0.00  0.00    +0.000 OA
ATOM     20  H   UNL     1       4.195   5.446  20.177  0.00  0.00    +0.000 HD
BRANCH  17  21
ATOM     21  C   UNL     1       4.364   3.824  18.816  0.00  0.00    +0.000 C 
BRANCH  21  26
ATOM     22  C   UNL     1       5.680   4.409  15.279  0.00  0.00    +0.000 A 
ATOM     23  C   UNL     1       7.007   4.745  15.547  0.00  0.00    +0.000 A 
ATOM     24  C   UNL     1       7.480   4.799  16.856  0.00  0.00    +0.000 A 
ATOM     25  C   UNL     1       6.623   4.513  17.916  0.00  0.00    +0.000 A 
ATOM     26  C   UNL     1       5.284   4.179  17.675  0.00  0.00    +0.000 A 
ATOM     27  C   UNL     1       4.822   4.129  16.349  0.00  0.00    +0.000 A 
BRANCH  22  28
ATOM     28  O   UNL     1       5.331   4.373  13.955  0.00  0.00    +0.000 OA
BRANCH  28  30
ATOM     29  C   UNL     1       5.381   3.117  11.914  0.00  0.00    +0.000 C 
ATOM     30  C   UNL     1       6.190   3.629  13.091  0.00  0.00    +0.000 C 
ENDBRANCH  28  30
ENDBRANCH  22  28
ENDBRANCH  21  26
ENDBRANCH  17  21
ENDBRANCH   1  18
BRANCH  16  31
ATOM     31  N   UNL     1       2.401   8.248  17.650  0.00  0.00    +0.000 N 
ATOM     32  H   UNL     1       1.970   7.522  17.078  0.00  0.00    +0.000 HD
ATOM     33  H   UNL     1       3.414   8.216  17.571  0.00  0.00    +0.000 HD
ENDBRANCH  16  31
TORSDOF 6
ENDMDL
MODEL 3
REMARK VINA RESULT:      -8.3      4.792      8.464
REMARK  Name = 
REMARK  7 active torsions:
REMARK  status: ('A' for Active; 'I' for Inactive)
REMARK    1  A    between atoms: C_1  and  C_2
REMARK    2  A    between atoms: C_2  and  O_3
REMARK    3  A    between atoms: O_3  and  C_4
REMARK    4  A    between atoms: C_8  and  C_9
REMARK    5  A    between atoms: C_9  and  N_10
REMARK    6  A    between atoms: C_11  and  C_13
REMARK    7  A    between atoms: C_28  and  N_29
REMARK                            x       y       z     vdW  Elec       q    Type
REMARK                         _______ _______ _______ _____ _____    ______ ____
ROOT
ATOM      1  C   UNL     1       7.526   6.418  17.671  0.00  0.00    +0.000 A 
ATOM      2  C   UNL     1       7.367   7.517  16.862  0.00  0.00    +0.000 A 
ATOM      3  N   UNL     1       7.792   8.757  17.188  0.00  0.00    +0.000 NA
ATOM      4  C   UNL     1       8.410   8.915  18.368  0.00  0.00    +0.000 A 
ATOM      5  N   UNL     1       8.925  10.144  18.698  0.00  0.00    +0.000 N 
ATOM      6  C   UNL     1       8.674  11.312  17.868  0.00  0.00    +0.000 C 
ATOM      7  C   UNL     1       9.982  12.087  17.724  0.00  0.00    +0.000 C 
ATOM      8  C   UNL     1      10.609  12.393  19.086  0.00  0.00    +0.000 C 
ATOM      9  C   UNL     1      10.701  11.155  19.981  0.00  0.00    +0.000 C 
ATOM     10  C   UNL     1       9.374  10.415  20.054  0.00  0.00    +0.000 C 
ATOM     11  O   UNL     1       9.830  13.413  19.741  0.00  0.00    +0.000 OA
ATOM     12  C   UNL     1      10.786  14.364  20.208  0.00  0.00    +0.000 C 
ATOM     13  C   UNL     1      11.900  14.270  19.204  0.00  0.00    +0.000 C 
ATOM     14  O   UNL     1      11.950  12.882  18.886  0.00  0.00    +0.000 OA
ATOM     15  N   UNL     1       8.602   7.886  19.215  0.00  0.00    +0.000 NA
ATOM     16  C   UNL     1       8.178   6.662  18.862  0.00  0.00    +0.000 A 
ENDROOT
BRANCH   1  18
ATOM     17  N   UNL     1       5.703   5.019  16.901  0.00  0.00    +0.000 N 
ATOM     18  C   UNL     1       7.039   5.105  17.211  0.00  0.00    +0.000 C 
ATOM     19  O   UNL     1       7.822   4.167  17.117  0.00  0.00    +0.000 OA
ATOM     20  H   UNL     1       5.127   5.856  16.967  0.00  0.00    +0.000 HD
BRANCH  17  21
ATOM     21  C   UNL     1       5.075   3.787  16.487  0.00  0.00    +0.000 C 
BRANCH  21  26
ATOM     22  C   UNL     1       2.161   3.985  18.948  0.00  0.00    +0.000 A 
ATOM     23  C   UNL     1       1.976   2.634  19.242  0.00  0.00    +0.000 A 
ATOM     24  C   UNL     1       2.771   1.657  18.646  0.00  0.00    +0.000 A 
ATOM     25  C   UNL     1       3.766   2.028  17.745  0.00  0.00    +0.000 A 
ATOM     26  C   UNL     1       3.969   3.376  17.427  0.00  0.00    +0.000 A 
ATOM     27  C   UNL     1       3.159   4.349  18.036  0.00  0.00    +0.000 A 
BRANCH  22  28
ATOM     28  O   UNL     1       1.332   4.855  19.605  0.00  0.00    +0.000 OA
BRANCH  28  30
ATOM     29  C   UNL     1       1.841   7.058  20.398  0.00  0.00    +0.000 C 
ATOM     30  C   UNL     1       1.901   5.573  20.699  0.00  0.00    +0.000 C 
ENDBRANCH  28  30
ENDBRANCH  22  28
ENDBRANCH  21  26
ENDBRANCH  17  21
ENDBRANCH   1  18
BRANCH  16  31
ATOM     31  N   UNL     1       8.437   5.666  19.816  0.00  0.00    +0.000 N 
ATOM     32  H   UNL     1       7.631   5.660  20.441  0.00  0.00    +0.000 HD
ATOM     33  H   UNL     1       9.290   5.869  20.331  0.00  0.00    +0.000 HD
ENDBRANCH  16  31
TORSDOF 6
ENDMDL
MODEL 4
REMARK VINA RESULT:      -7.9      1.246      2.172
REMARK  Name = 
REMARK  7 active torsions:
REMARK  status: ('A' for Active; 'I' for Inactive)
REMARK    1  A    between atoms: C_1  and  C_2
REMARK    2  A    between atoms: C_2  and  O_3
REMARK    3  A    between atoms: O_3  and  C_4
REMARK    4  A    between atoms: C_8  and  C_9
REMARK    5  A    between atoms: C_9  and  N_10
REMARK    6  A    between atoms: C_11  and  C_13
REMARK    7  A    between atoms: C_28  and  N_29
REMARK                            x       y       z     vdW  Elec       q    Type
REMARK                         _______ _______ _______ _____ _____    ______ ____
ROOT
ATOM      1  C   UNL     1       1.919   7.457  19.712  0.00  0.00    +0.000 A 
ATOM      2  C   UNL     1       1.430   7.430  20.996  0.00  0.00    +0.000 A 
ATOM      3  N   UNL     1       0.861   8.493  21.605  0.00  0.00    +0.000 NA
ATOM      4  C   UNL     1       0.767   9.635  20.907  0.00  0.00    +0.000 A 
ATOM      5  N   UNL     1       0.124  10.712  21.465  0.00  0.00    +0.000 N 
ATOM      6  C   UNL     1      -0.313  10.692  22.853  0.00  0.00    +0.000 C 
ATOM      7  C   UNL     1      -1.720  11.283  22.920  0.00  0.00    +0.000 C 
ATOM      8  C   UNL     1      -1.786  12.657  22.249  0.00  0.00    +0.000 C 
ATOM      9  C   UNL     1      -1.166  12.657  20.850  0.00  0.00    +0.000 C 
ATOM     10  C   UNL     1       0.219  12.026  20.850  0.00  0.00    +0.000 C 
ATOM     11  O   UNL     1      -1.112  13.619  23.083  0.00  0.00    +0.000 OA
ATOM     12  C   UNL     1      -2.007  14.727  23.166  0.00  0.00    +0.000 C 
ATOM     13  C   UNL     1      -3.366  14.095  23.049  0.00  0.00    +0.000 C 
ATOM     14  O   UNL     1      -3.168  13.043  22.109  0.00  0.00    +0.000 OA
ATOM     15  N   UNL     1       1.224   9.739  19.645  0.00  0.00    +0.000 NA
ATOM     16  C   UNL     1       1.777   8.664  19.060  0.00  0.00    +0.000 A 
ENDROOT
BRANCH   1  18
ATOM     17  N   UNL     1       3.361   5.522  19.946  0.00  0.00    +0.000 N 
ATOM     18  C   UNL     1       2.507   6.233  19.137  0.00  0.00    +0.000 C 
ATOM     19  O   UNL     1       2.214   5.900  17.995  0.00  0.00    +0.000 OA
ATOM     20  H   UNL     1       3.520   5.844  20.898  0.00  0.00    +0.000 HD
BRANCH  17  21
ATOM     21  C   UNL     1       4.050   4.334  19.501  0.00  0.00    +0.000 C 
BRANCH  21  26
ATOM     22  C   UNL     1       6.562   4.511  16.630  0.00  0.00    +0.000 A 
ATOM     23  C   UNL     1       7.611   5.194  17.244  0.00  0.00    +0.000 A 
ATOM     24  C   UNL     1       7.514   5.611  18.570  0.00  0.00    +0.000 A 
ATOM     25  C   UNL     1       6.357   5.344  19.298  0.00  0.00    +0.000 A 
ATOM     26  C   UNL     1       5.286   4.666  18.703  0.00  0.00    +0.000 A 
ATOM     27  C   UNL     1       5.399   4.252  17.366  0.00  0.00    +0.000 A 
BRANCH  22  28
ATOM     28  O   UNL     1       6.775   4.138  15.329  0.00  0.00    +0.000 OA
BRANCH  28  30
ATOM     29  C   UNL     1       6.021   3.659  13.105  0.00  0.00    +0.000 C 
ATOM     30  C   UNL     1       5.688   4.329  14.425  0.00  0.00    +0.000 C 
ENDBRANCH  28  30
ENDBRANCH  22  28
ENDBRANCH  21  26
ENDBRANCH  17  21
ENDBRANCH   1  18
BRANCH  16  31
ATOM     31  N   UNL     1       2.212   8.885  17.745  0.00  0.00    +0.000 N 
ATOM     32  H   UNL     1       1.629   9.638  17.379  0.00  0.00    +0.000 HD
ATOM     33  H   UNL     1       2.109   8.044  17.182  0.00  0.00    +0.000 HD
ENDBRANCH  16  31
TORSDOF 6
ENDMDL
MODEL 5
REMARK VINA RESULT:      -7.9      2.062      3.565
REMARK  Name = 
REMARK  7 active torsions:
REMARK  status: ('A' for Active; 'I' for Inactive)
REMARK    1  A    between atoms: C_1  and  C_2
REMARK    2  A    between atoms: C_2  and  O_3
REMARK    3  A    between atoms: O_3  and  C_4
REMARK    4  A    between atoms: C_8  and  C_9
REMARK    5  A    between atoms: C_9  and  N_10
REMARK    6  A    between atoms: C_11  and  C_13
REMARK    7  A    between atoms: C_28  and  N_29
REMARK                            x       y       z     vdW  Elec       q    Type
REMARK                         _______ _______ _______ _____ _____    ______ ____
ROOT
ATOM      1  C   UNL     1       3.061   6.262  19.098  0.00  0.00    +0.000 A 
ATOM      2  C   UNL     1       2.892   7.387  18.326  0.00  0.00    +0.000 A 
ATOM      3  N   UNL     1       2.084   8.415  18.666  0.00  0.00    +0.000 NA
ATOM      4  C   UNL     1       1.417   8.327  19.827  0.00  0.00    +0.000 A 
ATOM      5  N   UNL     1       0.649   9.387  20.241  0.00  0.00    +0.000 N 
ATOM      6  C   UNL     1       0.416  10.532  19.374  0.00  0.00    +0.000 C 
ATOM      7  C   UNL     1       0.563  11.802  20.210  0.00  0.00    +0.000 C 
ATOM      8  C   UNL     1      -0.316  11.758  21.461  0.00  0.00    +0.000 C 
ATOM      9  C   UNL     1      -0.148  10.459  22.252  0.00  0.00    +0.000 C 
ATOM     10  C   UNL     1      -0.275   9.236  21.354  0.00  0.00    +0.000 C 
ATOM     11  O   UNL     1      -1.694  11.919  21.072  0.00  0.00    +0.000 OA
ATOM     12  C   UNL     1      -2.215  12.908  21.960  0.00  0.00    +0.000 C 
ATOM     13  C   UNL     1      -1.024  13.771  22.268  0.00  0.00    +0.000 C 
ATOM     14  O   UNL     1       0.056  12.844  22.333  0.00  0.00    +0.000 OA
ATOM     15  N   UNL     1       1.531   7.257  20.635  0.00  0.00    +0.000 NA
ATOM     16  C   UNL     1       2.349   6.253  20.279  0.00  0.00    +0.000 A 
ENDROOT
BRANCH   1  18
ATOM     17  N   UNL     1       3.720   4.649  17.412  0.00  0.00    +0.000 N 
ATOM     18  C   UNL     1       3.982   5.205  18.641  0.00  0.00    +0.000 C 
ATOM     19  O   UNL     1       4.925   4.874  19.351  0.00  0.00    +0.000 OA
ATOM     20  H   UNL     1       2.940   5.009  16.866  0.00  0.00    +0.000 HD
BRANCH  17  21
ATOM     21  C   UNL     1       4.504   3.571  16.859  0.00  0.00    +0.000 C 
BRANCH  21  26
ATOM     22  C   UNL     1       6.277   3.976  13.501  0.00  0.00    +0.000 A 
ATOM     23  C   UNL     1       7.282   4.880  13.845  0.00  0.00    +0.000 A 
ATOM     24  C   UNL     1       7.388   5.372  15.144  0.00  0.00    +0.000 A 
ATOM     25  C   UNL     1       6.482   4.959  16.118  0.00  0.00    +0.000 A 
ATOM     26  C   UNL     1       5.459   4.057  15.798  0.00  0.00    +0.000 A 
ATOM     27  C   UNL     1       5.366   3.570  14.483  0.00  0.00    +0.000 A 
BRANCH  22  28
ATOM     28  O   UNL     1       6.281   3.550  12.199  0.00  0.00    +0.000 OA
BRANCH  28  30
ATOM     29  C   UNL     1       4.139   3.276  11.160  0.00  0.00    +0.000 C 
ATOM     30  C   UNL     1       5.299   2.577  11.846  0.00  0.00    +0.000 C 
ENDBRANCH  28  30
ENDBRANCH  22  28
ENDBRANCH  21  26
ENDBRANCH  17  21
ENDBRANCH   1  18
BRANCH  16  31
ATOM     31  N   UNL     1       2.395   5.195  21.199  0.00  0.00    +0.000 N 
ATOM     32  H   UNL     1       1.425   4.933  21.374  0.00  0.00    +0.000 HD
ATOM     33  H   UNL     1       2.853   5.482  22.060  0.00  0.00    +0.000 HD
ENDBRANCH  16  31
TORSDOF 6
ENDMDL
MODEL 6
REMARK VINA RESULT:      -7.9      2.629      4.343
REMARK  Name = 
REMARK  7 active torsions:
REMARK  status: ('A' for Active; 'I' for Inactive)
REMARK    1  A    between atoms: C_1  and  C_2
REMARK    2  A    between atoms: C_2  and  O_3
REMARK    3  A    between atoms: O_3  and  C_4
REMARK    4  A    between atoms: C_8  and  C_9
REMARK    5  A    between atoms: C_9  and  N_10
REMARK    6  A    between atoms: C_11  and  C_13
REMARK    7  A    between atoms: C_28  and  N_29
REMARK                            x       y       z     vdW  Elec       q    Type
REMARK                         _______ _______ _______ _____ _____    ______ ____
ROOT
ATOM      1  C   UNL     1       3.928   5.953  18.233  0.00  0.00    +0.000 A 
ATOM      2  C   UNL     1       3.764   7.062  17.438  0.00  0.00    +0.000 A 
ATOM      3  N   UNL     1       2.950   8.095  17.750  0.00  0.00    +0.000 NA
ATOM      4  C   UNL     1       2.273   8.028  18.906  0.00  0.00    +0.000 A 
ATOM      5  N   UNL     1       1.498   9.093  19.293  0.00  0.00    +0.000 N 
ATOM      6  C   UNL     1       1.271  10.221  18.402  0.00  0.00    +0.000 C 
ATOM      7  C   UNL     1       1.407  11.507  19.215  0.00  0.00    +0.000 C 
ATOM      8  C   UNL     1       0.516  11.485  20.458  0.00  0.00    +0.000 C 
ATOM      9  C   UNL     1       0.679  10.202  21.275  0.00  0.00    +0.000 C 
ATOM     10  C   UNL     1       0.564   8.961  20.399  0.00  0.00    +0.000 C 
ATOM     11  O   UNL     1      -0.858  11.636  20.053  0.00  0.00    +0.000 OA
ATOM     12  C   UNL     1      -1.389  12.640  20.917  0.00  0.00    +0.000 C 
ATOM     13  C   UNL     1      -0.203  13.512  21.220  0.00  0.00    +0.000 C 
ATOM     14  O   UNL     1       0.878  12.589  21.313  0.00  0.00    +0.000 OA
ATOM     15  N   UNL     1       2.381   6.974  19.736  0.00  0.00    +0.000 NA
ATOM     16  C   UNL     1       3.203   5.965  19.406  0.00  0.00    +0.000 A 
ENDROOT
BRANCH   1  18
ATOM     17  N   UNL     1       5.705   5.193  16.769  0.00  0.00    +0.000 N 
ATOM     18  C   UNL     1       4.855   4.889  17.805  0.00  0.00    +0.000 C 
ATOM     19  O   UNL     1       4.839   3.806  18.377  0.00  0.00    +0.000 OA
ATOM     20  H   UNL     1       5.684   6.131  16.374  0.00  0.00    +0.000 HD
BRANCH  17  21
ATOM     21  C   UNL     1       6.630   4.236  16.211  0.00  0.00    +0.000 C 
BRANCH  21  26
ATOM     22  C   UNL     1       5.996   3.647  12.491  0.00  0.00    +0.000 A 
ATOM     23  C   UNL     1       6.950   4.494  11.927  0.00  0.00    +0.000 A 
ATOM     24  C   UNL     1       7.788   5.263  12.731  0.00  0.00    +0.000 A 
ATOM     25  C   UNL     1       7.677   5.190  14.118  0.00  0.00    +0.000 A 
ATOM     26  C   UNL     1       6.723   4.354  14.710  0.00  0.00    +0.000 A 
ATOM     27  C   UNL     1       5.886   3.584  13.886  0.00  0.00    +0.000 A 
BRANCH  22  28
ATOM     28  O   UNL     1       5.240   2.929  11.604  0.00  0.00    +0.000 OA
BRANCH  28  30
ATOM     29  C   UNL     1       3.503   3.700  10.144  0.00  0.00    +0.000 C 
ATOM     30  C   UNL     1       3.849   3.246  11.549  0.00  0.00    +0.000 C 
ENDBRANCH  28  30
ENDBRANCH  22  28
ENDBRANCH  21  26
ENDBRANCH  17  21
ENDBRANCH   1  18
BRANCH  16  31
ATOM     31  N   UNL     1       3.243   4.924  20.346  0.00  0.00    +0.000 N 
ATOM     32  H   UNL     1       3.922   4.251  19.991  0.00  0.00    +0.000 HD
ATOM     33  H   UNL     1       2.328   4.493  20.449  0.00  0.00    +0.000 HD
ENDBRANCH  16  31
TORSDOF 6
ENDMDL
MODEL 7
REMARK VINA RESULT:      -7.8      3.009      4.631
REMARK  Name = 
REMARK  7 active torsions:
REMARK  status: ('A' for Active; 'I' for Inactive)
REMARK    1  A    between atoms: C_1  and  C_2
REMARK    2  A    between atoms: C_2  and  O_3
REMARK    3  A    between atoms: O_3  and  C_4
REMARK    4  A    between atoms: C_8  and  C_9
REMARK    5  A    between atoms: C_9  and  N_10
REMARK    6  A    between atoms: C_11  and  C_13
REMARK    7  A    between atoms: C_28  and  N_29
REMARK                            x       y       z     vdW  Elec       q    Type
REMARK                         _______ _______ _______ _____ _____    ______ ____
ROOT
ATOM      1  C   UNL     1       0.404  10.165  19.199  0.00  0.00    +0.000 A 
ATOM      2  C   UNL     1       0.542  10.566  20.506  0.00  0.00    +0.000 A 
ATOM      3  N   UNL     1      -0.377  11.307  21.165  0.00  0.00    +0.000 NA
ATOM      4  C   UNL     1      -1.486  11.660  20.499  0.00  0.00    +0.000 A 
ATOM      5  N   UNL     1      -2.477  12.344  21.160  0.00  0.00    +0.000 N 
ATOM      6  C   UNL     1      -2.277  12.832  22.516  0.00  0.00    +0.000 C 
ATOM      7  C   UNL     1      -3.541  12.535  23.322  0.00  0.00    +0.000 C 
ATOM      8  C   UNL     1      -4.792  13.073  22.626  0.00  0.00    +0.000 C 
ATOM      9  C   UNL     1      -4.869  12.661  21.154  0.00  0.00    +0.000 C 
ATOM     10  C   UNL     1      -3.569  12.956  20.420  0.00  0.00    +0.000 C 
ATOM     11  O   UNL     1      -4.807  14.510  22.733  0.00  0.00    +0.000 OA
ATOM     12  C   UNL     1      -6.127  14.834  23.167  0.00  0.00    +0.000 C 
ATOM     13  C   UNL     1      -6.536  13.640  23.983  0.00  0.00    +0.000 C 
ATOM     14  O   UNL     1      -5.959  12.541  23.284  0.00  0.00    +0.000 OA
ATOM     15  N   UNL     1      -1.692  11.305  19.218  0.00  0.00    +0.000 NA
ATOM     16  C   UNL     1      -0.768  10.561  18.589  0.00  0.00    +0.000 A 
ENDROOT
BRANCH   1  18
ATOM     17  N   UNL     1       1.823   8.199  19.250  0.00  0.00    +0.000 N 
ATOM     18  C   UNL     1       1.461   9.344  18.581  0.00  0.00    +0.000 C 
ATOM     19  O   UNL     1       1.959   9.698  17.518  0.00  0.00    +0.000 OA
ATOM     20  H   UNL     1       1.332   7.955  20.107  0.00  0.00    +0.000 HD
BRANCH  17  21
ATOM     21  C   UNL     1       2.877   7.326  18.791  0.00  0.00    +0.000 C 
BRANCH  21  26
ATOM     22  C   UNL     1       3.814   3.783  19.864  0.00  0.00    +0.000 A 
ATOM     23  C   UNL     1       2.771   3.492  20.743  0.00  0.00    +0.000 A 
ATOM     24  C   UNL     1       1.774   4.430  21.005  0.00  0.00    +0.000 A 
ATOM     25  C   UNL     1       1.814   5.677  20.384  0.00  0.00    +0.000 A 
ATOM     26  C   UNL     1       2.854   5.996  19.502  0.00  0.00    +0.000 A 
ATOM     27  C   UNL     1       3.851   5.040  19.248  0.00  0.00    +0.000 A 
BRANCH  22  28
ATOM     28  O   UNL     1       4.726   2.780  19.672  0.00  0.00    +0.000 OA
BRANCH  28  30
ATOM     29  C   UNL     1       3.486   1.687  17.936  0.00  0.00    +0.000 C 
ATOM     30  C   UNL     1       4.206   1.516  19.261  0.00  0.00    +0.000 C 
ENDBRANCH  28  30
ENDBRANCH  22  28
ENDBRANCH  21  26
ENDBRANCH  17  21
ENDBRANCH   1  18
BRANCH  16  31
ATOM     31  N   UNL     1      -1.089  10.245  17.260  0.00  0.00    +0.000 N 
ATOM     32  H   UNL     1      -2.107  10.265  17.206  0.00  0.00    +0.000 HD
ATOM     33  H   UNL     1      -0.733   9.326  17.010  0.00  0.00    +0.000 HD
ENDBRANCH  16  31
TORSDOF 6
ENDMDL
MODEL 8
REMARK VINA RESULT:      -7.8      3.170      4.571
REMARK  Name = 
REMARK  7 active torsions:
REMARK  status: ('A' for Active; 'I' for Inactive)
REMARK    1  A    between atoms: C_1  and  C_2
REMARK    2  A    between atoms: C_2  and  O_3
REMARK    3  A    between atoms: O_3  and  C_4
REMARK    4  A    between atoms: C_8  and  C_9
REMARK    5  A    between atoms: C_9  and  N_10
REMARK    6  A    between atoms: C_11  and  C_13
REMARK    7  A    between atoms: C_28  and  N_29
REMARK                            x       y       z     vdW  Elec       q    Type
REMARK                         _______ _______ _______ _____ _____    ______ ____
ROOT
ATOM      1  C   UNL     1       0.587  10.032  19.132  0.00  0.00    +0.000 A 
ATOM      2  C   UNL     1       0.749  10.433  20.436  0.00  0.00    +0.000 A 
ATOM      3  N   UNL     1      -0.155  11.177  21.110  0.00  0.00    +0.000 NA
ATOM      4  C   UNL     1      -1.275  11.535  20.464  0.00  0.00    +0.000 A 
ATOM      5  N   UNL     1      -2.250  12.223  21.142  0.00  0.00    +0.000 N 
ATOM      6  C   UNL     1      -2.025  12.711  22.494  0.00  0.00    +0.000 C 
ATOM      7  C   UNL     1      -3.275  12.419  23.322  0.00  0.00    +0.000 C 
ATOM      8  C   UNL     1      -4.537  12.961  22.648  0.00  0.00    +0.000 C 
ATOM      9  C   UNL     1      -4.642  12.549  21.178  0.00  0.00    +0.000 C 
ATOM     10  C   UNL     1      -3.353  12.839  20.421  0.00  0.00    +0.000 C 
ATOM     11  O   UNL     1      -4.544  14.398  22.754  0.00  0.00    +0.000 OA
ATOM     12  C   UNL     1      -5.856  14.728  23.211  0.00  0.00    +0.000 C 
ATOM     13  C   UNL     1      -6.254  13.536  24.036  0.00  0.00    +0.000 C 
ATOM     14  O   UNL     1      -5.694  12.434  23.327  0.00  0.00    +0.000 OA
ATOM     15  N   UNL     1      -1.505  11.180  19.187  0.00  0.00    +0.000 NA
ATOM     16  C   UNL     1      -0.594  10.432  18.542  0.00  0.00    +0.000 A 
ENDROOT
BRANCH   1  18
ATOM     17  N   UNL     1       2.033   8.086  19.182  0.00  0.00    +0.000 N 
ATOM     18  C   UNL     1       1.630   9.206  18.495  0.00  0.00    +0.000 C 
ATOM     19  O   UNL     1       2.080   9.536  17.405  0.00  0.00    +0.000 OA
ATOM     20  H   UNL     1       1.579   7.860  20.064  0.00  0.00    +0.000 HD
BRANCH  17  21
ATOM     21  C   UNL     1       3.080   7.213  18.706  0.00  0.00    +0.000 C 
BRANCH  21  26
ATOM     22  C   UNL     1       2.755   3.475  19.417  0.00  0.00    +0.000 A 
ATOM     23  C   UNL     1       1.851   3.099  18.424  0.00  0.00    +0.000 A 
ATOM     24  C   UNL     1       1.333   4.039  17.535  0.00  0.00    +0.000 A 
ATOM     25  C   UNL     1       1.720   5.373  17.633  0.00  0.00    +0.000 A 
ATOM     26  C   UNL     1       2.622   5.779  18.625  0.00  0.00    +0.000 A 
ATOM     27  C   UNL     1       3.135   4.819  19.514  0.00  0.00    +0.000 A 
BRANCH  22  28
ATOM     28  O   UNL     1       3.208   2.465  20.223  0.00  0.00    +0.000 OA
BRANCH  28  30
ATOM     29  C   UNL     1       1.338   2.642  21.711  0.00  0.00    +0.000 C 
ATOM     30  C   UNL     1       2.847   2.540  21.602  0.00  0.00    +0.000 C 
ENDBRANCH  28  30
ENDBRANCH  22  28
ENDBRANCH  21  26
ENDBRANCH  17  21
ENDBRANCH   1  18
BRANCH  16  31
ATOM     31  N   UNL     1      -0.940  10.116  17.220  0.00  0.00    +0.000 N 
ATOM     32  H   UNL     1      -1.802  10.626  17.026  0.00  0.00    +0.000 HD
ATOM     33  H   UNL     1      -1.082   9.115  17.111  0.00  0.00    +0.000 HD
ENDBRANCH  16  31
TORSDOF 6
ENDMDL
MODEL 9
REMARK VINA RESULT:      -7.7      2.932     11.072
REMARK  Name = 
REMARK  7 active torsions:
REMARK  status: ('A' for Active; 'I' for Inactive)
REMARK    1  A    between atoms: C_1  and  C_2
REMARK    2  A    between atoms: C_2  and  O_3
REMARK    3  A    between atoms: O_3  and  C_4
REMARK    4  A    between atoms: C_8  and  C_9
REMARK    5  A    between atoms: C_9  and  N_10
REMARK    6  A    between atoms: C_11  and  C_13
REMARK    7  A    between atoms: C_28  and  N_29
REMARK                            x       y       z     vdW  Elec       q    Type
REMARK                         _______ _______ _______ _____ _____    ______ ____
ROOT
ATOM      1  C   UNL     1       0.200  10.406  21.117  0.00  0.00    +0.000 A 
ATOM      2  C   UNL     1       0.875  10.262  19.929  0.00  0.00    +0.000 A 
ATOM      3  N   UNL     1       1.463   9.111  19.536  0.00  0.00    +0.000 NA
ATOM      4  C   UNL     1       1.373   8.052  20.355  0.00  0.00    +0.000 A 
ATOM      5  N   UNL     1       1.890   6.845  19.953  0.00  0.00    +0.000 N 
ATOM      6  C   UNL     1       2.672   6.732  18.731  0.00  0.00    +0.000 C 
ATOM      7  C   UNL     1       2.219   5.477  17.988  0.00  0.00    +0.000 C 
ATOM      8  C   UNL     1       2.259   4.242  18.891  0.00  0.00    +0.000 C 
ATOM      9  C   UNL     1       1.558   4.471  20.231  0.00  0.00    +0.000 C 
ATOM     10  C   UNL     1       2.033   5.753  20.901  0.00  0.00    +0.000 C 
ATOM     11  O   UNL     1       3.633   3.871  19.115  0.00  0.00    +0.000 OA
ATOM     12  C   UNL     1       3.678   2.464  18.878  0.00  0.00    +0.000 C 
ATOM     13  C   UNL     1       2.606   2.242  17.849  0.00  0.00    +0.000 C 
ATOM     14  O   UNL     1       1.581   3.156  18.229  0.00  0.00    +0.000 OA
ATOM     15  N   UNL     1       0.729   8.117  21.535  0.00  0.00    +0.000 NA
ATOM     16  C   UNL     1       0.145   9.271  21.898  0.00  0.00    +0.000 A 
ENDROOT
BRANCH   1  18
ATOM     17  N   UNL     1      -1.746  11.853  21.112  0.00  0.00    +0.000 N 
ATOM     18  C   UNL     1      -0.420  11.704  21.442  0.00  0.00    +0.000 C 
ATOM     19  O   UNL     1       0.249  12.575  21.986  0.00  0.00    +0.000 OA
ATOM     20  H   UNL     1      -2.241  11.066  20.700  0.00  0.00    +0.000 HD
BRANCH  17  21
ATOM     21  C   UNL     1      -2.469  13.084  21.323  0.00  0.00    +0.000 C 
BRANCH  21  26
ATOM     22  C   UNL     1      -5.912  13.141  22.976  0.00  0.00    +0.000 A 
ATOM     23  C   UNL     1      -5.589  12.719  24.265  0.00  0.00    +0.000 A 
ATOM     24  C   UNL     1      -4.275  12.403  24.606  0.00  0.00    +0.000 A 
ATOM     25  C   UNL     1      -3.267  12.508  23.651  0.00  0.00    +0.000 A 
ATOM     26  C   UNL     1      -3.565  12.924  22.347  0.00  0.00    +0.000 A 
ATOM     27  C   UNL     1      -4.894  13.239  22.020  0.00  0.00    +0.000 A 
BRANCH  22  28
ATOM     28  O   UNL     1      -7.232  13.439  22.760  0.00  0.00    +0.000 OA
BRANCH  28  30
ATOM     29  C   UNL     1      -7.444  15.780  23.227  0.00  0.00    +0.000 C 
ATOM     30  C   UNL     1      -7.827  14.376  23.657  0.00  0.00    +0.000 C 
ENDBRANCH  28  30
ENDBRANCH  22  28
ENDBRANCH  21  26
ENDBRANCH  17  21
ENDBRANCH   1  18
BRANCH  16  31
ATOM     31  N   UNL     1      -0.503   9.222  23.142  0.00  0.00    +0.000 N 
ATOM     32  H   UNL     1      -0.808  10.175  23.336  0.00  0.00    +0.000 HD
ATOM     33  H   UNL     1       0.128   8.890  23.867  0.00  0.00    +0.000 HD
ENDBRANCH  16  31
TORSDOF 6
ENDMDL
