MODEL 1
REMARK VINA RESULT:      -7.8      0.000      0.000
REMARK  Name = 
REMARK  1 active torsions:
REMARK  status: ('A' for Active; 'I' for Inactive)
REMARK    1  A    between atoms: C_11  and  C_12
REMARK                            x       y       z     vdW  Elec       q    Type
REMARK                         _______ _______ _______ _____ _____    ______ ____
ROOT
ATOM      1  O   UNL     1       7.254   5.471  20.030  0.00  0.00    +0.000 OA
ATOM      2  C   UNL     1       6.962   5.214  18.880  0.00  0.00    +0.000 C 
ATOM      3  N   UNL     1       7.708   5.476  17.741  0.00  0.00    +0.000 N 
ATOM      4  C   UNL     1       7.050   5.041  16.592  0.00  0.00    +0.000 A 
ATOM      5  C   UNL     1       7.500   5.148  15.290  0.00  0.00    +0.000 A 
ATOM      6  C   UNL     1       6.661   4.669  14.282  0.00  0.00    +0.000 A 
ATOM      7  C   UNL     1       5.403   4.124  14.591  0.00  0.00    +0.000 A 
ATOM      8  C   UNL     1       4.970   4.025  15.919  0.00  0.00    +0.000 A 
ATOM      9  C   UNL     1       5.817   4.466  16.919  0.00  0.00    +0.000 A 
ATOM     10  C   UNL     1       5.730   4.515  18.380  0.00  0.00    +0.000 C 
ATOM     11  C   UNL     1       4.838   4.002  19.242  0.00  0.00    +0.000 C 
ATOM     12  H   UNL     1       8.605   5.936  17.769  0.00  0.00    +0.000 HD
ENDROOT
BRANCH  11  13
ATOM     13  C   UNL     1       3.702   3.213  18.889  0.00  0.00    +0.000 A 
ATOM     14  N   UNL     1       3.677   1.877  18.989  0.00  0.00    +0.000 NA
ATOM     15  N   UNL     1       2.434   1.543  18.606  0.00  0.00    +0.000 N 
ATOM     16  C   UNL     1       1.655   2.612  18.277  0.00  0.00    +0.000 A 
ATOM     17  C   UNL     1       2.460   3.717  18.422  0.00  0.00    +0.000 A 
ATOM     18 CL   UNL     1       2.033   5.332  18.136  0.00  0.00    +0.000 Cl
ATOM     19  H   UNL     1       2.182   0.560  18.603  0.00  0.00    +0.000 HD
ENDBRANCH  11  13
TORSDOF 1
ENDMDL
MODEL 2
REMARK VINA RESULT:      -7.3      1.556      1.567
REMARK  Name = 
REMARK  1 active torsions:
REMARK  status: ('A' for Active; 'I' for Inactive)
REMARK    1  A    between atoms: C_11  and  C_12
REMARK                            x       y       z     vdW  Elec       q    Type
REMARK                         _______ _______ _______ _____ _____    ______ ____
ROOT
ATOM      1  O   UNL     1       7.259   5.397  20.029  0.00  0.00    +0.000 OA
ATOM      2  C   UNL     1       6.927   5.177  18.882  0.00  0.00    +0.000 C 
ATOM      3  N   UNL     1       7.728   5.209  17.750  0.00  0.00    +0.000 N 
ATOM      4  C   UNL     1       6.997   4.904  16.603  0.00  0.00    +0.000 A 
ATOM      5  C   UNL     1       7.474   4.852  15.308  0.00  0.00    +0.000 A 
ATOM      6  C   UNL     1       6.556   4.553  14.299  0.00  0.00    +0.000 A 
ATOM      7  C   UNL     1       5.200   4.338  14.600  0.00  0.00    +0.000 A 
ATOM      8  C   UNL     1       4.741   4.395  15.922  0.00  0.00    +0.000 A 
ATOM      9  C   UNL     1       5.658   4.655  16.925  0.00  0.00    +0.000 A 
ATOM     10  C   UNL     1       5.569   4.776  18.381  0.00  0.00    +0.000 C 
ATOM     11  C   UNL     1       4.570   4.525  19.241  0.00  0.00    +0.000 C 
ATOM     12  H   UNL     1       8.709   5.440  17.781  0.00  0.00    +0.000 HD
ENDROOT
BRANCH  11  13
ATOM     13  C   UNL     1       3.281   4.021  18.892  0.00  0.00    +0.000 A 
ATOM     14  N   UNL     1       2.208   4.806  18.718  0.00  0.00    +0.000 NA
ATOM     15  N   UNL     1       1.233   3.954  18.364  0.00  0.00    +0.000 N 
ATOM     16  C   UNL     1       1.639   2.655  18.290  0.00  0.00    +0.000 A 
ATOM     17  C   UNL     1       2.963   2.658  18.656  0.00  0.00    +0.000 A 
ATOM     18 CL   UNL     1       3.992   1.315  18.763  0.00  0.00    +0.000 Cl
ATOM     19  H   UNL     1       0.311   4.334  18.177  0.00  0.00    +0.000 HD
ENDBRANCH  11  13
TORSDOF 1
ENDMDL
MODEL 3
REMARK VINA RESULT:      -7.3      3.056      5.386
REMARK  Name = 
REMARK  1 active torsions:
REMARK  status: ('A' for Active; 'I' for Inactive)
REMARK    1  A    between atoms: C_11  and  C_12
REMARK                            x       y       z     vdW  Elec       q    Type
REMARK                         _______ _______ _______ _____ _____    ______ ____
ROOT
ATOM      1  O   UNL     1       2.376   7.945  18.976  0.00  0.00    +0.000 OA
ATOM      2  C   UNL     1       2.589   6.811  19.353  0.00  0.00    +0.000 C 
ATOM      3  N   UNL     1       1.918   6.111  20.344  0.00  0.00    +0.000 N 
ATOM      4  C   UNL     1       2.443   4.830  20.505  0.00  0.00    +0.000 A 
ATOM      5  C   UNL     1       2.022   3.870  21.404  0.00  0.00    +0.000 A 
ATOM      6  C   UNL     1       2.713   2.656  21.415  0.00  0.00    +0.000 A 
ATOM      7  C   UNL     1       3.805   2.442  20.557  0.00  0.00    +0.000 A 
ATOM      8  C   UNL     1       4.212   3.430  19.653  0.00  0.00    +0.000 A 
ATOM      9  C   UNL     1       3.504   4.618  19.616  0.00  0.00    +0.000 A 
ATOM     10  C   UNL     1       3.612   5.845  18.826  0.00  0.00    +0.000 C 
ATOM     11  C   UNL     1       4.361   6.159  17.757  0.00  0.00    +0.000 C 
ATOM     12  H   UNL     1       1.158   6.509  20.875  0.00  0.00    +0.000 HD
ENDROOT
BRANCH  11  13
ATOM     13  C   UNL     1       5.271   5.281  17.095  0.00  0.00    +0.000 A 
ATOM     14  N   UNL     1       4.879   4.329  16.237  0.00  0.00    +0.000 NA
ATOM     15  N   UNL     1       6.027   3.773  15.819  0.00  0.00    +0.000 N 
ATOM     16  C   UNL     1       7.141   4.338  16.362  0.00  0.00    +0.000 A 
ATOM     17  C   UNL     1       6.684   5.307  17.222  0.00  0.00    +0.000 A 
ATOM     18 CL   UNL     1       7.623   6.331  18.194  0.00  0.00    +0.000 Cl
ATOM     19  H   UNL     1       5.974   3.013  15.148  0.00  0.00    +0.000 HD
ENDBRANCH  11  13
TORSDOF 1
ENDMDL
MODEL 4
REMARK VINA RESULT:      -7.1      2.513      5.096
REMARK  Name = 
REMARK  1 active torsions:
REMARK  status: ('A' for Active; 'I' for Inactive)
REMARK    1  A    between atoms: C_11  and  C_12
REMARK                            x       y       z     vdW  Elec       q    Type
REMARK                         _______ _______ _______ _____ _____    ______ ____
ROOT
ATOM      1  O   UNL     1       2.458   7.408  19.833  0.00  0.00    +0.000 OA
ATOM      2  C   UNL     1       2.487   6.223  19.570  0.00  0.00    +0.000 C 
ATOM      3  N   UNL     1       1.441   5.316  19.639  0.00  0.00    +0.000 N 
ATOM      4  C   UNL     1       1.851   4.038  19.264  0.00  0.00    +0.000 A 
ATOM      5  C   UNL     1       1.073   2.898  19.224  0.00  0.00    +0.000 A 
ATOM      6  C   UNL     1       1.698   1.708  18.844  0.00  0.00    +0.000 A 
ATOM      7  C   UNL     1       3.070   1.682  18.539  0.00  0.00    +0.000 A 
ATOM      8  C   UNL     1       3.838   2.852  18.586  0.00  0.00    +0.000 A 
ATOM      9  C   UNL     1       3.210   4.037  18.927  0.00  0.00    +0.000 A 
ATOM     10  C   UNL     1       3.656   5.424  19.067  0.00  0.00    +0.000 C 
ATOM     11  C   UNL     1       4.815   6.027  18.761  0.00  0.00    +0.000 C 
ATOM     12  H   UNL     1       0.513   5.574  19.939  0.00  0.00    +0.000 HD
ENDROOT
BRANCH  11  13
ATOM     13  C   UNL     1       5.946   5.395  18.162  0.00  0.00    +0.000 A 
ATOM     14  N   UNL     1       6.902   4.778  18.870  0.00  0.00    +0.000 NA
ATOM     15  N   UNL     1       7.739   4.294  17.938  0.00  0.00    +0.000 N 
ATOM     16  C   UNL     1       7.353   4.565  16.659  0.00  0.00    +0.000 A 
ATOM     17  C   UNL     1       6.202   5.307  16.769  0.00  0.00    +0.000 A 
ATOM     18 CL   UNL     1       5.276   5.943  15.498  0.00  0.00    +0.000 Cl
ATOM     19  H   UNL     1       8.555   3.776  18.250  0.00  0.00    +0.000 HD
ENDBRANCH  11  13
TORSDOF 1
ENDMDL
MODEL 5
REMARK VINA RESULT:      -7.1      3.521      5.068
REMARK  Name = 
REMARK  1 active torsions:
REMARK  status: ('A' for Active; 'I' for Inactive)
REMARK    1  A    between atoms: C_11  and  C_12
REMARK                            x       y       z     vdW  Elec       q    Type
REMARK                         _______ _______ _______ _____ _____    ______ ____
ROOT
ATOM      1  O   UNL     1       2.358   3.903  21.606  0.00  0.00    +0.000 OA
ATOM      2  C   UNL     1       2.423   4.848  20.846  0.00  0.00    +0.000 C 
ATOM      3  N   UNL     1       1.778   6.070  20.960  0.00  0.00    +0.000 N 
ATOM      4  C   UNL     1       2.092   6.912  19.894  0.00  0.00    +0.000 A 
ATOM      5  C   UNL     1       1.623   8.194  19.686  0.00  0.00    +0.000 A 
ATOM      6  C   UNL     1       2.047   8.851  18.528  0.00  0.00    +0.000 A 
ATOM      7  C   UNL     1       2.897   8.213  17.609  0.00  0.00    +0.000 A 
ATOM      8  C   UNL     1       3.360   6.912  17.843  0.00  0.00    +0.000 A 
ATOM      9  C   UNL     1       2.970   6.276  19.008  0.00  0.00    +0.000 A 
ATOM     10  C   UNL     1       3.246   4.964  19.594  0.00  0.00    +0.000 C 
ATOM     11  C   UNL     1       4.105   3.991  19.249  0.00  0.00    +0.000 C 
ATOM     12  H   UNL     1       1.156   6.290  21.723  0.00  0.00    +0.000 HD
ENDROOT
BRANCH  11  13
ATOM     13  C   UNL     1       5.023   4.044  18.158  0.00  0.00    +0.000 A 
ATOM     14  N   UNL     1       4.776   3.486  16.963  0.00  0.00    +0.000 NA
ATOM     15  N   UNL     1       5.855   3.798  16.228  0.00  0.00    +0.000 N 
ATOM     16  C   UNL     1       6.779   4.544  16.897  0.00  0.00    +0.000 A 
ATOM     17  C   UNL     1       6.282   4.699  18.168  0.00  0.00    +0.000 A 
ATOM     18 CL   UNL     1       7.012   5.530  19.453  0.00  0.00    +0.000 Cl
ATOM     19  H   UNL     1       5.889   3.474  15.266  0.00  0.00    +0.000 HD
ENDBRANCH  11  13
TORSDOF 1
ENDMDL
MODEL 6
REMARK VINA RESULT:      -7.1      2.854      5.234
REMARK  Name = 
REMARK  1 active torsions:
REMARK  status: ('A' for Active; 'I' for Inactive)
REMARK    1  A    between atoms: C_11  and  C_12
REMARK                            x       y       z     vdW  Elec       q    Type
REMARK                         _______ _______ _______ _____ _____    ______ ____
ROOT
ATOM      1  O   UNL     1       3.629   1.592  17.922  0.00  0.00    +0.000 OA
ATOM      2  C   UNL     1       3.576   2.806  17.926  0.00  0.00    +0.000 C 
ATOM      3  N   UNL     1       2.805   3.614  18.747  0.00  0.00    +0.000 N 
ATOM      4  C   UNL     1       3.004   4.964  18.461  0.00  0.00    +0.000 A 
ATOM      5  C   UNL     1       2.395   6.039  19.078  0.00  0.00    +0.000 A 
ATOM      6  C   UNL     1       2.721   7.315  18.611  0.00  0.00    +0.000 A 
ATOM      7  C   UNL     1       3.616   7.482  17.541  0.00  0.00    +0.000 A 
ATOM      8  C   UNL     1       4.221   6.376  16.932  0.00  0.00    +0.000 A 
ATOM      9  C   UNL     1       3.927   5.115  17.419  0.00  0.00    +0.000 A 
ATOM     10  C   UNL     1       4.356   3.761  17.067  0.00  0.00    +0.000 C 
ATOM     11  C   UNL     1       5.306   3.310  16.234  0.00  0.00    +0.000 C 
ATOM     12  H   UNL     1       2.179   3.245  19.446  0.00  0.00    +0.000 HD
ENDROOT
BRANCH  11  13
ATOM     13  C   UNL     1       6.191   4.126  15.466  0.00  0.00    +0.000 A 
ATOM     14  N   UNL     1       7.190   4.837  16.008  0.00  0.00    +0.000 NA
ATOM     15  N   UNL     1       7.789   5.414  14.954  0.00  0.00    +0.000 N 
ATOM     16  C   UNL     1       7.225   5.092  13.756  0.00  0.00    +0.000 A 
ATOM     17  C   UNL     1       6.160   4.276  14.055  0.00  0.00    +0.000 A 
ATOM     18 CL   UNL     1       5.075   3.576  12.957  0.00  0.00    +0.000 Cl
ATOM     19  H   UNL     1       8.591   6.011  15.128  0.00  0.00    +0.000 HD
ENDBRANCH  11  13
TORSDOF 1
ENDMDL
MODEL 7
REMARK VINA RESULT:      -7.1      2.875      5.232
REMARK  Name = 
REMARK  1 active torsions:
REMARK  status: ('A' for Active; 'I' for Inactive)
REMARK    1  A    between atoms: C_11  and  C_12
REMARK                            x       y       z     vdW  Elec       q    Type
REMARK                         _______ _______ _______ _____ _____    ______ ____
ROOT
ATOM      1  O   UNL     1       2.610   8.011  18.626  0.00  0.00    +0.000 OA
ATOM      2  C   UNL     1       2.648   6.806  18.485  0.00  0.00    +0.000 C 
ATOM      3  N   UNL     1       1.730   5.872  18.942  0.00  0.00    +0.000 N 
ATOM      4  C   UNL     1       2.107   4.577  18.593  0.00  0.00    +0.000 A 
ATOM      5  C   UNL     1       1.432   3.409  18.891  0.00  0.00    +0.000 A 
ATOM      6  C   UNL     1       2.008   2.210  18.467  0.00  0.00    +0.000 A 
ATOM      7  C   UNL     1       3.237   2.203  17.784  0.00  0.00    +0.000 A 
ATOM      8  C   UNL     1       3.902   3.400  17.493  0.00  0.00    +0.000 A 
ATOM      9  C   UNL     1       3.313   4.590  17.881  0.00  0.00    +0.000 A 
ATOM     10  C   UNL     1       3.681   6.001  17.749  0.00  0.00    +0.000 C 
ATOM     11  C   UNL     1       4.662   6.610  17.064  0.00  0.00    +0.000 C 
ATOM     12  H   UNL     1       0.909   6.126  19.468  0.00  0.00    +0.000 HD
ENDROOT
BRANCH  11  13
ATOM     13  C   UNL     1       5.620   5.959  16.231  0.00  0.00    +0.000 A 
ATOM     14  N   UNL     1       5.505   5.888  14.897  0.00  0.00    +0.000 NA
ATOM     15  N   UNL     1       6.616   5.243  14.507  0.00  0.00    +0.000 N 
ATOM     16  C   UNL     1       7.446   4.908  15.534  0.00  0.00    +0.000 A 
ATOM     17  C   UNL     1       6.814   5.335  16.677  0.00  0.00    +0.000 A 
ATOM     18 CL   UNL     1       7.373   5.174  18.270  0.00  0.00    +0.000 Cl
ATOM     19  H   UNL     1       6.747   5.074  13.514  0.00  0.00    +0.000 HD
ENDBRANCH  11  13
TORSDOF 1
ENDMDL
MODEL 8
REMARK VINA RESULT:      -7.0      1.172      1.329
REMARK  Name = 
REMARK  1 active torsions:
REMARK  status: ('A' for Active; 'I' for Inactive)
REMARK    1  A    between atoms: C_11  and  C_12
REMARK                            x       y       z     vdW  Elec       q    Type
REMARK                         _______ _______ _______ _____ _____    ______ ____
ROOT
ATOM      1  O   UNL     1       7.859   7.010  18.683  0.00  0.00    +0.000 OA
ATOM      2  C   UNL     1       7.370   6.333  17.802  0.00  0.00    +0.000 C 
ATOM      3  N   UNL     1       7.770   6.254  16.477  0.00  0.00    +0.000 N 
ATOM      4  C   UNL     1       6.967   5.372  15.756  0.00  0.00    +0.000 A 
ATOM      5  C   UNL     1       7.078   5.059  14.415  0.00  0.00    +0.000 A 
ATOM      6  C   UNL     1       6.144   4.165  13.886  0.00  0.00    +0.000 A 
ATOM      7  C   UNL     1       5.123   3.631  14.692  0.00  0.00    +0.000 A 
ATOM      8  C   UNL     1       5.033   3.963  16.049  0.00  0.00    +0.000 A 
ATOM      9  C   UNL     1       5.980   4.819  16.581  0.00  0.00    +0.000 A 
ATOM     10  C   UNL     1       6.220   5.372  17.914  0.00  0.00    +0.000 C 
ATOM     11  C   UNL     1       5.668   5.104  19.108  0.00  0.00    +0.000 C 
ATOM     12  H   UNL     1       8.540   6.789  16.106  0.00  0.00    +0.000 HD
ENDROOT
BRANCH  11  13
ATOM     13  C   UNL     1       4.661   4.123  19.355  0.00  0.00    +0.000 A 
ATOM     14  N   UNL     1       4.931   2.896  19.823  0.00  0.00    +0.000 NA
ATOM     15  N   UNL     1       3.724   2.321  19.949  0.00  0.00    +0.000 N 
ATOM     16  C   UNL     1       2.689   3.133  19.593  0.00  0.00    +0.000 A 
ATOM     17  C   UNL     1       3.266   4.307  19.173  0.00  0.00    +0.000 A 
ATOM     18 CL   UNL     1       2.464   5.686  18.596  0.00  0.00    +0.000 Cl
ATOM     19  H   UNL     1       3.682   1.369  20.297  0.00  0.00    +0.000 HD
ENDBRANCH  11  13
TORSDOF 1
ENDMDL
MODEL 9
REMARK VINA RESULT:      -7.0      2.720      5.570
REMARK  Name = 
REMARK  1 active torsions:
REMARK  status: ('A' for Active; 'I' for Inactive)
REMARK    1  A    between atoms: C_11  and  C_12
REMARK                            x       y       z     vdW  Elec       q    Type
REMARK                         _______ _______ _______ _____ _____    ______ ____
ROOT
ATOM      1  O   UNL     1       3.728   1.136  18.036  0.00  0.00    +0.000 OA
ATOM      2  C   UNL     1       3.352   2.189  18.510  0.00  0.00    +0.000 C 
ATOM      3  N   UNL     1       2.423   2.375  19.522  0.00  0.00    +0.000 N 
ATOM      4  C   UNL     1       2.243   3.729  19.802  0.00  0.00    +0.000 A 
ATOM      5  C   UNL     1       1.391   4.272  20.744  0.00  0.00    +0.000 A 
ATOM      6  C   UNL     1       1.346   5.665  20.838  0.00  0.00    +0.000 A 
ATOM      7  C   UNL     1       2.124   6.470  19.988  0.00  0.00    +0.000 A 
ATOM      8  C   UNL     1       2.981   5.894  19.042  0.00  0.00    +0.000 A 
ATOM      9  C   UNL     1       3.053   4.515  18.974  0.00  0.00    +0.000 A 
ATOM     10  C   UNL     1       3.816   3.573  18.154  0.00  0.00    +0.000 C 
ATOM     11  C   UNL     1       4.822   3.754  17.284  0.00  0.00    +0.000 C 
ATOM     12  H   UNL     1       1.945   1.610  19.972  0.00  0.00    +0.000 HD
ENDROOT
BRANCH  11  13
ATOM     13  C   UNL     1       5.427   5.006  16.964  0.00  0.00    +0.000 A 
ATOM     14  N   UNL     1       5.223   5.644  15.803  0.00  0.00    +0.000 NA
ATOM     15  N   UNL     1       5.929   6.779  15.925  0.00  0.00    +0.000 N 
ATOM     16  C   UNL     1       6.568   6.903  17.122  0.00  0.00    +0.000 A 
ATOM     17  C   UNL     1       6.285   5.750  17.814  0.00  0.00    +0.000 A 
ATOM     18 CL   UNL     1       6.826   5.337  19.367  0.00  0.00    +0.000 Cl
ATOM     19  H   UNL     1       5.921   7.434  15.149  0.00  0.00    +0.000 HD
ENDBRANCH  11  13
TORSDOF 1
ENDMDL
