MODEL 1
REMARK VINA RESULT:      -7.9      0.000      0.000
REMARK  Name = 
REMARK  10 active torsions:
REMARK  status: ('A' for Active; 'I' for Inactive)
REMARK    1  A    between atoms: C_1  and  N_2
REMARK    2  A    between atoms: N_2  and  C_3
REMARK    3  A    between atoms: N_5  and  C_6
REMARK    4  A    between atoms: N_14  and  C_15
REMARK    5  A    between atoms: C_15  and  C_16
REMARK    6  A    between atoms: N_18  and  C_19
REMARK    7  A    between atoms: C_19  and  C_20
REMARK    8  A    between atoms: C_20  and  C_21
REMARK    9  A    between atoms: C_24  and  S_25
REMARK   10  A    between atoms: S_25  and  N_26
REMARK                            x       y       z     vdW  Elec       q    Type
REMARK                         _______ _______ _______ _____ _____    ______ ____
ROOT
ATOM      1  C   UNL     1       2.213   5.296  20.398  0.00  0.00    +0.000 C 
ATOM      2  O   UNL     1       1.094   4.921  20.728  0.00  0.00    +0.000 OA
ATOM      3  N   UNL     1       2.508   6.635  20.201  0.00  0.00    +0.000 N 
ATOM      4  H   UNL     1       3.463   6.944  20.070  0.00  0.00    +0.000 HD
ENDROOT
BRANCH   1   5
ATOM      5  C   UNL     1       3.361   4.320  20.226  0.00  0.00    +0.000 C 
BRANCH   5  14
ATOM      6  C   UNL     1       6.300   4.245  16.396  0.00  0.00    +0.000 A 
ATOM      7  N   UNL     1       7.403   4.654  17.068  0.00  0.00    +0.000 NA
ATOM      8  C   UNL     1       7.264   4.923  18.383  0.00  0.00    +0.000 A 
ATOM      9  N   UNL     1       6.154   4.842  19.145  0.00  0.00    +0.000 NA
ATOM     10  C   UNL     1       5.098   4.439  18.418  0.00  0.00    +0.000 A 
ATOM     11  C   UNL     1       5.077   4.126  17.067  0.00  0.00    +0.000 A 
ATOM     12  N   UNL     1       3.813   3.734  16.680  0.00  0.00    +0.000 NA
ATOM     13  C   UNL     1       3.081   3.807  17.774  0.00  0.00    +0.000 A 
ATOM     14  N   UNL     1       3.817   4.227  18.854  0.00  0.00    +0.000 N 
BRANCH   6  19
ATOM     15  C   UNL     1       7.959   5.589  12.153  0.00  0.00    +0.000 C 
ATOM     16  N   UNL     1       7.190   4.629  12.923  0.00  0.00    +0.000 N 
ATOM     17  C   UNL     1       6.590   3.504  12.228  0.00  0.00    +0.000 C 
ATOM     18  C   UNL     1       7.024   4.768  14.280  0.00  0.00    +0.000 C 
ATOM     19  N   UNL     1       6.356   3.970  15.033  0.00  0.00    +0.000 NA
ENDBRANCH   6  19
ENDBRANCH   5  14
ENDBRANCH   1   5
BRANCH   3  20
ATOM     20  C   UNL     1       1.451   7.609  20.427  0.00  0.00    +0.000 C 
BRANCH  20  21
ATOM     21  C   UNL     1       1.596   8.431  21.707  0.00  0.00    +0.000 C 
BRANCH  21  22
ATOM     22  C   UNL     1       0.504   9.476  21.774  0.00  0.00    +0.000 A 
ATOM     23  C   UNL     1       0.183  10.235  20.639  0.00  0.00    +0.000 A 
ATOM     24  C   UNL     1      -0.772  11.245  20.710  0.00  0.00    +0.000 A 
ATOM     25  C   UNL     1      -1.408  11.498  21.928  0.00  0.00    +0.000 A 
ATOM     26  C   UNL     1      -1.100  10.760  23.071  0.00  0.00    +0.000 A 
ATOM     27  C   UNL     1      -0.143   9.750  22.991  0.00  0.00    +0.000 A 
BRANCH  25  28
ATOM     28  S   UNL     1      -2.691  12.708  21.990  0.00  0.00    +0.000 S 
ATOM     29  O   UNL     1      -3.790  12.203  22.778  0.00  0.00    +0.000 OA
ATOM     30  O   UNL     1      -2.109  14.012  22.204  0.00  0.00    +0.000 OA
BRANCH  28  31
ATOM     31  N   UNL     1      -3.162  12.637  20.384  0.00  0.00    +0.000 NA
ATOM     32  H   UNL     1      -2.383  12.535  19.738  0.00  0.00    +0.000 HD
ATOM     33  H   UNL     1      -3.993  12.072  20.229  0.00  0.00    +0.000 HD
ENDBRANCH  28  31
ENDBRANCH  25  28
ENDBRANCH  21  22
ENDBRANCH  20  21
ENDBRANCH   3  20
TORSDOF 8
ENDMDL
MODEL 2
REMARK VINA RESULT:      -7.9      0.865      1.027
REMARK  Name = 
REMARK  10 active torsions:
REMARK  status: ('A' for Active; 'I' for Inactive)
REMARK    1  A    between atoms: C_1  and  N_2
REMARK    2  A    between atoms: N_2  and  C_3
REMARK    3  A    between atoms: N_5  and  C_6
REMARK    4  A    between atoms: N_14  and  C_15
REMARK    5  A    between atoms: C_15  and  C_16
REMARK    6  A    between atoms: N_18  and  C_19
REMARK    7  A    between atoms: C_19  and  C_20
REMARK    8  A    between atoms: C_20  and  C_21
REMARK    9  A    between atoms: C_24  and  S_25
REMARK   10  A    between atoms: S_25  and  N_26
REMARK                            x       y       z     vdW  Elec       q    Type
REMARK                         _______ _______ _______ _____ _____    ______ ____
ROOT
ATOM      1  C   UNL     1       2.212   5.269  20.485  0.00  0.00    +0.000 C 
ATOM      2  O   UNL     1       1.099   4.769  20.597  0.00  0.00    +0.000 OA
ATOM      3  N   UNL     1       2.409   6.639  20.546  0.00  0.00    +0.000 N 
ATOM      4  H   UNL     1       3.341   7.029  20.595  0.00  0.00    +0.000 HD
ENDROOT
BRANCH   1   5
ATOM      5  C   UNL     1       3.455   4.416  20.314  0.00  0.00    +0.000 C 
BRANCH   5  14
ATOM      6  C   UNL     1       6.283   4.205  16.407  0.00  0.00    +0.000 A 
ATOM      7  N   UNL     1       7.420   4.569  17.047  0.00  0.00    +0.000 NA
ATOM      8  C   UNL     1       7.327   4.848  18.363  0.00  0.00    +0.000 A 
ATOM      9  N   UNL     1       6.236   4.817  19.156  0.00  0.00    +0.000 NA
ATOM     10  C   UNL     1       5.145   4.456  18.460  0.00  0.00    +0.000 A 
ATOM     11  C   UNL     1       5.074   4.139  17.111  0.00  0.00    +0.000 A 
ATOM     12  N   UNL     1       3.785   3.799  16.760  0.00  0.00    +0.000 NA
ATOM     13  C   UNL     1       3.087   3.907  17.873  0.00  0.00    +0.000 A 
ATOM     14  N   UNL     1       3.868   4.300  18.931  0.00  0.00    +0.000 N 
BRANCH   6  19
ATOM     15  C   UNL     1       7.807   5.515  12.104  0.00  0.00    +0.000 C 
ATOM     16  N   UNL     1       7.057   4.565  12.904  0.00  0.00    +0.000 N 
ATOM     17  C   UNL     1       6.424   3.442  12.234  0.00  0.00    +0.000 C 
ATOM     18  C   UNL     1       6.939   4.712  14.264  0.00  0.00    +0.000 C 
ATOM     19  N   UNL     1       6.290   3.923  15.044  0.00  0.00    +0.000 NA
ENDBRANCH   6  19
ENDBRANCH   5  14
ENDBRANCH   1   5
BRANCH   3  20
ATOM     20  C   UNL     1       1.251   7.487  20.781  0.00  0.00    +0.000 C 
BRANCH  20  21
ATOM     21  C   UNL     1       1.366   8.905  20.222  0.00  0.00    +0.000 C 
BRANCH  21  22
ATOM     22  C   UNL     1       0.334   9.800  20.870  0.00  0.00    +0.000 A 
ATOM     23  C   UNL     1      -0.314  10.790  20.116  0.00  0.00    +0.000 A 
ATOM     24  C   UNL     1      -1.213  11.664  20.721  0.00  0.00    +0.000 A 
ATOM     25  C   UNL     1      -1.464  11.546  22.090  0.00  0.00    +0.000 A 
ATOM     26  C   UNL     1      -0.825  10.574  22.860  0.00  0.00    +0.000 A 
ATOM     27  C   UNL     1       0.074   9.702  22.248  0.00  0.00    +0.000 A 
BRANCH  25  28
ATOM     28  S   UNL     1      -2.681  12.586  22.831  0.00  0.00    +0.000 S 
ATOM     29  O   UNL     1      -3.382  13.314  21.801  0.00  0.00    +0.000 OA
ATOM     30  O   UNL     1      -3.361  11.858  23.876  0.00  0.00    +0.000 OA
BRANCH  28  31
ATOM     31  N   UNL     1      -1.644  13.668  23.580  0.00  0.00    +0.000 NA
ATOM     32  H   UNL     1      -2.079  14.560  23.799  0.00  0.00    +0.000 HD
ATOM     33  H   UNL     1      -1.046  13.239  24.282  0.00  0.00    +0.000 HD
ENDBRANCH  28  31
ENDBRANCH  25  28
ENDBRANCH  21  22
ENDBRANCH  20  21
ENDBRANCH   3  20
TORSDOF 8
ENDMDL
MODEL 3
REMARK VINA RESULT:      -7.6      1.387      1.882
REMARK  Name = 
REMARK  10 active torsions:
REMARK  status: ('A' for Active; 'I' for Inactive)
REMARK    1  A    between atoms: C_1  and  N_2
REMARK    2  A    between atoms: N_2  and  C_3
REMARK    3  A    between atoms: N_5  and  C_6
REMARK    4  A    between atoms: N_14  and  C_15
REMARK    5  A    between atoms: C_15  and  C_16
REMARK    6  A    between atoms: N_18  and  C_19
REMARK    7  A    between atoms: C_19  and  C_20
REMARK    8  A    between atoms: C_20  and  C_21
REMARK    9  A    between atoms: C_24  and  S_25
REMARK   10  A    between atoms: S_25  and  N_26
REMARK                            x       y       z     vdW  Elec       q    Type
REMARK                         _______ _______ _______ _____ _____    ______ ____
ROOT
ATOM      1  C   UNL     1       2.542   4.774  20.308  0.00  0.00    +0.000 C 
ATOM      2  O   UNL     1       1.503   4.508  20.900  0.00  0.00    +0.000 OA
ATOM      3  N   UNL     1       2.923   6.080  20.048  0.00  0.00    +0.000 N 
ATOM      4  H   UNL     1       3.846   6.291  19.689  0.00  0.00    +0.000 HD
ENDROOT
BRANCH   1   5
ATOM      5  C   UNL     1       3.503   3.689  19.862  0.00  0.00    +0.000 C 
BRANCH   5  14
ATOM      6  C   UNL     1       6.918   5.206  16.805  0.00  0.00    +0.000 A 
ATOM      7  N   UNL     1       7.727   5.727  17.759  0.00  0.00    +0.000 NA
ATOM      8  C   UNL     1       7.302   5.658  19.037  0.00  0.00    +0.000 A 
ATOM      9  N   UNL     1       6.156   5.132  19.515  0.00  0.00    +0.000 NA
ATOM     10  C   UNL     1       5.399   4.639  18.520  0.00  0.00    +0.000 A 
ATOM     11  C   UNL     1       5.692   4.634  17.164  0.00  0.00    +0.000 A 
ATOM     12  N   UNL     1       4.680   4.025  16.452  0.00  0.00    +0.000 NA
ATOM     13  C   UNL     1       3.791   3.668  17.358  0.00  0.00    +0.000 A 
ATOM     14  N   UNL     1       4.183   4.017  18.626  0.00  0.00    +0.000 N 
BRANCH   6  19
ATOM     15  C   UNL     1       6.248   3.407  12.461  0.00  0.00    +0.000 C 
ATOM     16  N   UNL     1       6.935   4.373  13.297  0.00  0.00    +0.000 N 
ATOM     17  C   UNL     1       7.880   5.282  12.672  0.00  0.00    +0.000 C 
ATOM     18  C   UNL     1       6.707   4.439  14.650  0.00  0.00    +0.000 C 
ATOM     19  N   UNL     1       7.275   5.258  15.461  0.00  0.00    +0.000 NA
ENDBRANCH   6  19
ENDBRANCH   5  14
ENDBRANCH   1   5
BRANCH   3  20
ATOM     20  C   UNL     1       2.063   7.151  20.524  0.00  0.00    +0.000 C 
BRANCH  20  21
ATOM     21  C   UNL     1       1.650   8.168  19.460  0.00  0.00    +0.000 C 
BRANCH  21  22
ATOM     22  C   UNL     1       1.094   9.410  20.121  0.00  0.00    +0.000 A 
ATOM     23  C   UNL     1       0.452   9.318  21.366  0.00  0.00    +0.000 A 
ATOM     24  C   UNL     1      -0.124  10.444  21.948  0.00  0.00    +0.000 A 
ATOM     25  C   UNL     1      -0.057  11.669  21.279  0.00  0.00    +0.000 A 
ATOM     26  C   UNL     1       0.570  11.780  20.039  0.00  0.00    +0.000 A 
ATOM     27  C   UNL     1       1.145  10.649  19.462  0.00  0.00    +0.000 A 
BRANCH  25  28
ATOM     28  S   UNL     1      -0.696  13.112  22.068  0.00  0.00    +0.000 S 
ATOM     29  O   UNL     1      -1.587  13.798  21.163  0.00  0.00    +0.000 OA
ATOM     30  O   UNL     1      -1.056  12.794  23.430  0.00  0.00    +0.000 OA
BRANCH  28  31
ATOM     31  N   UNL     1       0.724  13.997  22.127  0.00  0.00    +0.000 NA
ATOM     32  H   UNL     1       0.649  14.912  21.689  0.00  0.00    +0.000 HD
ATOM     33  H   UNL     1       1.209  13.928  23.018  0.00  0.00    +0.000 HD
ENDBRANCH  28  31
ENDBRANCH  25  28
ENDBRANCH  21  22
ENDBRANCH  20  21
ENDBRANCH   3  20
TORSDOF 8
ENDMDL
MODEL 4
REMARK VINA RESULT:      -7.5      1.860      2.354
REMARK  Name = 
REMARK  10 active torsions:
REMARK  status: ('A' for Active; 'I' for Inactive)
REMARK    1  A    between atoms: C_1  and  N_2
REMARK    2  A    between atoms: N_2  and  C_3
REMARK    3  A    between atoms: N_5  and  C_6
REMARK    4  A    between atoms: N_14  and  C_15
REMARK    5  A    between atoms: C_15  and  C_16
REMARK    6  A    between atoms: N_18  and  C_19
REMARK    7  A    between atoms: C_19  and  C_20
REMARK    8  A    between atoms: C_20  and  C_21
REMARK    9  A    between atoms: C_24  and  S_25
REMARK   10  A    between atoms: S_25  and  N_26
REMARK                            x       y       z     vdW  Elec       q    Type
REMARK                         _______ _______ _______ _____ _____    ______ ____
ROOT
ATOM      1  C   UNL     1       2.555   4.154  20.384  0.00  0.00    +0.000 C 
ATOM      2  O   UNL     1       1.775   3.875  21.287  0.00  0.00    +0.000 OA
ATOM      3  N   UNL     1       2.543   5.393  19.764  0.00  0.00    +0.000 N 
ATOM      4  H   UNL     1       3.280   5.661  19.123  0.00  0.00    +0.000 HD
ENDROOT
BRANCH   1   5
ATOM      5  C   UNL     1       3.615   3.175  19.917  0.00  0.00    +0.000 C 
BRANCH   5  14
ATOM      6  C   UNL     1       6.844   5.174  16.936  0.00  0.00    +0.000 A 
ATOM      7  N   UNL     1       7.544   5.809  17.907  0.00  0.00    +0.000 NA
ATOM      8  C   UNL     1       7.103   5.679  19.174  0.00  0.00    +0.000 A 
ATOM      9  N   UNL     1       6.035   4.991  19.628  0.00  0.00    +0.000 NA
ATOM     10  C   UNL     1       5.382   4.392  18.617  0.00  0.00    +0.000 A 
ATOM     11  C   UNL     1       5.706   4.429  17.268  0.00  0.00    +0.000 A 
ATOM     12  N   UNL     1       4.812   3.677  16.535  0.00  0.00    +0.000 NA
ATOM     13  C   UNL     1       3.963   3.194  17.420  0.00  0.00    +0.000 A 
ATOM     14  N   UNL     1       4.269   3.598  18.696  0.00  0.00    +0.000 N 
BRANCH   6  19
ATOM     15  C   UNL     1       6.328   3.463  12.535  0.00  0.00    +0.000 C 
ATOM     16  N   UNL     1       6.958   4.435  13.409  0.00  0.00    +0.000 N 
ATOM     17  C   UNL     1       7.874   5.400  12.825  0.00  0.00    +0.000 C 
ATOM     18  C   UNL     1       6.704   4.456  14.758  0.00  0.00    +0.000 C 
ATOM     19  N   UNL     1       7.221   5.276  15.601  0.00  0.00    +0.000 NA
ENDBRANCH   6  19
ENDBRANCH   5  14
ENDBRANCH   1   5
BRANCH   3  20
ATOM     20  C   UNL     1       1.589   6.384  20.233  0.00  0.00    +0.000 C 
BRANCH  20  21
ATOM     21  C   UNL     1       2.191   7.749  20.570  0.00  0.00    +0.000 C 
BRANCH  21  22
ATOM     22  C   UNL     1       1.313   8.850  20.018  0.00  0.00    +0.000 A 
ATOM     23  C   UNL     1       0.289   9.397  20.806  0.00  0.00    +0.000 A 
ATOM     24  C   UNL     1      -0.568  10.361  20.282  0.00  0.00    +0.000 A 
ATOM     25  C   UNL     1      -0.398  10.779  18.960  0.00  0.00    +0.000 A 
ATOM     26  C   UNL     1       0.609  10.244  18.157  0.00  0.00    +0.000 A 
ATOM     27  C   UNL     1       1.463   9.279  18.688  0.00  0.00    +0.000 A 
BRANCH  25  28
ATOM     28  S   UNL     1      -1.419  12.075  18.333  0.00  0.00    +0.000 S 
ATOM     29  O   UNL     1      -2.609  12.183  19.143  0.00  0.00    +0.000 OA
ATOM     30  O   UNL     1      -0.595  13.212  17.997  0.00  0.00    +0.000 OA
BRANCH  28  31
ATOM     31  N   UNL     1      -1.867  11.348  16.893  0.00  0.00    +0.000 NA
ATOM     32  H   UNL     1      -2.827  11.014  16.890  0.00  0.00    +0.000 HD
ATOM     33  H   UNL     1      -1.523  11.833  16.068  0.00  0.00    +0.000 HD
ENDBRANCH  28  31
ENDBRANCH  25  28
ENDBRANCH  21  22
ENDBRANCH  20  21
ENDBRANCH   3  20
TORSDOF 8
ENDMDL
MODEL 5
REMARK VINA RESULT:      -7.5      1.544      1.748
REMARK  Name = 
REMARK  10 active torsions:
REMARK  status: ('A' for Active; 'I' for Inactive)
REMARK    1  A    between atoms: C_1  and  N_2
REMARK    2  A    between atoms: N_2  and  C_3
REMARK    3  A    between atoms: N_5  and  C_6
REMARK    4  A    between atoms: N_14  and  C_15
REMARK    5  A    between atoms: C_15  and  C_16
REMARK    6  A    between atoms: N_18  and  C_19
REMARK    7  A    between atoms: C_19  and  C_20
REMARK    8  A    between atoms: C_20  and  C_21
REMARK    9  A    between atoms: C_24  and  S_25
REMARK   10  A    between atoms: S_25  and  N_26
REMARK                            x       y       z     vdW  Elec       q    Type
REMARK                         _______ _______ _______ _____ _____    ______ ____
ROOT
ATOM      1  C   UNL     1       2.752   6.639  19.502  0.00  0.00    +0.000 C 
ATOM      2  O   UNL     1       2.477   7.173  18.434  0.00  0.00    +0.000 OA
ATOM      3  N   UNL     1       2.194   7.062  20.698  0.00  0.00    +0.000 N 
ATOM      4  H   UNL     1       2.317   6.526  21.548  0.00  0.00    +0.000 HD
ENDROOT
BRANCH   1   5
ATOM      5  C   UNL     1       3.692   5.451  19.579  0.00  0.00    +0.000 C 
BRANCH   5  14
ATOM      6  C   UNL     1       6.408   4.839  15.635  0.00  0.00    +0.000 A 
ATOM      7  N   UNL     1       7.326   5.782  15.959  0.00  0.00    +0.000 NA
ATOM      8  C   UNL     1       7.131   6.468  17.104  0.00  0.00    +0.000 A 
ATOM      9  N   UNL     1       6.127   6.348  17.997  0.00  0.00    +0.000 NA
ATOM     10  C   UNL     1       5.252   5.403  17.614  0.00  0.00    +0.000 A 
ATOM     11  C   UNL     1       5.309   4.616  16.473  0.00  0.00    +0.000 A 
ATOM     12  N   UNL     1       4.240   3.745  16.431  0.00  0.00    +0.000 NA
ATOM     13  C   UNL     1       3.549   3.998  17.524  0.00  0.00    +0.000 A 
ATOM     14  N   UNL     1       4.124   4.994  18.275  0.00  0.00    +0.000 N 
BRANCH   6  19
ATOM     15  C   UNL     1       4.309   3.466  11.602  0.00  0.00    +0.000 C 
ATOM     16  N   UNL     1       5.488   3.429  12.447  0.00  0.00    +0.000 N 
ATOM     17  C   UNL     1       6.643   2.672  11.993  0.00  0.00    +0.000 C 
ATOM     18  C   UNL     1       5.527   4.089  13.650  0.00  0.00    +0.000 C 
ATOM     19  N   UNL     1       6.525   4.104  14.459  0.00  0.00    +0.000 NA
ENDBRANCH   6  19
ENDBRANCH   5  14
ENDBRANCH   1   5
BRANCH   3  20
ATOM     20  C   UNL     1       1.233   8.152  20.656  0.00  0.00    +0.000 C 
BRANCH  20  21
ATOM     21  C   UNL     1       1.575   9.347  21.546  0.00  0.00    +0.000 C 
BRANCH  21  22
ATOM     22  C   UNL     1       0.332  10.167  21.809  0.00  0.00    +0.000 A 
ATOM     23  C   UNL     1      -0.039  11.190  20.922  0.00  0.00    +0.000 A 
ATOM     24  C   UNL     1      -1.141  11.995  21.193  0.00  0.00    +0.000 A 
ATOM     25  C   UNL     1      -1.878  11.775  22.360  0.00  0.00    +0.000 A 
ATOM     26  C   UNL     1      -1.523  10.768  23.258  0.00  0.00    +0.000 A 
ATOM     27  C   UNL     1      -0.418   9.966  22.980  0.00  0.00    +0.000 A 
BRANCH  25  28
ATOM     28  S   UNL     1      -3.334  12.728  22.647  0.00  0.00    +0.000 S 
ATOM     29  O   UNL     1      -2.967  14.100  22.903  0.00  0.00    +0.000 OA
ATOM     30  O   UNL     1      -4.348  12.355  21.688  0.00  0.00    +0.000 OA
BRANCH  28  31
ATOM     31  N   UNL     1      -3.773  12.053  24.115  0.00  0.00    +0.000 NA
ATOM     32  H   UNL     1      -3.756  11.036  24.114  0.00  0.00    +0.000 HD
ATOM     33  H   UNL     1      -3.385  12.540  24.919  0.00  0.00    +0.000 HD
ENDBRANCH  28  31
ENDBRANCH  25  28
ENDBRANCH  21  22
ENDBRANCH  20  21
ENDBRANCH   3  20
TORSDOF 8
ENDMDL
MODEL 6
REMARK VINA RESULT:      -7.5      1.227      1.904
REMARK  Name = 
REMARK  10 active torsions:
REMARK  status: ('A' for Active; 'I' for Inactive)
REMARK    1  A    between atoms: C_1  and  N_2
REMARK    2  A    between atoms: N_2  and  C_3
REMARK    3  A    between atoms: N_5  and  C_6
REMARK    4  A    between atoms: N_14  and  C_15
REMARK    5  A    between atoms: C_15  and  C_16
REMARK    6  A    between atoms: N_18  and  C_19
REMARK    7  A    between atoms: C_19  and  C_20
REMARK    8  A    between atoms: C_20  and  C_21
REMARK    9  A    between atoms: C_24  and  S_25
REMARK   10  A    between atoms: S_25  and  N_26
REMARK                            x       y       z     vdW  Elec       q    Type
REMARK                         _______ _______ _______ _____ _____    ______ ____
ROOT
ATOM      1  C   UNL     1       2.541   5.149  20.151  0.00  0.00    +0.000 C 
ATOM      2  O   UNL     1       1.538   4.962  20.830  0.00  0.00    +0.000 OA
ATOM      3  N   UNL     1       2.874   6.404  19.668  0.00  0.00    +0.000 N 
ATOM      4  H   UNL     1       3.773   6.572  19.233  0.00  0.00    +0.000 HD
ENDROOT
BRANCH   1   5
ATOM      5  C   UNL     1       3.508   4.025  19.834  0.00  0.00    +0.000 C 
BRANCH   5  14
ATOM      6  C   UNL     1       6.891   4.797  16.477  0.00  0.00    +0.000 A 
ATOM      7  N   UNL     1       7.846   5.211  17.345  0.00  0.00    +0.000 NA
ATOM      8  C   UNL     1       7.512   5.271  18.650  0.00  0.00    +0.000 A 
ATOM      9  N   UNL     1       6.333   4.971  19.233  0.00  0.00    +0.000 NA
ATOM     10  C   UNL     1       5.431   4.575  18.319  0.00  0.00    +0.000 A 
ATOM     11  C   UNL     1       5.616   4.461  16.949  0.00  0.00    +0.000 A 
ATOM     12  N   UNL     1       4.465   4.007  16.340  0.00  0.00    +0.000 NA
ATOM     13  C   UNL     1       3.599   3.848  17.321  0.00  0.00    +0.000 A 
ATOM     14  N   UNL     1       4.139   4.178  18.540  0.00  0.00    +0.000 N 
BRANCH   6  19
ATOM     15  C   UNL     1       5.498   3.098  12.266  0.00  0.00    +0.000 C 
ATOM     16  N   UNL     1       6.452   3.895  13.014  0.00  0.00    +0.000 N 
ATOM     17  C   UNL     1       7.535   4.539  12.290  0.00  0.00    +0.000 C 
ATOM     18  C   UNL     1       6.347   4.047  14.375  0.00  0.00    +0.000 C 
ATOM     19  N   UNL     1       7.149   4.729  15.112  0.00  0.00    +0.000 NA
ENDBRANCH   6  19
ENDBRANCH   5  14
ENDBRANCH   1   5
BRANCH   3  20
ATOM     20  C   UNL     1       2.010   7.522  20.011  0.00  0.00    +0.000 C 
BRANCH  20  21
ATOM     21  C   UNL     1       1.842   8.569  18.910  0.00  0.00    +0.000 C 
BRANCH  21  22
ATOM     22  C   UNL     1       0.830   9.609  19.338  0.00  0.00    +0.000 A 
ATOM     23  C   UNL     1       0.675   9.925  20.696  0.00  0.00    +0.000 A 
ATOM     24  C   UNL     1      -0.301  10.829  21.104  0.00  0.00    +0.000 A 
ATOM     25  C   UNL     1      -1.128  11.420  20.146  0.00  0.00    +0.000 A 
ATOM     26  C   UNL     1      -0.996  11.115  18.792  0.00  0.00    +0.000 A 
ATOM     27  C   UNL     1      -0.016  10.209  18.390  0.00  0.00    +0.000 A 
BRANCH  25  28
ATOM     28  S   UNL     1      -2.293  12.643  20.656  0.00  0.00    +0.000 S 
ATOM     29  O   UNL     1      -1.694  13.952  20.547  0.00  0.00    +0.000 OA
ATOM     30  O   UNL     1      -3.590  12.328  20.104  0.00  0.00    +0.000 OA
BRANCH  28  31
ATOM     31  N   UNL     1      -2.344  12.257  22.284  0.00  0.00    +0.000 NA
ATOM     32  H   UNL     1      -2.736  11.338  22.471  0.00  0.00    +0.000 HD
ATOM     33  H   UNL     1      -1.511  12.537  22.795  0.00  0.00    +0.000 HD
ENDBRANCH  28  31
ENDBRANCH  25  28
ENDBRANCH  21  22
ENDBRANCH  20  21
ENDBRANCH   3  20
TORSDOF 8
ENDMDL
MODEL 7
REMARK VINA RESULT:      -7.4      0.774      1.236
REMARK  Name = 
REMARK  10 active torsions:
REMARK  status: ('A' for Active; 'I' for Inactive)
REMARK    1  A    between atoms: C_1  and  N_2
REMARK    2  A    between atoms: N_2  and  C_3
REMARK    3  A    between atoms: N_5  and  C_6
REMARK    4  A    between atoms: N_14  and  C_15
REMARK    5  A    between atoms: C_15  and  C_16
REMARK    6  A    between atoms: N_18  and  C_19
REMARK    7  A    between atoms: C_19  and  C_20
REMARK    8  A    between atoms: C_20  and  C_21
REMARK    9  A    between atoms: C_24  and  S_25
REMARK   10  A    between atoms: S_25  and  N_26
REMARK                            x       y       z     vdW  Elec       q    Type
REMARK                         _______ _______ _______ _____ _____    ______ ____
ROOT
ATOM      1  C   UNL     1       1.961   5.054  20.582  0.00  0.00    +0.000 C 
ATOM      2  O   UNL     1       0.807   4.650  20.648  0.00  0.00    +0.000 OA
ATOM      3  N   UNL     1       2.273   6.399  20.696  0.00  0.00    +0.000 N 
ATOM      4  H   UNL     1       3.234   6.705  20.784  0.00  0.00    +0.000 HD
ENDROOT
BRANCH   1   5
ATOM      5  C   UNL     1       3.130   4.102  20.414  0.00  0.00    +0.000 C 
BRANCH   5  14
ATOM      6  C   UNL     1       6.039   4.089  16.561  0.00  0.00    +0.000 A 
ATOM      7  N   UNL     1       7.127   4.566  17.215  0.00  0.00    +0.000 NA
ATOM      8  C   UNL     1       6.984   4.855  18.525  0.00  0.00    +0.000 A 
ATOM      9  N   UNL     1       5.885   4.737  19.298  0.00  0.00    +0.000 NA
ATOM     10  C   UNL     1       4.845   4.267  18.590  0.00  0.00    +0.000 A 
ATOM     11  C   UNL     1       4.829   3.925  17.245  0.00  0.00    +0.000 A 
ATOM     12  N   UNL     1       3.582   3.463  16.878  0.00  0.00    +0.000 NA
ATOM     13  C   UNL     1       2.856   3.524  17.976  0.00  0.00    +0.000 A 
ATOM     14  N   UNL     1       3.579   4.003  19.041  0.00  0.00    +0.000 N 
BRANCH   6  19
ATOM     15  C   UNL     1       7.717   5.345  12.299  0.00  0.00    +0.000 C 
ATOM     16  N   UNL     1       6.941   4.403  13.085  0.00  0.00    +0.000 N 
ATOM     17  C   UNL     1       6.338   3.268  12.409  0.00  0.00    +0.000 C 
ATOM     18  C   UNL     1       6.772   4.569  14.438  0.00  0.00    +0.000 C 
ATOM     19  N   UNL     1       6.098   3.788  15.204  0.00  0.00    +0.000 NA
ENDBRANCH   6  19
ENDBRANCH   5  14
ENDBRANCH   1   5
BRANCH   3  20
ATOM     20  C   UNL     1       1.186   7.337  20.930  0.00  0.00    +0.000 C 
BRANCH  20  21
ATOM     21  C   UNL     1       1.507   8.464  21.911  0.00  0.00    +0.000 C 
BRANCH  21  22
ATOM     22  C   UNL     1       0.492   9.576  21.769  0.00  0.00    +0.000 A 
ATOM     23  C   UNL     1      -0.178  10.069  22.899  0.00  0.00    +0.000 A 
ATOM     24  C   UNL     1      -1.163  11.043  22.768  0.00  0.00    +0.000 A 
ATOM     25  C   UNL     1      -1.481  11.527  21.497  0.00  0.00    +0.000 A 
ATOM     26  C   UNL     1      -0.832  11.046  20.359  0.00  0.00    +0.000 A 
ATOM     27  C   UNL     1       0.154  10.071  20.497  0.00  0.00    +0.000 A 
BRANCH  25  28
ATOM     28  S   UNL     1      -2.655  12.834  21.345  0.00  0.00    +0.000 S 
ATOM     29  O   UNL     1      -3.114  12.911  19.979  0.00  0.00    +0.000 OA
ATOM     30  O   UNL     1      -3.557  12.802  22.473  0.00  0.00    +0.000 OA
BRANCH  28  31
ATOM     31  N   UNL     1      -1.610  14.120  21.587  0.00  0.00    +0.000 NA
ATOM     32  H   UNL     1      -2.056  14.930  22.012  0.00  0.00    +0.000 HD
ATOM     33  H   UNL     1      -0.694  13.841  21.928  0.00  0.00    +0.000 HD
ENDBRANCH  28  31
ENDBRANCH  25  28
ENDBRANCH  21  22
ENDBRANCH  20  21
ENDBRANCH   3  20
TORSDOF 8
ENDMDL
MODEL 8
REMARK VINA RESULT:      -7.4      1.391      1.638
REMARK  Name = 
REMARK  10 active torsions:
REMARK  status: ('A' for Active; 'I' for Inactive)
REMARK    1  A    between atoms: C_1  and  N_2
REMARK    2  A    between atoms: N_2  and  C_3
REMARK    3  A    between atoms: N_5  and  C_6
REMARK    4  A    between atoms: N_14  and  C_15
REMARK    5  A    between atoms: C_15  and  C_16
REMARK    6  A    between atoms: N_18  and  C_19
REMARK    7  A    between atoms: C_19  and  C_20
REMARK    8  A    between atoms: C_20  and  C_21
REMARK    9  A    between atoms: C_24  and  S_25
REMARK   10  A    between atoms: S_25  and  N_26
REMARK                            x       y       z     vdW  Elec       q    Type
REMARK                         _______ _______ _______ _____ _____    ______ ____
ROOT
ATOM      1  C   UNL     1       2.798   5.617  19.790  0.00  0.00    +0.000 C 
ATOM      2  O   UNL     1       1.713   5.069  19.635  0.00  0.00    +0.000 OA
ATOM      3  N   UNL     1       2.903   6.972  20.056  0.00  0.00    +0.000 N 
ATOM      4  H   UNL     1       3.789   7.384  20.322  0.00  0.00    +0.000 HD
ENDROOT
BRANCH   1   5
ATOM      5  C   UNL     1       4.098   4.836  19.744  0.00  0.00    +0.000 C 
BRANCH   5  14
ATOM      6  C   UNL     1       6.601   4.857  15.616  0.00  0.00    +0.000 A 
ATOM      7  N   UNL     1       7.369   5.927  15.933  0.00  0.00    +0.000 NA
ATOM      8  C   UNL     1       7.143   6.522  17.122  0.00  0.00    +0.000 A 
ATOM      9  N   UNL     1       6.236   6.196  18.067  0.00  0.00    +0.000 NA
ATOM     10  C   UNL     1       5.505   5.134  17.689  0.00  0.00    +0.000 A 
ATOM     11  C   UNL     1       5.615   4.417  16.506  0.00  0.00    +0.000 A 
ATOM     12  N   UNL     1       4.705   3.380  16.483  0.00  0.00    +0.000 NA
ATOM     13  C   UNL     1       4.057   3.467  17.628  0.00  0.00    +0.000 A 
ATOM     14  N   UNL     1       4.509   4.513  18.394  0.00  0.00    +0.000 N 
BRANCH   6  19
ATOM     15  C   UNL     1       4.496   3.348  11.636  0.00  0.00    +0.000 C 
ATOM     16  N   UNL     1       5.716   3.461  12.412  0.00  0.00    +0.000 N 
ATOM     17  C   UNL     1       6.943   2.917  11.857  0.00  0.00    +0.000 C 
ATOM     18  C   UNL     1       5.726   4.065  13.645  0.00  0.00    +0.000 C 
ATOM     19  N   UNL     1       6.758   4.202  14.399  0.00  0.00    +0.000 NA
ENDBRANCH   6  19
ENDBRANCH   5  14
ENDBRANCH   1   5
BRANCH   3  20
ATOM     20  C   UNL     1       1.676   7.742  20.179  0.00  0.00    +0.000 C 
BRANCH  20  21
ATOM     21  C   UNL     1       1.167   7.920  21.610  0.00  0.00    +0.000 C 
BRANCH  21  22
ATOM     22  C   UNL     1       0.464   9.252  21.746  0.00  0.00    +0.000 A 
ATOM     23  C   UNL     1       0.742  10.292  20.844  0.00  0.00    +0.000 A 
ATOM     24  C   UNL     1       0.153  11.542  21.004  0.00  0.00    +0.000 A 
ATOM     25  C   UNL     1      -0.720  11.754  22.074  0.00  0.00    +0.000 A 
ATOM     26  C   UNL     1      -1.006  10.738  22.985  0.00  0.00    +0.000 A 
ATOM     27  C   UNL     1      -0.412   9.488  22.819  0.00  0.00    +0.000 A 
BRANCH  25  28
ATOM     28  S   UNL     1      -1.545  13.307  22.212  0.00  0.00    +0.000 S 
ATOM     29  O   UNL     1      -1.417  14.031  20.970  0.00  0.00    +0.000 OA
ATOM     30  O   UNL     1      -2.811  13.120  22.881  0.00  0.00    +0.000 OA
BRANCH  28  31
ATOM     31  N   UNL     1      -0.509  14.029  23.312  0.00  0.00    +0.000 NA
ATOM     32  H   UNL     1      -0.510  13.580  24.224  0.00  0.00    +0.000 HD
ATOM     33  H   UNL     1       0.385  14.301  22.910  0.00  0.00    +0.000 HD
ENDBRANCH  28  31
ENDBRANCH  25  28
ENDBRANCH  21  22
ENDBRANCH  20  21
ENDBRANCH   3  20
TORSDOF 8
ENDMDL
MODEL 9
REMARK VINA RESULT:      -7.3      3.397      4.845
REMARK  Name = 
REMARK  10 active torsions:
REMARK  status: ('A' for Active; 'I' for Inactive)
REMARK    1  A    between atoms: C_1  and  N_2
REMARK    2  A    between atoms: N_2  and  C_3
REMARK    3  A    between atoms: N_5  and  C_6
REMARK    4  A    between atoms: N_14  and  C_15
REMARK    5  A    between atoms: C_15  and  C_16
REMARK    6  A    between atoms: N_18  and  C_19
REMARK    7  A    between atoms: C_19  and  C_20
REMARK    8  A    between atoms: C_20  and  C_21
REMARK    9  A    between atoms: C_24  and  S_25
REMARK   10  A    between atoms: S_25  and  N_26
REMARK                            x       y       z     vdW  Elec       q    Type
REMARK                         _______ _______ _______ _____ _____    ______ ____
ROOT
ATOM      1  C   UNL     1       3.687   3.753  17.907  0.00  0.00    +0.000 C 
ATOM      2  O   UNL     1       3.801   2.749  18.599  0.00  0.00    +0.000 OA
ATOM      3  N   UNL     1       2.709   4.703  18.151  0.00  0.00    +0.000 N 
ATOM      4  H   UNL     1       2.714   5.592  17.665  0.00  0.00    +0.000 HD
ENDROOT
BRANCH   1   5
ATOM      5  C   UNL     1       4.639   4.043  16.762  0.00  0.00    +0.000 C 
BRANCH   5  14
ATOM      6  C   UNL     1       7.823   7.382  18.182  0.00  0.00    +0.000 A 
ATOM      7  N   UNL     1       8.421   6.605  19.118  0.00  0.00    +0.000 NA
ATOM      8  C   UNL     1       7.933   5.360  19.292  0.00  0.00    +0.000 A 
ATOM      9  N   UNL     1       6.907   4.760  18.653  0.00  0.00    +0.000 NA
ATOM     10  C   UNL     1       6.356   5.585  17.746  0.00  0.00    +0.000 A 
ATOM     11  C   UNL     1       6.739   6.885  17.450  0.00  0.00    +0.000 A 
ATOM     12  N   UNL     1       5.947   7.406  16.448  0.00  0.00    +0.000 NA
ATOM     13  C   UNL     1       5.101   6.442  16.143  0.00  0.00    +0.000 A 
ATOM     14  N   UNL     1       5.312   5.317  16.902  0.00  0.00    +0.000 N 
BRANCH   6  19
ATOM     15  C   UNL     1       9.824  11.265  20.047  0.00  0.00    +0.000 C 
ATOM     16  N   UNL     1       9.259  10.614  18.879  0.00  0.00    +0.000 N 
ATOM     17  C   UNL     1       9.215  11.352  17.628  0.00  0.00    +0.000 C 
ATOM     18  C   UNL     1       8.773   9.331  18.939  0.00  0.00    +0.000 C 
ATOM     19  N   UNL     1       8.253   8.686  17.958  0.00  0.00    +0.000 NA
ENDBRANCH   6  19
ENDBRANCH   5  14
ENDBRANCH   1   5
BRANCH   3  20
ATOM     20  C   UNL     1       1.822   4.497  19.284  0.00  0.00    +0.000 C 
BRANCH  20  21
ATOM     21  C   UNL     1       2.119   5.371  20.503  0.00  0.00    +0.000 C 
BRANCH  21  22
ATOM     22  C   UNL     1       1.832   6.820  20.180  0.00  0.00    +0.000 A 
ATOM     23  C   UNL     1       1.067   7.601  21.061  0.00  0.00    +0.000 A 
ATOM     24  C   UNL     1       0.739   8.914  20.739  0.00  0.00    +0.000 A 
ATOM     25  C   UNL     1       1.180   9.451  19.526  0.00  0.00    +0.000 A 
ATOM     26  C   UNL     1       1.936   8.691  18.633  0.00  0.00    +0.000 A 
ATOM     27  C   UNL     1       2.261   7.376  18.963  0.00  0.00    +0.000 A 
BRANCH  25  28
ATOM     28  S   UNL     1       0.852  11.147  19.169  0.00  0.00    +0.000 S 
ATOM     29  O   UNL     1       0.106  11.731  20.258  0.00  0.00    +0.000 OA
ATOM     30  O   UNL     1       2.038  11.758  18.617  0.00  0.00    +0.000 OA
BRANCH  28  31
ATOM     31  N   UNL     1      -0.220  10.919  17.903  0.00  0.00    +0.000 NA
ATOM     32  H   UNL     1       0.124  11.270  17.013  0.00  0.00    +0.000 HD
ATOM     33  H   UNL     1      -0.679  10.012  17.917  0.00  0.00    +0.000 HD
ENDBRANCH  28  31
ENDBRANCH  25  28
ENDBRANCH  21  22
ENDBRANCH  20  21
ENDBRANCH   3  20
TORSDOF 8
ENDMDL
