MODEL 1
REMARK VINA RESULT:      -5.3      0.000      0.000
REMARK  Name = 
REMARK  2 active torsions:
REMARK  status: ('A' for Active; 'I' for Inactive)
REMARK    1  A    between atoms: C_1  and  C_2
REMARK    2  A    between atoms: C_2  and  O_3
REMARK                            x       y       z     vdW  Elec       q    Type
REMARK                         _______ _______ _______ _____ _____    ______ ____
ROOT
ATOM      1  C   UNL     1       2.163   5.109  19.255  0.00  0.00    +0.000 C 
ATOM      2  C   UNL     1       1.881   3.659  18.849  0.00  0.00    +0.000 C 
ATOM      3  C   UNL     1       3.140   2.848  18.645  0.00  0.00    +0.000 C 
ATOM      4  C   UNL     1       3.856   2.642  19.939  0.00  0.00    +0.000 C 
ATOM      5  O   UNL     1       5.083   2.551  19.958  0.00  0.00    +0.000 OA
ATOM      6  O   UNL     1       3.144   2.510  21.074  0.00  0.00    +0.000 OA
ATOM      7  C   UNL     1       1.811   2.691  21.133  0.00  0.00    +0.000 C 
ATOM      8  O   UNL     1       1.224   2.620  22.212  0.00  0.00    +0.000 OA
ATOM      9  C   UNL     1       1.044   2.925  19.872  0.00  0.00    +0.000 C 
ENDROOT
BRANCH   2  10
ATOM     10  O   UNL     1       1.147   3.674  17.621  0.00  0.00    +0.000 OA
ATOM     11  H   UNL     1       0.669   4.520  17.548  0.00  0.00    +0.000 HD
ENDBRANCH   2  10
TORSDOF 1
ENDMDL
MODEL 2
REMARK VINA RESULT:      -5.2      4.401      5.630
REMARK  Name = 
REMARK  2 active torsions:
REMARK  status: ('A' for Active; 'I' for Inactive)
REMARK    1  A    between atoms: C_1  and  C_2
REMARK    2  A    between atoms: C_2  and  O_3
REMARK                            x       y       z     vdW  Elec       q    Type
REMARK                         _______ _______ _______ _____ _____    ______ ____
ROOT
ATOM      1  C   UNL     1       4.898   6.568  17.066  0.00  0.00    +0.000 C 
ATOM      2  C   UNL     1       4.956   5.046  16.898  0.00  0.00    +0.000 C 
ATOM      3  C   UNL     1       5.516   4.621  15.561  0.00  0.00    +0.000 C 
ATOM      4  C   UNL     1       6.965   4.968  15.457  0.00  0.00    +0.000 C 
ATOM      5  O   UNL     1       7.454   5.252  14.364  0.00  0.00    +0.000 OA
ATOM      6  O   UNL     1       7.736   4.921  16.559  0.00  0.00    +0.000 OA
ATOM      7  C   UNL     1       7.245   4.708  17.794  0.00  0.00    +0.000 C 
ATOM      8  O   UNL     1       7.991   4.739  18.772  0.00  0.00    +0.000 OA
ATOM      9  C   UNL     1       5.796   4.379  17.963  0.00  0.00    +0.000 C 
ENDROOT
BRANCH   2  10
ATOM     10  O   UNL     1       3.624   4.535  17.016  0.00  0.00    +0.000 OA
ATOM     11  H   UNL     1       3.042   5.020  16.404  0.00  0.00    +0.000 HD
ENDBRANCH   2  10
TORSDOF 1
ENDMDL
MODEL 3
REMARK VINA RESULT:      -5.2      4.922      6.310
REMARK  Name = 
REMARK  2 active torsions:
REMARK  status: ('A' for Active; 'I' for Inactive)
REMARK    1  A    between atoms: C_1  and  C_2
REMARK    2  A    between atoms: C_2  and  O_3
REMARK                            x       y       z     vdW  Elec       q    Type
REMARK                         _______ _______ _______ _____ _____    ______ ____
ROOT
ATOM      1  C   UNL     1       4.669   5.559  17.737  0.00  0.00    +0.000 C 
ATOM      2  C   UNL     1       5.990   4.805  17.916  0.00  0.00    +0.000 C 
ATOM      3  C   UNL     1       6.543   4.265  16.618  0.00  0.00    +0.000 C 
ATOM      4  C   UNL     1       6.977   5.378  15.722  0.00  0.00    +0.000 C 
ATOM      5  O   UNL     1       6.904   5.251  14.500  0.00  0.00    +0.000 OA
ATOM      6  O   UNL     1       7.492   6.499  16.262  0.00  0.00    +0.000 OA
ATOM      7  C   UNL     1       7.514   6.735  17.587  0.00  0.00    +0.000 C 
ATOM      8  O   UNL     1       7.939   7.806  18.019  0.00  0.00    +0.000 OA
ATOM      9  C   UNL     1       7.068   5.666  18.533  0.00  0.00    +0.000 C 
ENDROOT
BRANCH   2  10
ATOM     10  O   UNL     1       5.757   3.705  18.802  0.00  0.00    +0.000 OA
ATOM     11  H   UNL     1       5.138   3.082  18.380  0.00  0.00    +0.000 HD
ENDBRANCH   2  10
TORSDOF 1
ENDMDL
MODEL 4
REMARK VINA RESULT:      -5.2      1.716      2.802
REMARK  Name = 
REMARK  2 active torsions:
REMARK  status: ('A' for Active; 'I' for Inactive)
REMARK    1  A    between atoms: C_1  and  C_2
REMARK    2  A    between atoms: C_2  and  O_3
REMARK                            x       y       z     vdW  Elec       q    Type
REMARK                         _______ _______ _______ _____ _____    ______ ____
ROOT
ATOM      1  C   UNL     1       0.992   3.672  20.268  0.00  0.00    +0.000 C 
ATOM      2  C   UNL     1       1.386   3.022  18.937  0.00  0.00    +0.000 C 
ATOM      3  C   UNL     1       1.699   4.032  17.857  0.00  0.00    +0.000 C 
ATOM      4  C   UNL     1       2.948   4.785  18.180  0.00  0.00    +0.000 C 
ATOM      5  O   UNL     1       3.076   5.953  17.813  0.00  0.00    +0.000 OA
ATOM      6  O   UNL     1       3.946   4.160  18.832  0.00  0.00    +0.000 OA
ATOM      7  C   UNL     1       3.832   2.919  19.338  0.00  0.00    +0.000 C 
ATOM      8  O   UNL     1       4.758   2.424  19.981  0.00  0.00    +0.000 OA
ATOM      9  C   UNL     1       2.595   2.124  19.068  0.00  0.00    +0.000 C 
ENDROOT
BRANCH   2  10
ATOM     10  O   UNL     1       0.292   2.211  18.497  0.00  0.00    +0.000 OA
ATOM     11  H   UNL     1       0.062   2.457  17.583  0.00  0.00    +0.000 HD
ENDBRANCH   2  10
TORSDOF 1
ENDMDL
MODEL 5
REMARK VINA RESULT:      -5.2      1.114      3.018
REMARK  Name = 
REMARK  2 active torsions:
REMARK  status: ('A' for Active; 'I' for Inactive)
REMARK    1  A    between atoms: C_1  and  C_2
REMARK    2  A    between atoms: C_2  and  O_3
REMARK                            x       y       z     vdW  Elec       q    Type
REMARK                         _______ _______ _______ _____ _____    ______ ____
ROOT
ATOM      1  C   UNL     1       3.540   1.457  18.494  0.00  0.00    +0.000 C 
ATOM      2  C   UNL     1       3.796   2.865  19.041  0.00  0.00    +0.000 C 
ATOM      3  C   UNL     1       3.198   3.951  18.177  0.00  0.00    +0.000 C 
ATOM      4  C   UNL     1       1.706   3.902  18.218  0.00  0.00    +0.000 C 
ATOM      5  O   UNL     1       1.050   4.246  17.235  0.00  0.00    +0.000 OA
ATOM      6  O   UNL     1       1.088   3.524  19.353  0.00  0.00    +0.000 OA
ATOM      7  C   UNL     1       1.746   3.050  20.427  0.00  0.00    +0.000 C 
ATOM      8  O   UNL     1       1.122   2.660  21.413  0.00  0.00    +0.000 OA
ATOM      9  C   UNL     1       3.241   3.052  20.435  0.00  0.00    +0.000 C 
ENDROOT
BRANCH   2  10
ATOM     10  O   UNL     1       5.211   3.066  19.109  0.00  0.00    +0.000 OA
ATOM     11  H   UNL     1       5.423   3.951  18.763  0.00  0.00    +0.000 HD
ENDBRANCH   2  10
TORSDOF 1
ENDMDL
MODEL 6
REMARK VINA RESULT:      -5.2      0.877      2.779
REMARK  Name = 
REMARK  2 active torsions:
REMARK  status: ('A' for Active; 'I' for Inactive)
REMARK    1  A    between atoms: C_1  and  C_2
REMARK    2  A    between atoms: C_2  and  O_3
REMARK                            x       y       z     vdW  Elec       q    Type
REMARK                         _______ _______ _______ _____ _____    ______ ____
ROOT
ATOM      1  C   UNL     1       1.424   2.188  18.613  0.00  0.00    +0.000 C 
ATOM      2  C   UNL     1       1.958   3.505  19.186  0.00  0.00    +0.000 C 
ATOM      3  C   UNL     1       1.397   3.826  20.551  0.00  0.00    +0.000 C 
ATOM      4  C   UNL     1       1.895   2.856  21.572  0.00  0.00    +0.000 C 
ATOM      5  O   UNL     1       1.189   2.556  22.535  0.00  0.00    +0.000 OA
ATOM      6  O   UNL     1       3.137   2.352  21.453  0.00  0.00    +0.000 OA
ATOM      7  C   UNL     1       3.921   2.568  20.380  0.00  0.00    +0.000 C 
ATOM      8  O   UNL     1       5.024   2.028  20.299  0.00  0.00    +0.000 OA
ATOM      9  C   UNL     1       3.464   3.511  19.314  0.00  0.00    +0.000 C 
ENDROOT
BRANCH   2  10
ATOM     10  O   UNL     1       1.597   4.560  18.288  0.00  0.00    +0.000 OA
ATOM     11  H   UNL     1       2.199   4.545  17.523  0.00  0.00    +0.000 HD
ENDBRANCH   2  10
TORSDOF 1
ENDMDL
MODEL 7
REMARK VINA RESULT:      -5.1      1.081      3.322
REMARK  Name = 
REMARK  2 active torsions:
REMARK  status: ('A' for Active; 'I' for Inactive)
REMARK    1  A    between atoms: C_1  and  C_2
REMARK    2  A    between atoms: C_2  and  O_3
REMARK                            x       y       z     vdW  Elec       q    Type
REMARK                         _______ _______ _______ _____ _____    ______ ____
ROOT
ATOM      1  C   UNL     1       1.994   4.756  21.154  0.00  0.00    +0.000 C 
ATOM      2  C   UNL     1       1.967   3.253  20.861  0.00  0.00    +0.000 C 
ATOM      3  C   UNL     1       1.165   2.906  19.628  0.00  0.00    +0.000 C 
ATOM      4  C   UNL     1       1.836   3.418  18.396  0.00  0.00    +0.000 C 
ATOM      5  O   UNL     1       1.163   3.766  17.426  0.00  0.00    +0.000 OA
ATOM      6  O   UNL     1       3.181   3.451  18.341  0.00  0.00    +0.000 OA
ATOM      7  C   UNL     1       3.968   3.172  19.397  0.00  0.00    +0.000 C 
ATOM      8  O   UNL     1       5.191   3.281  19.303  0.00  0.00    +0.000 OA
ATOM      9  C   UNL     1       3.351   2.678  20.665  0.00  0.00    +0.000 C 
ENDROOT
BRANCH   2  10
ATOM     10  O   UNL     1       1.380   2.590  21.986  0.00  0.00    +0.000 OA
ATOM     11  H   UNL     1       2.088   2.216  22.539  0.00  0.00    +0.000 HD
ENDBRANCH   2  10
TORSDOF 1
ENDMDL
MODEL 8
REMARK VINA RESULT:      -5.1      4.391      5.966
REMARK  Name = 
REMARK  2 active torsions:
REMARK  status: ('A' for Active; 'I' for Inactive)
REMARK    1  A    between atoms: C_1  and  C_2
REMARK    2  A    between atoms: C_2  and  O_3
REMARK                            x       y       z     vdW  Elec       q    Type
REMARK                         _______ _______ _______ _____ _____    ______ ____
ROOT
ATOM      1  C   UNL     1       7.731   6.369  18.311  0.00  0.00    +0.000 C 
ATOM      2  C   UNL     1       7.147   5.082  17.720  0.00  0.00    +0.000 C 
ATOM      3  C   UNL     1       5.991   4.535  18.524  0.00  0.00    +0.000 C 
ATOM      4  C   UNL     1       4.808   5.443  18.440  0.00  0.00    +0.000 C 
ATOM      5  O   UNL     1       4.029   5.532  19.389  0.00  0.00    +0.000 OA
ATOM      6  O   UNL     1       4.578   6.124  17.302  0.00  0.00    +0.000 OA
ATOM      7  C   UNL     1       5.437   6.140  16.266  0.00  0.00    +0.000 C 
ATOM      8  O   UNL     1       5.202   6.833  15.277  0.00  0.00    +0.000 OA
ATOM      9  C   UNL     1       6.651   5.270  16.304  0.00  0.00    +0.000 C 
ENDROOT
BRANCH   2  10
ATOM     10  O   UNL     1       8.183   4.096  17.687  0.00  0.00    +0.000 OA
ATOM     11  H   UNL     1       7.882   3.336  17.158  0.00  0.00    +0.000 HD
ENDBRANCH   2  10
TORSDOF 1
ENDMDL
MODEL 9
REMARK VINA RESULT:      -5.1      1.595      2.919
REMARK  Name = 
REMARK  2 active torsions:
REMARK  status: ('A' for Active; 'I' for Inactive)
REMARK    1  A    between atoms: C_1  and  C_2
REMARK    2  A    between atoms: C_2  and  O_3
REMARK                            x       y       z     vdW  Elec       q    Type
REMARK                         _______ _______ _______ _____ _____    ______ ____
ROOT
ATOM      1  C   UNL     1       2.757   1.859  18.696  0.00  0.00    +0.000 C 
ATOM      2  C   UNL     1       1.456   2.613  18.989  0.00  0.00    +0.000 C 
ATOM      3  C   UNL     1       1.127   2.674  20.462  0.00  0.00    +0.000 C 
ATOM      4  C   UNL     1       2.113   3.525  21.193  0.00  0.00    +0.000 C 
ATOM      5  O   UNL     1       2.399   3.273  22.362  0.00  0.00    +0.000 OA
ATOM      6  O   UNL     1       2.647   4.595  20.574  0.00  0.00    +0.000 OA
ATOM      7  C   UNL     1       2.446   4.871  19.272  0.00  0.00    +0.000 C 
ATOM      8  O   UNL     1       3.013   5.828  18.746  0.00  0.00    +0.000 OA
ATOM      9  C   UNL     1       1.488   4.038  18.483  0.00  0.00    +0.000 C 
ENDROOT
BRANCH   2  10
ATOM     10  O   UNL     1       0.389   1.939  18.313  0.00  0.00    +0.000 OA
ATOM     11  H   UNL     1       0.523   0.977  18.389  0.00  0.00    +0.000 HD
ENDBRANCH   2  10
TORSDOF 1
ENDMDL
