MODEL 1
REMARK VINA RESULT:      -7.8      0.000      0.000
REMARK  Name = 
REMARK  10 active torsions:
REMARK  status: ('A' for Active; 'I' for Inactive)
REMARK    1  A    between atoms: C_1  and  C_2
REMARK    2  A    between atoms: N_4  and  C_5
REMARK    3  A    between atoms: C_5  and  C_6
REMARK    4  A    between atoms: C_5  and  C_7
REMARK    5  A    between atoms: C_10  and  O_11
REMARK    6  A    between atoms: O_11  and  C_12
REMARK    7  A    between atoms: N_15  and  C_16
REMARK    8  A    between atoms: C_19  and  O_20
REMARK    9  A    between atoms: O_20  and  C_21
REMARK   10  A    between atoms: C_25  and  C_26
REMARK                            x       y       z     vdW  Elec       q    Type
REMARK                         _______ _______ _______ _____ _____    ______ ____
ROOT
ATOM      1  C   UNL     1       1.466   6.840  20.248  0.00  0.00    +0.000 C 
ATOM      2  C   UNL     1       1.804   5.430  20.669  0.00  0.00    +0.000 C 
ATOM      3  C   UNL     1       3.211   5.163  20.146  0.00  0.00    +0.000 C 
ATOM      4  N   UNL     1       3.300   5.969  18.929  0.00  0.00    +0.000 N 
ATOM      5  C   UNL     1       2.221   6.976  18.910  0.00  0.00    +0.000 C 
ENDROOT
BRANCH   4   6
ATOM      6  C   UNL     1       4.047   5.632  17.808  0.00  0.00    +0.000 A 
ATOM      7  C   UNL     1       4.936   6.575  17.240  0.00  0.00    +0.000 A 
ATOM      8  C   UNL     1       5.723   6.296  16.108  0.00  0.00    +0.000 A 
ATOM      9  C   UNL     1       5.646   5.059  15.488  0.00  0.00    +0.000 A 
ATOM     10  C   UNL     1       4.763   4.117  15.987  0.00  0.00    +0.000 A 
ATOM     11  C   UNL     1       4.006   4.378  17.152  0.00  0.00    +0.000 A 
BRANCH  11  12
ATOM     12  C   UNL     1       3.237   3.264  17.632  0.00  0.00    +0.000 C 
ATOM     13  N   UNL     1       2.604   2.356  17.983  0.00  0.00    +0.000 NA
ENDBRANCH  11  12
BRANCH   9  14
ATOM     14  O   UNL     1       6.382   4.870  14.349  0.00  0.00    +0.000 OA
BRANCH  14  15
ATOM     15  C   UNL     1       6.193   3.623  13.636  0.00  0.00    +0.000 C 
ATOM     16  C   UNL     1       5.316   3.587  12.409  0.00  0.00    +0.000 C 
ATOM     17  C   UNL     1       6.801   3.686  12.252  0.00  0.00    +0.000 C 
ENDBRANCH  14  15
ENDBRANCH   9  14
ENDBRANCH   4   6
BRANCH   1  18
ATOM     18  O   UNL     1       1.867   7.767  21.273  0.00  0.00    +0.000 OA
BRANCH  18  22
ATOM     19  C   UNL     1      -0.739  11.052  21.589  0.00  0.00    +0.000 A 
ATOM     20  C   UNL     1      -0.080  10.739  20.393  0.00  0.00    +0.000 A 
ATOM     21  C   UNL     1       0.803   9.644  20.330  0.00  0.00    +0.000 A 
ATOM     22  C   UNL     1       1.085   8.879  21.464  0.00  0.00    +0.000 A 
ATOM     23  C   UNL     1       0.513   9.252  22.677  0.00  0.00    +0.000 A 
ATOM     24  C   UNL     1      -0.408  10.298  22.732  0.00  0.00    +0.000 A 
BRANCH  19  25
ATOM     25  C   UNL     1      -1.789  12.152  21.683  0.00  0.00    +0.000 C 
ATOM     26  C   UNL     1      -1.149  13.531  21.478  0.00  0.00    +0.000 C 
BRANCH  25  30
ATOM     27  C   UNL     1      -4.202  12.386  24.609  0.00  0.00    +0.000 C 
ATOM     28  C   UNL     1      -3.741  12.538  23.184  0.00  0.00    +0.000 C 
ATOM     29  O   UNL     1      -4.456  12.996  22.303  0.00  0.00    +0.000 OA
ATOM     30  N   UNL     1      -2.457  12.090  22.981  0.00  0.00    +0.000 N 
ATOM     31  H   UNL     1      -1.928  11.767  23.779  0.00  0.00    +0.000 HD
ENDBRANCH  25  30
ENDBRANCH  19  25
ENDBRANCH  18  22
ENDBRANCH   1  18
TORSDOF 8
ENDMDL
MODEL 2
REMARK VINA RESULT:      -7.8      3.322     11.125
REMARK  Name = 
REMARK  10 active torsions:
REMARK  status: ('A' for Active; 'I' for Inactive)
REMARK    1  A    between atoms: C_1  and  C_2
REMARK    2  A    between atoms: N_4  and  C_5
REMARK    3  A    between atoms: C_5  and  C_6
REMARK    4  A    between atoms: C_5  and  C_7
REMARK    5  A    between atoms: C_10  and  O_11
REMARK    6  A    between atoms: O_11  and  C_12
REMARK    7  A    between atoms: N_15  and  C_16
REMARK    8  A    between atoms: C_19  and  O_20
REMARK    9  A    between atoms: O_20  and  C_21
REMARK   10  A    between atoms: C_25  and  C_26
REMARK                            x       y       z     vdW  Elec       q    Type
REMARK                         _______ _______ _______ _____ _____    ______ ____
ROOT
ATOM      1  C   UNL     1      -0.202  10.808  18.418  0.00  0.00    +0.000 C 
ATOM      2  C   UNL     1      -0.384  12.263  18.059  0.00  0.00    +0.000 C 
ATOM      3  C   UNL     1      -0.632  12.990  19.376  0.00  0.00    +0.000 C 
ATOM      4  N   UNL     1      -1.308  11.999  20.212  0.00  0.00    +0.000 N 
ATOM      5  C   UNL     1      -1.126  10.649  19.642  0.00  0.00    +0.000 C 
ENDROOT
BRANCH   4   6
ATOM      6  C   UNL     1      -2.256  12.294  21.182  0.00  0.00    +0.000 A 
ATOM      7  C   UNL     1      -3.402  13.054  20.846  0.00  0.00    +0.000 A 
ATOM      8  C   UNL     1      -4.401  13.383  21.779  0.00  0.00    +0.000 A 
ATOM      9  C   UNL     1      -4.291  12.971  23.098  0.00  0.00    +0.000 A 
ATOM     10  C   UNL     1      -3.170  12.256  23.482  0.00  0.00    +0.000 A 
ATOM     11  C   UNL     1      -2.188  11.884  22.535  0.00  0.00    +0.000 A 
BRANCH  11  12
ATOM     12  C   UNL     1      -1.153  11.029  23.046  0.00  0.00    +0.000 C 
ATOM     13  N   UNL     1      -0.331  10.343  23.496  0.00  0.00    +0.000 NA
ENDBRANCH  11  12
BRANCH   9  14
ATOM     14  O   UNL     1      -5.257  13.382  23.977  0.00  0.00    +0.000 OA
BRANCH  14  15
ATOM     15  C   UNL     1      -6.575  13.650  23.436  0.00  0.00    +0.000 C 
ATOM     16  C   UNL     1      -7.766  13.701  24.360  0.00  0.00    +0.000 C 
ATOM     17  C   UNL     1      -7.110  14.976  23.931  0.00  0.00    +0.000 C 
ENDBRANCH  14  15
ENDBRANCH   9  14
ENDBRANCH   4   6
BRANCH   1  18
ATOM     18  O   UNL     1       1.190  10.535  18.663  0.00  0.00    +0.000 OA
BRANCH  18  22
ATOM     19  C   UNL     1       2.604   6.640  19.376  0.00  0.00    +0.000 A 
ATOM     20  C   UNL     1       2.652   7.226  18.104  0.00  0.00    +0.000 A 
ATOM     21  C   UNL     1       2.148   8.525  17.898  0.00  0.00    +0.000 A 
ATOM     22  C   UNL     1       1.543   9.238  18.936  0.00  0.00    +0.000 A 
ATOM     23  C   UNL     1       1.400   8.617  20.174  0.00  0.00    +0.000 A 
ATOM     24  C   UNL     1       1.951   7.355  20.399  0.00  0.00    +0.000 A 
BRANCH  19  25
ATOM     25  C   UNL     1       3.236   5.287  19.678  0.00  0.00    +0.000 C 
ATOM     26  C   UNL     1       4.699   5.256  19.218  0.00  0.00    +0.000 C 
BRANCH  25  30
ATOM     27  C   UNL     1       0.781   2.543  18.739  0.00  0.00    +0.000 C 
ATOM     28  C   UNL     1       1.388   3.617  19.602  0.00  0.00    +0.000 C 
ATOM     29  O   UNL     1       0.933   3.920  20.697  0.00  0.00    +0.000 OA
ATOM     30  N   UNL     1       2.475   4.227  19.021  0.00  0.00    +0.000 N 
ATOM     31  H   UNL     1       2.803   3.879  18.131  0.00  0.00    +0.000 HD
ENDBRANCH  25  30
ENDBRANCH  19  25
ENDBRANCH  18  22
ENDBRANCH   1  18
TORSDOF 8
ENDMDL
MODEL 3
REMARK VINA RESULT:      -7.8      0.566      1.100
REMARK  Name = 
REMARK  10 active torsions:
REMARK  status: ('A' for Active; 'I' for Inactive)
REMARK    1  A    between atoms: C_1  and  C_2
REMARK    2  A    between atoms: N_4  and  C_5
REMARK    3  A    between atoms: C_5  and  C_6
REMARK    4  A    between atoms: C_5  and  C_7
REMARK    5  A    between atoms: C_10  and  O_11
REMARK    6  A    between atoms: O_11  and  C_12
REMARK    7  A    between atoms: N_15  and  C_16
REMARK    8  A    between atoms: C_19  and  O_20
REMARK    9  A    between atoms: O_20  and  C_21
REMARK   10  A    between atoms: C_25  and  C_26
REMARK                            x       y       z     vdW  Elec       q    Type
REMARK                         _______ _______ _______ _____ _____    ______ ____
ROOT
ATOM      1  C   UNL     1       1.504   6.921  20.002  0.00  0.00    +0.000 C 
ATOM      2  C   UNL     1       1.744   5.555  20.597  0.00  0.00    +0.000 C 
ATOM      3  C   UNL     1       3.170   5.177  20.213  0.00  0.00    +0.000 C 
ATOM      4  N   UNL     1       3.383   5.838  18.927  0.00  0.00    +0.000 N 
ATOM      5  C   UNL     1       2.356   6.879  18.718  0.00  0.00    +0.000 C 
ENDROOT
BRANCH   4   6
ATOM      6  C   UNL     1       4.189   5.351  17.907  0.00  0.00    +0.000 A 
ATOM      7  C   UNL     1       5.378   6.034  17.556  0.00  0.00    +0.000 A 
ATOM      8  C   UNL     1       6.240   5.592  16.537  0.00  0.00    +0.000 A 
ATOM      9  C   UNL     1       5.944   4.445  15.816  0.00  0.00    +0.000 A 
ATOM     10  C   UNL     1       4.772   3.764  16.100  0.00  0.00    +0.000 A 
ATOM     11  C   UNL     1       3.929   4.180  17.155  0.00  0.00    +0.000 A 
BRANCH  11  12
ATOM     12  C   UNL     1       2.824   3.302  17.425  0.00  0.00    +0.000 C 
ATOM     13  N   UNL     1       1.937   2.599  17.682  0.00  0.00    +0.000 NA
ENDBRANCH  11  12
BRANCH   9  14
ATOM     14  O   UNL     1       6.781   4.104  14.789  0.00  0.00    +0.000 OA
BRANCH  14  15
ATOM     15  C   UNL     1       6.428   4.567  13.462  0.00  0.00    +0.000 C 
ATOM     16  C   UNL     1       7.265   4.155  12.277  0.00  0.00    +0.000 C 
ATOM     17  C   UNL     1       5.998   3.418  12.578  0.00  0.00    +0.000 C 
ENDBRANCH  14  15
ENDBRANCH   9  14
ENDBRANCH   4   6
BRANCH   1  18
ATOM     18  O   UNL     1       1.874   7.940  20.950  0.00  0.00    +0.000 OA
BRANCH  18  22
ATOM     19  C   UNL     1      -0.552  11.286  21.723  0.00  0.00    +0.000 A 
ATOM     20  C   UNL     1      -0.365  10.270  22.669  0.00  0.00    +0.000 A 
ATOM     21  C   UNL     1       0.438   9.153  22.367  0.00  0.00    +0.000 A 
ATOM     22  C   UNL     1       1.020   9.002  21.106  0.00  0.00    +0.000 A 
ATOM     23  C   UNL     1       0.749   9.957  20.130  0.00  0.00    +0.000 A 
ATOM     24  C   UNL     1       0.005  11.095  20.443  0.00  0.00    +0.000 A 
BRANCH  19  25
ATOM     25  C   UNL     1      -1.314  12.568  22.036  0.00  0.00    +0.000 C 
ATOM     26  C   UNL     1      -0.344  13.738  22.244  0.00  0.00    +0.000 C 
BRANCH  25  30
ATOM     27  C   UNL     1      -4.139  12.169  24.547  0.00  0.00    +0.000 C 
ATOM     28  C   UNL     1      -3.513  12.366  23.191  0.00  0.00    +0.000 C 
ATOM     29  O   UNL     1      -4.175  12.484  22.168  0.00  0.00    +0.000 OA
ATOM     30  N   UNL     1      -2.139  12.374  23.227  0.00  0.00    +0.000 N 
ATOM     31  H   UNL     1      -1.680  12.313  24.125  0.00  0.00    +0.000 HD
ENDBRANCH  25  30
ENDBRANCH  19  25
ENDBRANCH  18  22
ENDBRANCH   1  18
TORSDOF 8
ENDMDL
MODEL 4
REMARK VINA RESULT:      -7.5      2.311      3.005
REMARK  Name = 
REMARK  10 active torsions:
REMARK  status: ('A' for Active; 'I' for Inactive)
REMARK    1  A    between atoms: C_1  and  C_2
REMARK    2  A    between atoms: N_4  and  C_5
REMARK    3  A    between atoms: C_5  and  C_6
REMARK    4  A    between atoms: C_5  and  C_7
REMARK    5  A    between atoms: C_10  and  O_11
REMARK    6  A    between atoms: O_11  and  C_12
REMARK    7  A    between atoms: N_15  and  C_16
REMARK    8  A    between atoms: C_19  and  O_20
REMARK    9  A    between atoms: O_20  and  C_21
REMARK   10  A    between atoms: C_25  and  C_26
REMARK                            x       y       z     vdW  Elec       q    Type
REMARK                         _______ _______ _______ _____ _____    ______ ____
ROOT
ATOM      1  C   UNL     1       1.773   6.566  19.651  0.00  0.00    +0.000 C 
ATOM      2  C   UNL     1       2.390   5.433  20.434  0.00  0.00    +0.000 C 
ATOM      3  C   UNL     1       3.810   5.281  19.901  0.00  0.00    +0.000 C 
ATOM      4  N   UNL     1       3.713   5.687  18.500  0.00  0.00    +0.000 N 
ATOM      5  C   UNL     1       2.457   6.431  18.275  0.00  0.00    +0.000 C 
ENDROOT
BRANCH   4   6
ATOM      6  C   UNL     1       4.486   5.172  17.468  0.00  0.00    +0.000 A 
ATOM      7  C   UNL     1       5.440   5.991  16.819  0.00  0.00    +0.000 A 
ATOM      8  C   UNL     1       6.256   5.530  15.771  0.00  0.00    +0.000 A 
ATOM      9  C   UNL     1       6.146   4.224  15.320  0.00  0.00    +0.000 A 
ATOM     10  C   UNL     1       5.201   3.395  15.900  0.00  0.00    +0.000 A 
ATOM     11  C   UNL     1       4.413   3.843  16.985  0.00  0.00    +0.000 A 
BRANCH  11  12
ATOM     12  C   UNL     1       3.575   2.836  17.576  0.00  0.00    +0.000 C 
ATOM     13  N   UNL     1       2.932   2.004  18.066  0.00  0.00    +0.000 NA
ENDBRANCH  11  12
BRANCH   9  14
ATOM     14  O   UNL     1       6.916   3.852  14.250  0.00  0.00    +0.000 OA
BRANCH  14  15
ATOM     15  C   UNL     1       6.487   4.296  12.939  0.00  0.00    +0.000 C 
ATOM     16  C   UNL     1       7.037   3.626  11.705  0.00  0.00    +0.000 C 
ATOM     17  C   UNL     1       5.695   3.220  12.229  0.00  0.00    +0.000 C 
ENDBRANCH  14  15
ENDBRANCH   9  14
ENDBRANCH   4   6
BRANCH   1  18
ATOM     18  O   UNL     1       2.006   7.815  20.329  0.00  0.00    +0.000 OA
BRANCH  18  22
ATOM     19  C   UNL     1      -0.452  10.919  18.913  0.00  0.00    +0.000 A 
ATOM     20  C   UNL     1       0.609  10.407  18.154  0.00  0.00    +0.000 A 
ATOM     21  C   UNL     1       1.425   9.381  18.670  0.00  0.00    +0.000 A 
ATOM     22  C   UNL     1       1.235   8.889  19.963  0.00  0.00    +0.000 A 
ATOM     23  C   UNL     1       0.250   9.470  20.758  0.00  0.00    +0.000 A 
ATOM     24  C   UNL     1      -0.600  10.443  20.230  0.00  0.00    +0.000 A 
BRANCH  19  25
ATOM     25  C   UNL     1      -1.433  11.945  18.361  0.00  0.00    +0.000 C 
ATOM     26  C   UNL     1      -2.617  12.133  19.318  0.00  0.00    +0.000 C 
BRANCH  25  30
ATOM     27  C   UNL     1      -3.012  10.146  15.409  0.00  0.00    +0.000 C 
ATOM     28  C   UNL     1      -2.662  10.387  16.854  0.00  0.00    +0.000 C 
ATOM     29  O   UNL     1      -3.040   9.651  17.756  0.00  0.00    +0.000 OA
ATOM     30  N   UNL     1      -1.906  11.519  17.046  0.00  0.00    +0.000 N 
ATOM     31  H   UNL     1      -1.606  12.041  16.234  0.00  0.00    +0.000 HD
ENDBRANCH  25  30
ENDBRANCH  19  25
ENDBRANCH  18  22
ENDBRANCH   1  18
TORSDOF 8
ENDMDL
MODEL 5
REMARK VINA RESULT:      -7.5      1.039      1.169
REMARK  Name = 
REMARK  10 active torsions:
REMARK  status: ('A' for Active; 'I' for Inactive)
REMARK    1  A    between atoms: C_1  and  C_2
REMARK    2  A    between atoms: N_4  and  C_5
REMARK    3  A    between atoms: C_5  and  C_6
REMARK    4  A    between atoms: C_5  and  C_7
REMARK    5  A    between atoms: C_10  and  O_11
REMARK    6  A    between atoms: O_11  and  C_12
REMARK    7  A    between atoms: N_15  and  C_16
REMARK    8  A    between atoms: C_19  and  O_20
REMARK    9  A    between atoms: O_20  and  C_21
REMARK   10  A    between atoms: C_25  and  C_26
REMARK                            x       y       z     vdW  Elec       q    Type
REMARK                         _______ _______ _______ _____ _____    ______ ____
ROOT
ATOM      1  C   UNL     1       1.577   7.014  20.171  0.00  0.00    +0.000 C 
ATOM      2  C   UNL     1       1.680   5.578  20.626  0.00  0.00    +0.000 C 
ATOM      3  C   UNL     1       3.095   5.131  20.279  0.00  0.00    +0.000 C 
ATOM      4  N   UNL     1       3.434   5.904  19.085  0.00  0.00    +0.000 N 
ATOM      5  C   UNL     1       2.501   7.039  18.937  0.00  0.00    +0.000 C 
ENDROOT
BRANCH   4   6
ATOM      6  C   UNL     1       4.264   5.463  18.064  0.00  0.00    +0.000 A 
ATOM      7  C   UNL     1       5.505   6.103  17.833  0.00  0.00    +0.000 A 
ATOM      8  C   UNL     1       6.393   5.704  16.818  0.00  0.00    +0.000 A 
ATOM      9  C   UNL     1       6.071   4.647  15.980  0.00  0.00    +0.000 A 
ATOM     10  C   UNL     1       4.851   4.014  16.145  0.00  0.00    +0.000 A 
ATOM     11  C   UNL     1       3.978   4.383  17.194  0.00  0.00    +0.000 A 
BRANCH  11  12
ATOM     12  C   UNL     1       2.814   3.552  17.329  0.00  0.00    +0.000 C 
ATOM     13  N   UNL     1       1.884   2.873  17.477  0.00  0.00    +0.000 NA
ENDBRANCH  11  12
BRANCH   9  14
ATOM     14  O   UNL     1       6.940   4.350  14.965  0.00  0.00    +0.000 OA
BRANCH  14  15
ATOM     15  C   UNL     1       6.562   4.757  13.628  0.00  0.00    +0.000 C 
ATOM     16  C   UNL     1       7.451   4.409  12.460  0.00  0.00    +0.000 C 
ATOM     17  C   UNL     1       6.256   3.558  12.757  0.00  0.00    +0.000 C 
ENDBRANCH  14  15
ENDBRANCH   9  14
ENDBRANCH   4   6
BRANCH   1  18
ATOM     18  O   UNL     1       1.962   7.896  21.241  0.00  0.00    +0.000 OA
BRANCH  18  22
ATOM     19  C   UNL     1      -0.796  11.013  21.839  0.00  0.00    +0.000 A 
ATOM     20  C   UNL     1      -0.227  10.756  20.585  0.00  0.00    +0.000 A 
ATOM     21  C   UNL     1       0.710   9.717  20.427  0.00  0.00    +0.000 A 
ATOM     22  C   UNL     1       1.136   8.956  21.518  0.00  0.00    +0.000 A 
ATOM     23  C   UNL     1       0.651   9.279  22.783  0.00  0.00    +0.000 A 
ATOM     24  C   UNL     1      -0.322  10.267  22.936  0.00  0.00    +0.000 A 
BRANCH  19  25
ATOM     25  C   UNL     1      -1.897  12.047  22.042  0.00  0.00    +0.000 C 
ATOM     26  C   UNL     1      -2.390  12.586  20.694  0.00  0.00    +0.000 C 
BRANCH  25  30
ATOM     27  C   UNL     1      -1.468  14.926  24.485  0.00  0.00    +0.000 C 
ATOM     28  C   UNL     1      -2.201  13.833  23.753  0.00  0.00    +0.000 C 
ATOM     29  O   UNL     1      -3.384  13.586  23.948  0.00  0.00    +0.000 OA
ATOM     30  N   UNL     1      -1.401  13.140  22.876  0.00  0.00    +0.000 N 
ATOM     31  H   UNL     1      -0.446  13.445  22.751  0.00  0.00    +0.000 HD
ENDBRANCH  25  30
ENDBRANCH  19  25
ENDBRANCH  18  22
ENDBRANCH   1  18
TORSDOF 8
ENDMDL
MODEL 6
REMARK VINA RESULT:      -7.5      2.837     11.181
REMARK  Name = 
REMARK  10 active torsions:
REMARK  status: ('A' for Active; 'I' for Inactive)
REMARK    1  A    between atoms: C_1  and  C_2
REMARK    2  A    between atoms: N_4  and  C_5
REMARK    3  A    between atoms: C_5  and  C_6
REMARK    4  A    between atoms: C_5  and  C_7
REMARK    5  A    between atoms: C_10  and  O_11
REMARK    6  A    between atoms: O_11  and  C_12
REMARK    7  A    between atoms: N_15  and  C_16
REMARK    8  A    between atoms: C_19  and  O_20
REMARK    9  A    between atoms: O_20  and  C_21
REMARK   10  A    between atoms: C_25  and  C_26
REMARK                            x       y       z     vdW  Elec       q    Type
REMARK                         _______ _______ _______ _____ _____    ______ ____
ROOT
ATOM      1  C   UNL     1       0.168  10.746  18.651  0.00  0.00    +0.000 C 
ATOM      2  C   UNL     1       0.143  12.235  18.404  0.00  0.00    +0.000 C 
ATOM      3  C   UNL     1      -0.170  12.877  19.750  0.00  0.00    +0.000 C 
ATOM      4  N   UNL     1      -1.005  11.890  20.433  0.00  0.00    +0.000 N 
ATOM      5  C   UNL     1      -0.881  10.578  19.768  0.00  0.00    +0.000 C 
ENDROOT
BRANCH   4   6
ATOM      6  C   UNL     1      -2.015  12.194  21.335  0.00  0.00    +0.000 A 
ATOM      7  C   UNL     1      -3.106  13.000  20.932  0.00  0.00    +0.000 A 
ATOM      8  C   UNL     1      -4.163  13.342  21.795  0.00  0.00    +0.000 A 
ATOM      9  C   UNL     1      -4.169  12.896  23.107  0.00  0.00    +0.000 A 
ATOM     10  C   UNL     1      -3.104  12.134  23.557  0.00  0.00    +0.000 A 
ATOM     11  C   UNL     1      -2.064  11.751  22.679  0.00  0.00    +0.000 A 
BRANCH  11  12
ATOM     12  C   UNL     1      -1.100  10.849  23.245  0.00  0.00    +0.000 C 
ATOM     13  N   UNL     1      -0.322  10.099  23.669  0.00  0.00    +0.000 NA
ENDBRANCH  11  12
BRANCH   9  14
ATOM     14  O   UNL     1      -5.186  13.319  23.920  0.00  0.00    +0.000 OA
BRANCH  14  15
ATOM     15  C   UNL     1      -6.468  13.580  23.297  0.00  0.00    +0.000 C 
ATOM     16  C   UNL     1      -7.526  12.506  23.282  0.00  0.00    +0.000 C 
ATOM     17  C   UNL     1      -7.583  13.583  24.319  0.00  0.00    +0.000 C 
ENDBRANCH  14  15
ENDBRANCH   9  14
ENDBRANCH   4   6
BRANCH   1  18
ATOM     18  O   UNL     1       1.501  10.328  18.996  0.00  0.00    +0.000 OA
BRANCH  18  22
ATOM     19  C   UNL     1       2.677   6.301  18.709  0.00  0.00    +0.000 A 
ATOM     20  C   UNL     1       2.669   7.154  17.598  0.00  0.00    +0.000 A 
ATOM     21  C   UNL     1       2.248   8.491  17.727  0.00  0.00    +0.000 A 
ATOM     22  C   UNL     1       1.779   8.985  18.946  0.00  0.00    +0.000 A 
ATOM     23  C   UNL     1       1.686   8.112  20.026  0.00  0.00    +0.000 A 
ATOM     24  C   UNL     1       2.159   6.804  19.919  0.00  0.00    +0.000 A 
BRANCH  19  25
ATOM     25  C   UNL     1       3.230   4.883  18.650  0.00  0.00    +0.000 C 
ATOM     26  C   UNL     1       2.814   4.193  17.345  0.00  0.00    +0.000 C 
BRANCH  25  30
ATOM     27  C   UNL     1       2.771   2.446  21.530  0.00  0.00    +0.000 C 
ATOM     28  C   UNL     1       3.476   3.094  20.367  0.00  0.00    +0.000 C 
ATOM     29  O   UNL     1       4.588   2.746  19.991  0.00  0.00    +0.000 OA
ATOM     30  N   UNL     1       2.756   4.119  19.802  0.00  0.00    +0.000 N 
ATOM     31  H   UNL     1       1.827   4.306  20.154  0.00  0.00    +0.000 HD
ENDBRANCH  25  30
ENDBRANCH  19  25
ENDBRANCH  18  22
ENDBRANCH   1  18
TORSDOF 8
ENDMDL
MODEL 7
REMARK VINA RESULT:      -7.5      1.005      1.475
REMARK  Name = 
REMARK  10 active torsions:
REMARK  status: ('A' for Active; 'I' for Inactive)
REMARK    1  A    between atoms: C_1  and  C_2
REMARK    2  A    between atoms: N_4  and  C_5
REMARK    3  A    between atoms: C_5  and  C_6
REMARK    4  A    between atoms: C_5  and  C_7
REMARK    5  A    between atoms: C_10  and  O_11
REMARK    6  A    between atoms: O_11  and  C_12
REMARK    7  A    between atoms: N_15  and  C_16
REMARK    8  A    between atoms: C_19  and  O_20
REMARK    9  A    between atoms: O_20  and  C_21
REMARK   10  A    between atoms: C_25  and  C_26
REMARK                            x       y       z     vdW  Elec       q    Type
REMARK                         _______ _______ _______ _____ _____    ______ ____
ROOT
ATOM      1  C   UNL     1       1.520   6.565  20.181  0.00  0.00    +0.000 C 
ATOM      2  C   UNL     1       2.069   5.247  20.670  0.00  0.00    +0.000 C 
ATOM      3  C   UNL     1       3.473   5.137  20.086  0.00  0.00    +0.000 C 
ATOM      4  N   UNL     1       3.393   5.861  18.818  0.00  0.00    +0.000 N 
ATOM      5  C   UNL     1       2.185   6.710  18.797  0.00  0.00    +0.000 C 
ENDROOT
BRANCH   4   6
ATOM      6  C   UNL     1       4.125   5.551  17.680  0.00  0.00    +0.000 A 
ATOM      7  C   UNL     1       4.897   6.550  17.040  0.00  0.00    +0.000 A 
ATOM      8  C   UNL     1       5.663   6.303  15.888  0.00  0.00    +0.000 A 
ATOM      9  C   UNL     1       5.683   5.039  15.318  0.00  0.00    +0.000 A 
ATOM     10  C   UNL     1       4.915   4.038  15.888  0.00  0.00    +0.000 A 
ATOM     11  C   UNL     1       4.182   4.273  17.073  0.00  0.00    +0.000 A 
BRANCH  11  12
ATOM     12  C   UNL     1       3.544   3.111  17.627  0.00  0.00    +0.000 C 
ATOM     13  N   UNL     1       2.997   2.196  18.085  0.00  0.00    +0.000 NA
ENDBRANCH  11  12
BRANCH   9  14
ATOM     14  O   UNL     1       6.389   4.875  14.157  0.00  0.00    +0.000 OA
BRANCH  14  15
ATOM     15  C   UNL     1       6.248   3.608  13.467  0.00  0.00    +0.000 C 
ATOM     16  C   UNL     1       5.339   3.506  12.268  0.00  0.00    +0.000 C 
ATOM     17  C   UNL     1       6.811   3.683  12.065  0.00  0.00    +0.000 C 
ENDBRANCH  14  15
ENDBRANCH   9  14
ENDBRANCH   4   6
BRANCH   1  18
ATOM     18  O   UNL     1       1.836   7.607  21.123  0.00  0.00    +0.000 OA
BRANCH  18  22
ATOM     19  C   UNL     1      -0.521  11.065  21.537  0.00  0.00    +0.000 A 
ATOM     20  C   UNL     1      -0.357  10.148  22.584  0.00  0.00    +0.000 A 
ATOM     21  C   UNL     1       0.422   8.989  22.402  0.00  0.00    +0.000 A 
ATOM     22  C   UNL     1       1.003   8.697  21.166  0.00  0.00    +0.000 A 
ATOM     23  C   UNL     1       0.755   9.552  20.095  0.00  0.00    +0.000 A 
ATOM     24  C   UNL     1       0.034  10.731  20.286  0.00  0.00    +0.000 A 
BRANCH  19  25
ATOM     25  C   UNL     1      -1.256  12.388  21.714  0.00  0.00    +0.000 C 
ATOM     26  C   UNL     1      -1.302  12.788  23.194  0.00  0.00    +0.000 C 
BRANCH  25  30
ATOM     27  C   UNL     1      -4.709  12.999  20.251  0.00  0.00    +0.000 C 
ATOM     28  C   UNL     1      -3.334  13.363  20.746  0.00  0.00    +0.000 C 
ATOM     29  O   UNL     1      -2.912  14.512  20.739  0.00  0.00    +0.000 OA
ATOM     30  N   UNL     1      -2.609  12.277  21.175  0.00  0.00    +0.000 N 
ATOM     31  H   UNL     1      -3.058  11.371  21.184  0.00  0.00    +0.000 HD
ENDBRANCH  25  30
ENDBRANCH  19  25
ENDBRANCH  18  22
ENDBRANCH   1  18
TORSDOF 8
ENDMDL
MODEL 8
REMARK VINA RESULT:      -7.5      1.064      1.439
REMARK  Name = 
REMARK  10 active torsions:
REMARK  status: ('A' for Active; 'I' for Inactive)
REMARK    1  A    between atoms: C_1  and  C_2
REMARK    2  A    between atoms: N_4  and  C_5
REMARK    3  A    between atoms: C_5  and  C_6
REMARK    4  A    between atoms: C_5  and  C_7
REMARK    5  A    between atoms: C_10  and  O_11
REMARK    6  A    between atoms: O_11  and  C_12
REMARK    7  A    between atoms: N_15  and  C_16
REMARK    8  A    between atoms: C_19  and  O_20
REMARK    9  A    between atoms: O_20  and  C_21
REMARK   10  A    between atoms: C_25  and  C_26
REMARK                            x       y       z     vdW  Elec       q    Type
REMARK                         _______ _______ _______ _____ _____    ______ ____
ROOT
ATOM      1  C   UNL     1       1.620   6.288  20.095  0.00  0.00    +0.000 C 
ATOM      2  C   UNL     1       2.349   5.084  20.640  0.00  0.00    +0.000 C 
ATOM      3  C   UNL     1       3.728   5.102  19.992  0.00  0.00    +0.000 C 
ATOM      4  N   UNL     1       3.503   5.718  18.685  0.00  0.00    +0.000 N 
ATOM      5  C   UNL     1       2.200   6.412  18.672  0.00  0.00    +0.000 C 
ENDROOT
BRANCH   4   6
ATOM      6  C   UNL     1       4.217   5.418  17.533  0.00  0.00    +0.000 A 
ATOM      7  C   UNL     1       4.878   6.446  16.820  0.00  0.00    +0.000 A 
ATOM      8  C   UNL     1       5.619   6.210  15.649  0.00  0.00    +0.000 A 
ATOM      9  C   UNL     1       5.725   4.927  15.134  0.00  0.00    +0.000 A 
ATOM     10  C   UNL     1       5.066   3.893  15.777  0.00  0.00    +0.000 A 
ATOM     11  C   UNL     1       4.358   4.122  16.980  0.00  0.00    +0.000 A 
BRANCH  11  12
ATOM     12  C   UNL     1       3.841   2.938  17.608  0.00  0.00    +0.000 C 
ATOM     13  N   UNL     1       3.403   2.005  18.141  0.00  0.00    +0.000 NA
ENDBRANCH  11  12
BRANCH   9  14
ATOM     14  O   UNL     1       6.400   4.768  13.953  0.00  0.00    +0.000 OA
BRANCH  14  15
ATOM     15  C   UNL     1       6.262   3.494  13.277  0.00  0.00    +0.000 C 
ATOM     16  C   UNL     1       5.357   3.378  12.076  0.00  0.00    +0.000 C 
ATOM     17  C   UNL     1       6.830   3.555  11.875  0.00  0.00    +0.000 C 
ENDBRANCH  14  15
ENDBRANCH   9  14
ENDBRANCH   4   6
BRANCH   1  18
ATOM     18  O   UNL     1       1.846   7.425  20.948  0.00  0.00    +0.000 OA
BRANCH  18  22
ATOM     19  C   UNL     1      -0.456  10.935  20.689  0.00  0.00    +0.000 A 
ATOM     20  C   UNL     1      -0.460  10.126  21.833  0.00  0.00    +0.000 A 
ATOM     21  C   UNL     1       0.306   8.946  21.876  0.00  0.00    +0.000 A 
ATOM     22  C   UNL     1       1.044   8.524  20.768  0.00  0.00    +0.000 A 
ATOM     23  C   UNL     1       0.966   9.269  19.594  0.00  0.00    +0.000 A 
ATOM     24  C   UNL     1       0.257  10.470  19.566  0.00  0.00    +0.000 A 
BRANCH  19  25
ATOM     25  C   UNL     1      -1.174  12.277  20.631  0.00  0.00    +0.000 C 
ATOM     26  C   UNL     1      -0.755  13.063  19.383  0.00  0.00    +0.000 C 
BRANCH  25  30
ATOM     27  C   UNL     1      -1.303  14.193  23.911  0.00  0.00    +0.000 C 
ATOM     28  C   UNL     1      -1.843  13.381  22.763  0.00  0.00    +0.000 C 
ATOM     29  O   UNL     1      -3.017  13.042  22.688  0.00  0.00    +0.000 OA
ATOM     30  N   UNL     1      -0.882  13.047  21.838  0.00  0.00    +0.000 N 
ATOM     31  H   UNL     1       0.053  13.409  21.964  0.00  0.00    +0.000 HD
ENDBRANCH  25  30
ENDBRANCH  19  25
ENDBRANCH  18  22
ENDBRANCH   1  18
TORSDOF 8
ENDMDL
MODEL 9
REMARK VINA RESULT:      -7.5      2.197     11.064
REMARK  Name = 
REMARK  10 active torsions:
REMARK  status: ('A' for Active; 'I' for Inactive)
REMARK    1  A    between atoms: C_1  and  C_2
REMARK    2  A    between atoms: N_4  and  C_5
REMARK    3  A    between atoms: C_5  and  C_6
REMARK    4  A    between atoms: C_5  and  C_7
REMARK    5  A    between atoms: C_10  and  O_11
REMARK    6  A    between atoms: O_11  and  C_12
REMARK    7  A    between atoms: N_15  and  C_16
REMARK    8  A    between atoms: C_19  and  O_20
REMARK    9  A    between atoms: O_20  and  C_21
REMARK   10  A    between atoms: C_25  and  C_26
REMARK                            x       y       z     vdW  Elec       q    Type
REMARK                         _______ _______ _______ _____ _____    ______ ____
ROOT
ATOM      1  C   UNL     1       2.653   6.073  19.157  0.00  0.00    +0.000 C 
ATOM      2  C   UNL     1       2.272   6.977  18.009  0.00  0.00    +0.000 C 
ATOM      3  C   UNL     1       2.175   8.380  18.597  0.00  0.00    +0.000 C 
ATOM      4  N   UNL     1       1.746   8.163  19.977  0.00  0.00    +0.000 N 
ATOM      5  C   UNL     1       1.963   6.752  20.357  0.00  0.00    +0.000 C 
ENDROOT
BRANCH   4   6
ATOM      6  C   UNL     1       0.946   9.032  20.706  0.00  0.00    +0.000 A 
ATOM      7  C   UNL     1       0.268   8.573  21.860  0.00  0.00    +0.000 A 
ATOM      8  C   UNL     1      -0.554   9.402  22.644  0.00  0.00    +0.000 A 
ATOM      9  C   UNL     1      -0.740  10.733  22.299  0.00  0.00    +0.000 A 
ATOM     10  C   UNL     1      -0.125  11.218  21.158  0.00  0.00    +0.000 A 
ATOM     11  C   UNL     1       0.738  10.398  20.395  0.00  0.00    +0.000 A 
BRANCH  11  12
ATOM     12  C   UNL     1       1.412  11.071  19.320  0.00  0.00    +0.000 C 
ATOM     13  N   UNL     1       1.957  11.580  18.430  0.00  0.00    +0.000 NA
ENDBRANCH  11  12
BRANCH   9  14
ATOM     14  O   UNL     1      -1.607  11.472  23.058  0.00  0.00    +0.000 OA
BRANCH  14  15
ATOM     15  C   UNL     1      -1.475  12.914  23.001  0.00  0.00    +0.000 C 
ATOM     16  C   UNL     1      -2.616  13.750  22.478  0.00  0.00    +0.000 C 
ATOM     17  C   UNL     1      -2.435  13.589  23.955  0.00  0.00    +0.000 C 
ENDBRANCH  14  15
ENDBRANCH   9  14
ENDBRANCH   4   6
BRANCH   1  18
ATOM     18  O   UNL     1       4.086   5.976  19.250  0.00  0.00    +0.000 OA
BRANCH  18  22
ATOM     19  C   UNL     1       5.843   4.546  15.708  0.00  0.00    +0.000 A 
ATOM     20  C   UNL     1       4.956   3.768  16.463  0.00  0.00    +0.000 A 
ATOM     21  C   UNL     1       4.404   4.272  17.657  0.00  0.00    +0.000 A 
ATOM     22  C   UNL     1       4.765   5.530  18.144  0.00  0.00    +0.000 A 
ATOM     23  C   UNL     1       5.726   6.261  17.451  0.00  0.00    +0.000 A 
ATOM     24  C   UNL     1       6.230   5.793  16.238  0.00  0.00    +0.000 A 
BRANCH  19  25
ATOM     25  C   UNL     1       6.380   4.096  14.354  0.00  0.00    +0.000 C 
ATOM     26  C   UNL     1       7.411   5.097  13.820  0.00  0.00    +0.000 C 
BRANCH  25  30
ATOM     27  C   UNL     1       4.124   3.266  11.411  0.00  0.00    +0.000 C 
ATOM     28  C   UNL     1       5.391   3.261  12.225  0.00  0.00    +0.000 C 
ATOM     29  O   UNL     1       6.405   2.677  11.865  0.00  0.00    +0.000 OA
ATOM     30  N   UNL     1       5.276   3.950  13.409  0.00  0.00    +0.000 N 
ATOM     31  H   UNL     1       4.410   4.436  13.601  0.00  0.00    +0.000 HD
ENDBRANCH  25  30
ENDBRANCH  19  25
ENDBRANCH  18  22
ENDBRANCH   1  18
TORSDOF 8
ENDMDL
