MODEL 1
REMARK VINA RESULT:      -7.7      0.000      0.000
REMARK  Name = 
REMARK  8 active torsions:
REMARK  status: ('A' for Active; 'I' for Inactive)
REMARK    1  A    between atoms: C_1  and  C_2
REMARK    2  A    between atoms: C_2  and  N_3
REMARK    3  A    between atoms: C_2  and  C_23
REMARK    4  A    between atoms: C_4  and  C_6
REMARK    5  A    between atoms: C_6  and  N_7
REMARK    6  A    between atoms: C_13  and  N_14
REMARK    7  A    between atoms: C_26  and  O_27
REMARK    8  A    between atoms: O_27  and  C_28
REMARK                            x       y       z     vdW  Elec       q    Type
REMARK                         _______ _______ _______ _____ _____    ______ ____
ROOT
ATOM      1  N   UNL     1       5.811   5.563  16.929  0.00  0.00    +0.000 N 
ATOM      2  C   UNL     1       5.509   6.870  17.183  0.00  0.00    +0.000 C 
ATOM      3  O   UNL     1       6.277   7.532  17.892  0.00  0.00    +0.000 OA
ATOM      4  H   UNL     1       6.661   5.262  17.381  0.00  0.00    +0.000 HD
ENDROOT
BRANCH   1   6
ATOM      5  C   UNL     1       5.797   3.668  15.364  0.00  0.00    +0.000 C 
ATOM      6  C   UNL     1       4.971   4.550  16.302  0.00  0.00    +0.000 C 
BRANCH   6   7
ATOM      7  C   UNL     1       4.176   3.807  17.351  0.00  0.00    +0.000 A 
ATOM      8  C   UNL     1       2.795   3.649  17.164  0.00  0.00    +0.000 A 
ATOM      9  C   UNL     1       2.005   3.088  18.163  0.00  0.00    +0.000 A 
ATOM     10  C   UNL     1       2.582   2.655  19.354  0.00  0.00    +0.000 A 
ATOM     11  C   UNL     1       3.953   2.819  19.553  0.00  0.00    +0.000 A 
ATOM     12  C   UNL     1       4.751   3.371  18.546  0.00  0.00    +0.000 A 
BRANCH  10  13
ATOM     13  O   UNL     1       1.691   2.150  20.247  0.00  0.00    +0.000 OA
BRANCH  13  14
ATOM     14  C   UNL     1       1.717   2.604  21.588  0.00  0.00    +0.000 C 
ATOM     15  F   UNL     1       0.599   2.312  22.293  0.00  0.00    +0.000 F 
ATOM     16  F   UNL     1       2.780   2.061  22.225  0.00  0.00    +0.000 F 
ATOM     17  F   UNL     1       1.862   3.942  21.587  0.00  0.00    +0.000 F 
ENDBRANCH  13  14
ENDBRANCH  10  13
ENDBRANCH   6   7
ENDBRANCH   1   6
BRANCH   2  18
ATOM     18  C   UNL     1       4.217   7.464  16.627  0.00  0.00    +0.000 C 
BRANCH  18  19
ATOM     19  N   UNL     1       3.140   7.495  17.596  0.00  0.00    +0.000 N 
ATOM     20  N   UNL     1       3.052   6.636  18.659  0.00  0.00    +0.000 NA
ATOM     21  C   UNL     1       2.278   7.243  19.497  0.00  0.00    +0.000 A 
ATOM     22  C   UNL     1       1.905   6.707  20.809  0.00  0.00    +0.000 A 
ATOM     23  C   UNL     1       1.095   7.465  21.553  0.00  0.00    +0.000 A 
ATOM     24  C   UNL     1       0.676   8.771  21.089  0.00  0.00    +0.000 A 
ATOM     25  C   UNL     1       1.047   9.291  19.892  0.00  0.00    +0.000 A 
ATOM     26  N   UNL     1       1.833   8.462  19.103  0.00  0.00    +0.000 N 
ATOM     27  C   UNL     1       2.343   8.627  17.826  0.00  0.00    +0.000 A 
ATOM     28  O   UNL     1       2.207   9.530  17.013  0.00  0.00    +0.000 OA
BRANCH  25  29
ATOM     29  N   UNL     1       0.675  10.599  19.557  0.00  0.00    +0.000 N 
ATOM     30  C   UNL     1       1.427  11.790  19.984  0.00  0.00    +0.000 C 
ATOM     31  C   UNL     1       0.523  12.743  20.761  0.00  0.00    +0.000 C 
ATOM     32  C   UNL     1      -0.753  13.069  19.997  0.00  0.00    +0.000 C 
ATOM     33  C   UNL     1      -1.454  11.792  19.539  0.00  0.00    +0.000 C 
ATOM     34  C   UNL     1      -0.497  10.918  18.733  0.00  0.00    +0.000 C 
ENDBRANCH  25  29
ENDBRANCH  18  19
ENDBRANCH   2  18
TORSDOF 7
ENDMDL
MODEL 2
REMARK VINA RESULT:      -7.7      1.054      1.400
REMARK  Name = 
REMARK  8 active torsions:
REMARK  status: ('A' for Active; 'I' for Inactive)
REMARK    1  A    between atoms: C_1  and  C_2
REMARK    2  A    between atoms: C_2  and  N_3
REMARK    3  A    between atoms: C_2  and  C_23
REMARK    4  A    between atoms: C_4  and  C_6
REMARK    5  A    between atoms: C_6  and  N_7
REMARK    6  A    between atoms: C_13  and  N_14
REMARK    7  A    between atoms: C_26  and  O_27
REMARK    8  A    between atoms: O_27  and  C_28
REMARK                            x       y       z     vdW  Elec       q    Type
REMARK                         _______ _______ _______ _____ _____    ______ ____
ROOT
ATOM      1  N   UNL     1       5.149   5.270  15.724  0.00  0.00    +0.000 N 
ATOM      2  C   UNL     1       4.874   6.570  16.042  0.00  0.00    +0.000 C 
ATOM      3  O   UNL     1       4.596   7.359  15.132  0.00  0.00    +0.000 OA
ATOM      4  H   UNL     1       5.107   5.093  14.731  0.00  0.00    +0.000 HD
ENDROOT
BRANCH   1   6
ATOM      5  C   UNL     1       7.024   4.665  17.192  0.00  0.00    +0.000 C 
ATOM      6  C   UNL     1       5.690   4.227  16.586  0.00  0.00    +0.000 C 
BRANCH   6   7
ATOM      7  C   UNL     1       4.645   3.779  17.583  0.00  0.00    +0.000 A 
ATOM      8  C   UNL     1       5.045   3.498  18.897  0.00  0.00    +0.000 A 
ATOM      9  C   UNL     1       4.145   2.959  19.810  0.00  0.00    +0.000 A 
ATOM     10  C   UNL     1       2.826   2.713  19.436  0.00  0.00    +0.000 A 
ATOM     11  C   UNL     1       2.423   2.980  18.127  0.00  0.00    +0.000 A 
ATOM     12  C   UNL     1       3.322   3.533  17.211  0.00  0.00    +0.000 A 
BRANCH  10  13
ATOM     13  O   UNL     1       2.065   2.166  20.420  0.00  0.00    +0.000 OA
BRANCH  13  14
ATOM     14  C   UNL     1       1.420   3.013  21.354  0.00  0.00    +0.000 C 
ATOM     15  F   UNL     1       0.707   2.356  22.296  0.00  0.00    +0.000 F 
ATOM     16  F   UNL     1       2.345   3.782  21.973  0.00  0.00    +0.000 F 
ATOM     17  F   UNL     1       0.574   3.821  20.688  0.00  0.00    +0.000 F 
ENDBRANCH  13  14
ENDBRANCH  10  13
ENDBRANCH   6   7
ENDBRANCH   1   6
BRANCH   2  18
ATOM     18  C   UNL     1       4.962   7.020  17.499  0.00  0.00    +0.000 C 
BRANCH  18  19
ATOM     19  N   UNL     1       3.666   7.149  18.134  0.00  0.00    +0.000 N 
ATOM     20  N   UNL     1       3.320   6.499  19.288  0.00  0.00    +0.000 NA
ATOM     21  C   UNL     1       2.336   7.191  19.762  0.00  0.00    +0.000 A 
ATOM     22  C   UNL     1       1.641   6.882  21.015  0.00  0.00    +0.000 A 
ATOM     23  C   UNL     1       0.644   7.701  21.360  0.00  0.00    +0.000 A 
ATOM     24  C   UNL     1       0.331   8.861  20.553  0.00  0.00    +0.000 A 
ATOM     25  C   UNL     1       0.995   9.177  19.411  0.00  0.00    +0.000 A 
ATOM     26  N   UNL     1       1.982   8.277  19.031  0.00  0.00    +0.000 N 
ATOM     27  C   UNL     1       2.809   8.239  17.921  0.00  0.00    +0.000 A 
ATOM     28  O   UNL     1       2.872   8.962  16.937  0.00  0.00    +0.000 OA
BRANCH  25  29
ATOM     29  N   UNL     1       0.693  10.367  18.737  0.00  0.00    +0.000 N 
ATOM     30  C   UNL     1       1.543  11.568  18.794  0.00  0.00    +0.000 C 
ATOM     31  C   UNL     1       0.744  12.764  19.303  0.00  0.00    +0.000 C 
ATOM     32  C   UNL     1      -0.545  12.965  18.518  0.00  0.00    +0.000 C 
ATOM     33  C   UNL     1      -1.351  11.670  18.454  0.00  0.00    +0.000 C 
ATOM     34  C   UNL     1      -0.496  10.537  17.894  0.00  0.00    +0.000 C 
ENDBRANCH  25  29
ENDBRANCH  18  19
ENDBRANCH   2  18
TORSDOF 7
ENDMDL
MODEL 3
REMARK VINA RESULT:      -7.6      4.390      8.866
REMARK  Name = 
REMARK  8 active torsions:
REMARK  status: ('A' for Active; 'I' for Inactive)
REMARK    1  A    between atoms: C_1  and  C_2
REMARK    2  A    between atoms: C_2  and  N_3
REMARK    3  A    between atoms: C_2  and  C_23
REMARK    4  A    between atoms: C_4  and  C_6
REMARK    5  A    between atoms: C_6  and  N_7
REMARK    6  A    between atoms: C_13  and  N_14
REMARK    7  A    between atoms: C_26  and  O_27
REMARK    8  A    between atoms: O_27  and  C_28
REMARK                            x       y       z     vdW  Elec       q    Type
REMARK                         _______ _______ _______ _____ _____    ______ ____
ROOT
ATOM      1  N   UNL     1       0.543  10.418  18.356  0.00  0.00    +0.000 N 
ATOM      2  C   UNL     1       1.740   9.798  18.131  0.00  0.00    +0.000 C 
ATOM      3  O   UNL     1       2.506  10.273  17.284  0.00  0.00    +0.000 OA
ATOM      4  H   UNL     1       0.404  11.226  17.768  0.00  0.00    +0.000 HD
ENDROOT
BRANCH   1   6
ATOM      5  C   UNL     1      -0.336  10.156  20.635  0.00  0.00    +0.000 C 
ATOM      6  C   UNL     1      -0.586   9.938  19.142  0.00  0.00    +0.000 C 
BRANCH   6   7
ATOM      7  C   UNL     1      -1.877  10.519  18.613  0.00  0.00    +0.000 A 
ATOM      8  C   UNL     1      -2.346  11.725  19.155  0.00  0.00    +0.000 A 
ATOM      9  C   UNL     1      -3.591  12.226  18.791  0.00  0.00    +0.000 A 
ATOM     10  C   UNL     1      -4.380  11.547  17.865  0.00  0.00    +0.000 A 
ATOM     11  C   UNL     1      -3.926  10.342  17.329  0.00  0.00    +0.000 A 
ATOM     12  C   UNL     1      -2.669   9.842  17.683  0.00  0.00    +0.000 A 
BRANCH  10  13
ATOM     13  O   UNL     1      -5.578  12.139  17.621  0.00  0.00    +0.000 OA
BRANCH  13  14
ATOM     14  C   UNL     1      -6.713  11.747  18.372  0.00  0.00    +0.000 C 
ATOM     15  F   UNL     1      -7.840  12.431  18.071  0.00  0.00    +0.000 F 
ATOM     16  F   UNL     1      -6.946  10.428  18.178  0.00  0.00    +0.000 F 
ATOM     17  F   UNL     1      -6.452  11.942  19.679  0.00  0.00    +0.000 F 
ENDBRANCH  13  14
ENDBRANCH  10  13
ENDBRANCH   6   7
ENDBRANCH   1   6
BRANCH   2  18
ATOM     18  C   UNL     1       2.077   8.519  18.893  0.00  0.00    +0.000 C 
BRANCH  18  19
ATOM     19  N   UNL     1       2.671   7.497  18.056  0.00  0.00    +0.000 N 
ATOM     20  N   UNL     1       3.738   7.720  17.228  0.00  0.00    +0.000 NA
ATOM     21  C   UNL     1       4.240   6.546  17.030  0.00  0.00    +0.000 A 
ATOM     22  C   UNL     1       5.427   6.287  16.210  0.00  0.00    +0.000 A 
ATOM     23  C   UNL     1       5.815   5.013  16.110  0.00  0.00    +0.000 A 
ATOM     24  C   UNL     1       5.119   3.972  16.838  0.00  0.00    +0.000 A 
ATOM     25  C   UNL     1       4.043   4.208  17.631  0.00  0.00    +0.000 A 
ATOM     26  N   UNL     1       3.612   5.528  17.668  0.00  0.00    +0.000 N 
ATOM     27  C   UNL     1       2.537   6.122  18.307  0.00  0.00    +0.000 A 
ATOM     28  O   UNL     1       1.636   5.646  18.982  0.00  0.00    +0.000 OA
BRANCH  25  29
ATOM     29  N   UNL     1       3.484   3.161  18.374  0.00  0.00    +0.000 N 
ATOM     30  C   UNL     1       2.426   2.276  17.858  0.00  0.00    +0.000 C 
ATOM     31  C   UNL     1       1.205   2.314  18.772  0.00  0.00    +0.000 C 
ATOM     32  C   UNL     1       1.571   2.045  20.225  0.00  0.00    +0.000 C 
ATOM     33  C   UNL     1       2.707   2.959  20.679  0.00  0.00    +0.000 C 
ATOM     34  C   UNL     1       3.903   2.829  19.741  0.00  0.00    +0.000 C 
ENDBRANCH  25  29
ENDBRANCH  18  19
ENDBRANCH   2  18
TORSDOF 7
ENDMDL
MODEL 4
REMARK VINA RESULT:      -7.6      4.173      8.551
REMARK  Name = 
REMARK  8 active torsions:
REMARK  status: ('A' for Active; 'I' for Inactive)
REMARK    1  A    between atoms: C_1  and  C_2
REMARK    2  A    between atoms: C_2  and  N_3
REMARK    3  A    between atoms: C_2  and  C_23
REMARK    4  A    between atoms: C_4  and  C_6
REMARK    5  A    between atoms: C_6  and  N_7
REMARK    6  A    between atoms: C_13  and  N_14
REMARK    7  A    between atoms: C_26  and  O_27
REMARK    8  A    between atoms: O_27  and  C_28
REMARK                            x       y       z     vdW  Elec       q    Type
REMARK                         _______ _______ _______ _____ _____    ______ ____
ROOT
ATOM      1  N   UNL     1       1.308  10.563  19.148  0.00  0.00    +0.000 N 
ATOM      2  C   UNL     1       1.994  10.012  18.103  0.00  0.00    +0.000 C 
ATOM      3  O   UNL     1       2.832  10.702  17.511  0.00  0.00    +0.000 OA
ATOM      4  H   UNL     1       1.563  11.524  19.321  0.00  0.00    +0.000 HD
ENDROOT
BRANCH   1   6
ATOM      5  C   UNL     1       0.356  10.105  21.366  0.00  0.00    +0.000 C 
ATOM      6  C   UNL     1       0.154  10.021  19.853  0.00  0.00    +0.000 C 
BRANCH   6   7
ATOM      7  C   UNL     1      -1.119  10.655  19.337  0.00  0.00    +0.000 A 
ATOM      8  C   UNL     1      -1.654  11.752  20.029  0.00  0.00    +0.000 A 
ATOM      9  C   UNL     1      -2.888  12.281  19.667  0.00  0.00    +0.000 A 
ATOM     10  C   UNL     1      -3.598  11.743  18.597  0.00  0.00    +0.000 A 
ATOM     11  C   UNL     1      -3.079  10.644  17.912  0.00  0.00    +0.000 A 
ATOM     12  C   UNL     1      -1.833  10.118  18.265  0.00  0.00    +0.000 A 
BRANCH  10  13
ATOM     13  O   UNL     1      -4.796  12.343  18.371  0.00  0.00    +0.000 OA
BRANCH  13  14
ATOM     14  C   UNL     1      -5.668  11.811  17.391  0.00  0.00    +0.000 C 
ATOM     15  F   UNL     1      -6.652  12.655  17.008  0.00  0.00    +0.000 F 
ATOM     16  F   UNL     1      -4.952  11.461  16.297  0.00  0.00    +0.000 F 
ATOM     17  F   UNL     1      -6.249  10.703  17.888  0.00  0.00    +0.000 F 
ENDBRANCH  13  14
ENDBRANCH  10  13
ENDBRANCH   6   7
ENDBRANCH   1   6
BRANCH   2  18
ATOM     18  C   UNL     1       1.678   8.583  17.669  0.00  0.00    +0.000 C 
BRANCH  18  19
ATOM     19  N   UNL     1       2.361   7.582  18.463  0.00  0.00    +0.000 N 
ATOM     20  N   UNL     1       1.783   6.926  19.517  0.00  0.00    +0.000 NA
ATOM     21  C   UNL     1       2.490   5.852  19.652  0.00  0.00    +0.000 A 
ATOM     22  C   UNL     1       2.231   4.817  20.657  0.00  0.00    +0.000 A 
ATOM     23  C   UNL     1       3.059   3.769  20.659  0.00  0.00    +0.000 A 
ATOM     24  C   UNL     1       4.109   3.658  19.669  0.00  0.00    +0.000 A 
ATOM     25  C   UNL     1       4.333   4.593  18.710  0.00  0.00    +0.000 A 
ATOM     26  N   UNL     1       3.506   5.708  18.766  0.00  0.00    +0.000 N 
ATOM     27  C   UNL     1       3.478   6.865  18.005  0.00  0.00    +0.000 A 
ATOM     28  O   UNL     1       4.202   7.254  17.100  0.00  0.00    +0.000 OA
BRANCH  25  29
ATOM     29  N   UNL     1       5.309   4.367  17.732  0.00  0.00    +0.000 N 
ATOM     30  C   UNL     1       6.728   4.717  17.907  0.00  0.00    +0.000 C 
ATOM     31  C   UNL     1       7.187   5.657  16.796  0.00  0.00    +0.000 C 
ATOM     32  C   UNL     1       6.860   5.110  15.414  0.00  0.00    +0.000 C 
ATOM     33  C   UNL     1       5.388   4.717  15.318  0.00  0.00    +0.000 C 
ATOM     34  C   UNL     1       5.021   3.744  16.435  0.00  0.00    +0.000 C 
ENDBRANCH  25  29
ENDBRANCH  18  19
ENDBRANCH   2  18
TORSDOF 7
ENDMDL
MODEL 5
REMARK VINA RESULT:      -7.4      3.073      5.591
REMARK  Name = 
REMARK  8 active torsions:
REMARK  status: ('A' for Active; 'I' for Inactive)
REMARK    1  A    between atoms: C_1  and  C_2
REMARK    2  A    between atoms: C_2  and  N_3
REMARK    3  A    between atoms: C_2  and  C_23
REMARK    4  A    between atoms: C_4  and  C_6
REMARK    5  A    between atoms: C_6  and  N_7
REMARK    6  A    between atoms: C_13  and  N_14
REMARK    7  A    between atoms: C_26  and  O_27
REMARK    8  A    between atoms: O_27  and  C_28
REMARK                            x       y       z     vdW  Elec       q    Type
REMARK                         _______ _______ _______ _____ _____    ______ ____
ROOT
ATOM      1  N   UNL     1       1.794   8.558  21.282  0.00  0.00    +0.000 N 
ATOM      2  C   UNL     1       0.947   9.324  22.031  0.00  0.00    +0.000 C 
ATOM      3  O   UNL     1       1.275   9.617  23.187  0.00  0.00    +0.000 OA
ATOM      4  H   UNL     1       2.629   8.291  21.783  0.00  0.00    +0.000 HD
ENDROOT
BRANCH   1   6
ATOM      5  C   UNL     1       1.902   8.876  18.848  0.00  0.00    +0.000 C 
ATOM      6  C   UNL     1       1.538   7.930  19.992  0.00  0.00    +0.000 C 
BRANCH   6   7
ATOM      7  C   UNL     1       2.192   6.568  19.935  0.00  0.00    +0.000 A 
ATOM      8  C   UNL     1       3.102   6.300  18.902  0.00  0.00    +0.000 A 
ATOM      9  C   UNL     1       3.626   5.022  18.735  0.00  0.00    +0.000 A 
ATOM     10  C   UNL     1       3.270   3.997  19.607  0.00  0.00    +0.000 A 
ATOM     11  C   UNL     1       2.356   4.251  20.630  0.00  0.00    +0.000 A 
ATOM     12  C   UNL     1       1.837   5.537  20.808  0.00  0.00    +0.000 A 
BRANCH  10  13
ATOM     13  O   UNL     1       3.839   2.798  19.312  0.00  0.00    +0.000 OA
BRANCH  13  14
ATOM     14  C   UNL     1       3.106   1.845  18.564  0.00  0.00    +0.000 C 
ATOM     15  F   UNL     1       2.716   2.280  17.344  0.00  0.00    +0.000 F 
ATOM     16  F   UNL     1       3.854   0.729  18.404  0.00  0.00    +0.000 F 
ATOM     17  F   UNL     1       1.998   1.517  19.255  0.00  0.00    +0.000 F 
ENDBRANCH  13  14
ENDBRANCH  10  13
ENDBRANCH   6   7
ENDBRANCH   1   6
BRANCH   2  18
ATOM     18  C   UNL     1      -0.393   9.756  21.441  0.00  0.00    +0.000 C 
BRANCH  18  19
ATOM     19  N   UNL     1      -0.700  11.150  21.685  0.00  0.00    +0.000 N 
ATOM     20  N   UNL     1      -1.478  11.584  22.725  0.00  0.00    +0.000 NA
ATOM     21  C   UNL     1      -1.147  12.825  22.876  0.00  0.00    +0.000 A 
ATOM     22  C   UNL     1      -1.713  13.709  23.899  0.00  0.00    +0.000 A 
ATOM     23  C   UNL     1      -1.259  14.965  23.917  0.00  0.00    +0.000 A 
ATOM     24  C   UNL     1      -0.215  15.384  23.006  0.00  0.00    +0.000 A 
ATOM     25  C   UNL     1       0.342  14.562  22.080  0.00  0.00    +0.000 A 
ATOM     26  N   UNL     1      -0.190  13.280  22.030  0.00  0.00    +0.000 N 
ATOM     27  C   UNL     1       0.081  12.209  21.195  0.00  0.00    +0.000 A 
ATOM     28  O   UNL     1       0.833  12.102  20.237  0.00  0.00    +0.000 OA
BRANCH  25  29
ATOM     29  N   UNL     1       1.411  15.017  21.299  0.00  0.00    +0.000 N 
ATOM     30  C   UNL     1       1.238  15.658  19.984  0.00  0.00    +0.000 C 
ATOM     31  C   UNL     1       2.015  14.899  18.913  0.00  0.00    +0.000 C 
ATOM     32  C   UNL     1       3.472  14.692  19.304  0.00  0.00    +0.000 C 
ATOM     33  C   UNL     1       3.580  14.074  20.697  0.00  0.00    +0.000 C 
ATOM     34  C   UNL     1       2.815  14.916  21.714  0.00  0.00    +0.000 C 
ENDBRANCH  25  29
ENDBRANCH  18  19
ENDBRANCH   2  18
TORSDOF 7
ENDMDL
MODEL 6
REMARK VINA RESULT:      -7.4      4.205      8.815
REMARK  Name = 
REMARK  8 active torsions:
REMARK  status: ('A' for Active; 'I' for Inactive)
REMARK    1  A    between atoms: C_1  and  C_2
REMARK    2  A    between atoms: C_2  and  N_3
REMARK    3  A    between atoms: C_2  and  C_23
REMARK    4  A    between atoms: C_4  and  C_6
REMARK    5  A    between atoms: C_6  and  N_7
REMARK    6  A    between atoms: C_13  and  N_14
REMARK    7  A    between atoms: C_26  and  O_27
REMARK    8  A    between atoms: O_27  and  C_28
REMARK                            x       y       z     vdW  Elec       q    Type
REMARK                         _______ _______ _______ _____ _____    ______ ____
ROOT
ATOM      1  N   UNL     1       0.958  10.595  18.740  0.00  0.00    +0.000 N 
ATOM      2  C   UNL     1       1.889   9.732  18.234  0.00  0.00    +0.000 C 
ATOM      3  O   UNL     1       2.472  10.033  17.186  0.00  0.00    +0.000 OA
ATOM      4  H   UNL     1       0.832  11.416  18.166  0.00  0.00    +0.000 HD
ENDROOT
BRANCH   1   6
ATOM      5  C   UNL     1       0.528  10.999  21.125  0.00  0.00    +0.000 C 
ATOM      6  C   UNL     1       0.017  10.367  19.829  0.00  0.00    +0.000 C 
BRANCH   6   7
ATOM      7  C   UNL     1      -1.375  10.785  19.413  0.00  0.00    +0.000 A 
ATOM      8  C   UNL     1      -1.959  10.169  18.297  0.00  0.00    +0.000 A 
ATOM      9  C   UNL     1      -3.181  10.613  17.803  0.00  0.00    +0.000 A 
ATOM     10  C   UNL     1      -3.852  11.662  18.426  0.00  0.00    +0.000 A 
ATOM     11  C   UNL     1      -3.273  12.288  19.531  0.00  0.00    +0.000 A 
ATOM     12  C   UNL     1      -2.051  11.836  20.037  0.00  0.00    +0.000 A 
BRANCH  10  13
ATOM     13  O   UNL     1      -5.021  12.005  17.824  0.00  0.00    +0.000 OA
BRANCH  13  14
ATOM     14  C   UNL     1      -6.246  11.750  18.486  0.00  0.00    +0.000 C 
ATOM     15  F   UNL     1      -6.580  12.680  19.410  0.00  0.00    +0.000 F 
ATOM     16  F   UNL     1      -7.242  11.675  17.573  0.00  0.00    +0.000 F 
ATOM     17  F   UNL     1      -6.156  10.563  19.114  0.00  0.00    +0.000 F 
ENDBRANCH  13  14
ENDBRANCH  10  13
ENDBRANCH   6   7
ENDBRANCH   1   6
BRANCH   2  18
ATOM     18  C   UNL     1       2.150   8.408  18.948  0.00  0.00    +0.000 C 
BRANCH  18  19
ATOM     19  N   UNL     1       2.750   7.406  18.091  0.00  0.00    +0.000 N 
ATOM     20  N   UNL     1       3.824   7.650  17.277  0.00  0.00    +0.000 NA
ATOM     21  C   UNL     1       4.327   6.480  17.054  0.00  0.00    +0.000 A 
ATOM     22  C   UNL     1       5.520   6.240  16.236  0.00  0.00    +0.000 A 
ATOM     23  C   UNL     1       5.907   4.969  16.108  0.00  0.00    +0.000 A 
ATOM     24  C   UNL     1       5.205   3.911  16.803  0.00  0.00    +0.000 A 
ATOM     25  C   UNL     1       4.122   4.128  17.593  0.00  0.00    +0.000 A 
ATOM     26  N   UNL     1       3.692   5.447  17.660  0.00  0.00    +0.000 N 
ATOM     27  C   UNL     1       2.613   6.026  18.305  0.00  0.00    +0.000 A 
ATOM     28  O   UNL     1       1.705   5.534  18.961  0.00  0.00    +0.000 OA
BRANCH  25  29
ATOM     29  N   UNL     1       3.555   3.063  18.304  0.00  0.00    +0.000 N 
ATOM     30  C   UNL     1       2.454   2.236  17.784  0.00  0.00    +0.000 C 
ATOM     31  C   UNL     1       1.266   2.265  18.740  0.00  0.00    +0.000 C 
ATOM     32  C   UNL     1       1.671   1.916  20.166  0.00  0.00    +0.000 C 
ATOM     33  C   UNL     1       2.849   2.773  20.622  0.00  0.00    +0.000 C 
ATOM     34  C   UNL     1       4.009   2.653  19.638  0.00  0.00    +0.000 C 
ENDBRANCH  25  29
ENDBRANCH  18  19
ENDBRANCH   2  18
TORSDOF 7
ENDMDL
MODEL 7
REMARK VINA RESULT:      -7.3      4.576      9.177
REMARK  Name = 
REMARK  8 active torsions:
REMARK  status: ('A' for Active; 'I' for Inactive)
REMARK    1  A    between atoms: C_1  and  C_2
REMARK    2  A    between atoms: C_2  and  N_3
REMARK    3  A    between atoms: C_2  and  C_23
REMARK    4  A    between atoms: C_4  and  C_6
REMARK    5  A    between atoms: C_6  and  N_7
REMARK    6  A    between atoms: C_13  and  N_14
REMARK    7  A    between atoms: C_26  and  O_27
REMARK    8  A    between atoms: O_27  and  C_28
REMARK                            x       y       z     vdW  Elec       q    Type
REMARK                         _______ _______ _______ _____ _____    ______ ____
ROOT
ATOM      1  N   UNL     1       0.172   9.950  20.122  0.00  0.00    +0.000 N 
ATOM      2  C   UNL     1       1.024   8.918  20.394  0.00  0.00    +0.000 C 
ATOM      3  O   UNL     1       1.282   8.655  21.574  0.00  0.00    +0.000 OA
ATOM      4  H   UNL     1      -0.158  10.416  20.954  0.00  0.00    +0.000 HD
ENDROOT
BRANCH   1   6
ATOM      5  C   UNL     1      -1.610  10.474  18.513  0.00  0.00    +0.000 C 
ATOM      6  C   UNL     1      -0.117  10.563  18.832  0.00  0.00    +0.000 C 
BRANCH   6   7
ATOM      7  C   UNL     1       0.473  11.954  18.769  0.00  0.00    +0.000 A 
ATOM      8  C   UNL     1       1.811  12.137  19.148  0.00  0.00    +0.000 A 
ATOM      9  C   UNL     1       2.354  13.415  19.231  0.00  0.00    +0.000 A 
ATOM     10  C   UNL     1       1.580  14.529  18.915  0.00  0.00    +0.000 A 
ATOM     11  C   UNL     1       0.245  14.357  18.549  0.00  0.00    +0.000 A 
ATOM     12  C   UNL     1      -0.300  13.073  18.453  0.00  0.00    +0.000 A 
BRANCH  10  13
ATOM     13  O   UNL     1       2.232  15.713  19.062  0.00  0.00    +0.000 OA
BRANCH  13  14
ATOM     14  C   UNL     1       2.872  16.298  17.943  0.00  0.00    +0.000 C 
ATOM     15  F   UNL     1       4.025  16.941  18.239  0.00  0.00    +0.000 F 
ATOM     16  F   UNL     1       3.137  15.339  17.026  0.00  0.00    +0.000 F 
ATOM     17  F   UNL     1       2.035  17.194  17.388  0.00  0.00    +0.000 F 
ENDBRANCH  13  14
ENDBRANCH  10  13
ENDBRANCH   6   7
ENDBRANCH   1   6
BRANCH   2  18
ATOM     18  C   UNL     1       1.666   8.151  19.240  0.00  0.00    +0.000 C 
BRANCH  18  19
ATOM     19  N   UNL     1       2.380   6.966  19.670  0.00  0.00    +0.000 N 
ATOM     20  N   UNL     1       1.839   6.012  20.490  0.00  0.00    +0.000 NA
ATOM     21  C   UNL     1       2.556   4.959  20.270  0.00  0.00    +0.000 A 
ATOM     22  C   UNL     1       2.335   3.663  20.918  0.00  0.00    +0.000 A 
ATOM     23  C   UNL     1       3.168   2.677  20.576  0.00  0.00    +0.000 A 
ATOM     24  C   UNL     1       4.186   2.888  19.569  0.00  0.00    +0.000 A 
ATOM     25  C   UNL     1       4.373   4.074  18.935  0.00  0.00    +0.000 A 
ATOM     26  N   UNL     1       3.543   5.106  19.352  0.00  0.00    +0.000 N 
ATOM     27  C   UNL     1       3.484   6.440  18.983  0.00  0.00    +0.000 A 
ATOM     28  O   UNL     1       4.177   7.097  18.218  0.00  0.00    +0.000 OA
BRANCH  25  29
ATOM     29  N   UNL     1       5.319   4.172  17.906  0.00  0.00    +0.000 N 
ATOM     30  C   UNL     1       6.717   4.575  18.126  0.00  0.00    +0.000 C 
ATOM     31  C   UNL     1       7.062   5.792  17.273  0.00  0.00    +0.000 C 
ATOM     32  C   UNL     1       6.712   5.580  15.807  0.00  0.00    +0.000 C 
ATOM     33  C   UNL     1       5.267   5.112  15.655  0.00  0.00    +0.000 C 
ATOM     34  C   UNL     1       5.016   3.868  16.503  0.00  0.00    +0.000 C 
ENDBRANCH  25  29
ENDBRANCH  18  19
ENDBRANCH   2  18
TORSDOF 7
ENDMDL
MODEL 8
REMARK VINA RESULT:      -7.3      4.127      8.647
REMARK  Name = 
REMARK  8 active torsions:
REMARK  status: ('A' for Active; 'I' for Inactive)
REMARK    1  A    between atoms: C_1  and  C_2
REMARK    2  A    between atoms: C_2  and  N_3
REMARK    3  A    between atoms: C_2  and  C_23
REMARK    4  A    between atoms: C_4  and  C_6
REMARK    5  A    between atoms: C_6  and  N_7
REMARK    6  A    between atoms: C_13  and  N_14
REMARK    7  A    between atoms: C_26  and  O_27
REMARK    8  A    between atoms: O_27  and  C_28
REMARK                            x       y       z     vdW  Elec       q    Type
REMARK                         _______ _______ _______ _____ _____    ______ ____
ROOT
ATOM      1  N   UNL     1       1.378  10.377  19.286  0.00  0.00    +0.000 N 
ATOM      2  C   UNL     1       1.979   9.786  18.212  0.00  0.00    +0.000 C 
ATOM      3  O   UNL     1       2.792  10.442  17.550  0.00  0.00    +0.000 OA
ATOM      4  H   UNL     1       1.667  11.335  19.420  0.00  0.00    +0.000 HD
ENDROOT
BRANCH   1   6
ATOM      5  C   UNL     1       0.748   9.341  21.423  0.00  0.00    +0.000 C 
ATOM      6  C   UNL     1       0.260   9.881  20.078  0.00  0.00    +0.000 C 
BRANCH   6   7
ATOM      7  C   UNL     1      -0.828  10.928  20.162  0.00  0.00    +0.000 A 
ATOM      8  C   UNL     1      -1.079  11.542  21.397  0.00  0.00    +0.000 A 
ATOM      9  C   UNL     1      -2.154  12.412  21.549  0.00  0.00    +0.000 A 
ATOM     10  C   UNL     1      -2.981  12.703  20.466  0.00  0.00    +0.000 A 
ATOM     11  C   UNL     1      -2.744  12.087  19.236  0.00  0.00    +0.000 A 
ATOM     12  C   UNL     1      -1.658  11.222  19.078  0.00  0.00    +0.000 A 
BRANCH  10  13
ATOM     13  O   UNL     1      -4.002  13.549  20.763  0.00  0.00    +0.000 OA
BRANCH  13  14
ATOM     14  C   UNL     1      -5.170  13.040  21.381  0.00  0.00    +0.000 C 
ATOM     15  F   UNL     1      -5.030  12.782  22.701  0.00  0.00    +0.000 F 
ATOM     16  F   UNL     1      -6.183  13.922  21.220  0.00  0.00    +0.000 F 
ATOM     17  F   UNL     1      -5.511  11.888  20.773  0.00  0.00    +0.000 F 
ENDBRANCH  13  14
ENDBRANCH  10  13
ENDBRANCH   6   7
ENDBRANCH   1   6
BRANCH   2  18
ATOM     18  C   UNL     1       1.600   8.357  17.833  0.00  0.00    +0.000 C 
BRANCH  18  19
ATOM     19  N   UNL     1       2.346   7.355  18.568  0.00  0.00    +0.000 N 
ATOM     20  N   UNL     1       1.823   6.632  19.606  0.00  0.00    +0.000 NA
ATOM     21  C   UNL     1       2.579   5.586  19.679  0.00  0.00    +0.000 A 
ATOM     22  C   UNL     1       2.390   4.500  20.645  0.00  0.00    +0.000 A 
ATOM     23  C   UNL     1       3.263   3.491  20.584  0.00  0.00    +0.000 A 
ATOM     24  C   UNL     1       4.291   3.467  19.566  0.00  0.00    +0.000 A 
ATOM     25  C   UNL     1       4.450   4.450  18.643  0.00  0.00    +0.000 A 
ATOM     26  N   UNL     1       3.578   5.523  18.764  0.00  0.00    +0.000 N 
ATOM     27  C   UNL     1       3.480   6.708  18.054  0.00  0.00    +0.000 A 
ATOM     28  O   UNL     1       4.164   7.166  17.149  0.00  0.00    +0.000 OA
BRANCH  25  29
ATOM     29  N   UNL     1       5.410   4.307  17.633  0.00  0.00    +0.000 N 
ATOM     30  C   UNL     1       6.815   4.721  17.787  0.00  0.00    +0.000 C 
ATOM     31  C   UNL     1       7.199   5.721  16.701  0.00  0.00    +0.000 C 
ATOM     32  C   UNL     1       6.863   5.209  15.307  0.00  0.00    +0.000 C 
ATOM     33  C   UNL     1       5.409   4.748  15.233  0.00  0.00    +0.000 C 
ATOM     34  C   UNL     1       5.120   3.718  16.321  0.00  0.00    +0.000 C 
ENDBRANCH  25  29
ENDBRANCH  18  19
ENDBRANCH   2  18
TORSDOF 7
ENDMDL
MODEL 9
REMARK VINA RESULT:      -7.2      4.803      7.910
REMARK  Name = 
REMARK  8 active torsions:
REMARK  status: ('A' for Active; 'I' for Inactive)
REMARK    1  A    between atoms: C_1  and  C_2
REMARK    2  A    between atoms: C_2  and  N_3
REMARK    3  A    between atoms: C_2  and  C_23
REMARK    4  A    between atoms: C_4  and  C_6
REMARK    5  A    between atoms: C_6  and  N_7
REMARK    6  A    between atoms: C_13  and  N_14
REMARK    7  A    between atoms: C_26  and  O_27
REMARK    8  A    between atoms: O_27  and  C_28
REMARK                            x       y       z     vdW  Elec       q    Type
REMARK                         _______ _______ _______ _____ _____    ______ ____
ROOT
ATOM      1  N   UNL     1      -0.451  10.943  21.416  0.00  0.00    +0.000 N 
ATOM      2  C   UNL     1      -1.413  11.758  21.941  0.00  0.00    +0.000 C 
ATOM      3  O   UNL     1      -1.996  11.403  22.972  0.00  0.00    +0.000 OA
ATOM      4  H   UNL     1      -0.325  10.093  21.946  0.00  0.00    +0.000 HD
ENDROOT
BRANCH   1   6
ATOM      5  C   UNL     1       1.141  12.269  20.095  0.00  0.00    +0.000 C 
ATOM      6  C   UNL     1       0.215  11.052  20.125  0.00  0.00    +0.000 C 
BRANCH   6   7
ATOM      7  C   UNL     1       0.867   9.738  19.759  0.00  0.00    +0.000 A 
ATOM      8  C   UNL     1       1.105   8.799  20.773  0.00  0.00    +0.000 A 
ATOM      9  C   UNL     1       1.819   7.635  20.506  0.00  0.00    +0.000 A 
ATOM     10  C   UNL     1       2.286   7.377  19.219  0.00  0.00    +0.000 A 
ATOM     11  C   UNL     1       2.063   8.311  18.207  0.00  0.00    +0.000 A 
ATOM     12  C   UNL     1       1.335   9.475  18.470  0.00  0.00    +0.000 A 
BRANCH  10  13
ATOM     13  O   UNL     1       2.984   6.216  19.108  0.00  0.00    +0.000 OA
BRANCH  13  14
ATOM     14  C   UNL     1       2.301   5.022  18.775  0.00  0.00    +0.000 C 
ATOM     15  F   UNL     1       1.693   5.049  17.567  0.00  0.00    +0.000 F 
ATOM     16  F   UNL     1       3.173   3.987  18.794  0.00  0.00    +0.000 F 
ATOM     17  F   UNL     1       1.354   4.795  19.705  0.00  0.00    +0.000 F 
ENDBRANCH  13  14
ENDBRANCH  10  13
ENDBRANCH   6   7
ENDBRANCH   1   6
BRANCH   2  18
ATOM     18  C   UNL     1      -1.772  13.055  21.220  0.00  0.00    +0.000 C 
BRANCH  18  19
ATOM     19  N   UNL     1      -3.027  12.978  20.499  0.00  0.00    +0.000 N 
ATOM     20  N   UNL     1      -3.198  12.250  19.352  0.00  0.00    +0.000 NA
ATOM     21  C   UNL     1      -4.474  12.056  19.284  0.00  0.00    +0.000 A 
ATOM     22  C   UNL     1      -5.135  11.298  18.218  0.00  0.00    +0.000 A 
ATOM     23  C   UNL     1      -6.464  11.193  18.299  0.00  0.00    +0.000 A 
ATOM     24  C   UNL     1      -7.180  11.753  19.425  0.00  0.00    +0.000 A 
ATOM     25  C   UNL     1      -6.572  12.424  20.437  0.00  0.00    +0.000 A 
ATOM     26  N   UNL     1      -5.199  12.583  20.301  0.00  0.00    +0.000 N 
ATOM     27  C   UNL     1      -4.272  13.246  21.088  0.00  0.00    +0.000 A 
ATOM     28  O   UNL     1      -4.406  13.918  22.101  0.00  0.00    +0.000 OA
BRANCH  25  29
ATOM     29  N   UNL     1      -7.324  12.855  21.537  0.00  0.00    +0.000 N 
ATOM     30  C   UNL     1      -7.916  14.199  21.637  0.00  0.00    +0.000 C 
ATOM     31  C   UNL     1      -7.426  14.906  22.897  0.00  0.00    +0.000 C 
ATOM     32  C   UNL     1      -7.628  14.056  24.144  0.00  0.00    +0.000 C 
ATOM     33  C   UNL     1      -7.037  12.661  23.953  0.00  0.00    +0.000 C 
ATOM     34  C   UNL     1      -7.611  12.006  22.700  0.00  0.00    +0.000 C 
ENDBRANCH  25  29
ENDBRANCH  18  19
ENDBRANCH   2  18
TORSDOF 7
ENDMDL
