MODEL 1
REMARK VINA RESULT:      -7.9      0.000      0.000
REMARK  Name = 
REMARK  14 active torsions:
REMARK  status: ('A' for Active; 'I' for Inactive)
REMARK    1  A    between atoms: C_1  and  C_2
REMARK    2  A    between atoms: C_2  and  C_3
REMARK    3  A    between atoms: C_2  and  N_18
REMARK    4  A    between atoms: C_3  and  C_4
REMARK    5  A    between atoms: C_8  and  O_9
REMARK    6  A    between atoms: O_9  and  S_10
REMARK    7  A    between atoms: S_10  and  C_11
REMARK    8  A    between atoms: N_18  and  C_19
REMARK    9  A    between atoms: C_19  and  C_20
REMARK   10  A    between atoms: C_20  and  O_21
REMARK   11  A    between atoms: C_20  and  C_22
REMARK   12  A    between atoms: C_26  and  N_27
REMARK   13  A    between atoms: N_27  and  C_28
REMARK   14  A    between atoms: C_28  and  C_29
REMARK                            x       y       z     vdW  Elec       q    Type
REMARK                         _______ _______ _______ _____ _____    ______ ____
ROOT
ATOM      1  N   UNL     1       2.571   4.912  19.918  0.00  0.00    +0.000 NA
ATOM      2  H   UNL     1       2.199   3.963  19.963  0.00  0.00    +0.000 HD
ENDROOT
BRANCH   1   4
ATOM      3  C   UNL     1       1.671   4.599  17.653  0.00  0.00    +0.000 C 
ATOM      4  C   UNL     1       1.939   5.603  18.779  0.00  0.00    +0.000 C 
BRANCH   4   5
ATOM      5  C   UNL     1       2.674   6.864  18.265  0.00  0.00    +0.000 C 
BRANCH   5   6
ATOM      6  C   UNL     1       2.010   8.196  18.477  0.00  0.00    +0.000 A 
ATOM      7  C   UNL     1       1.904   9.244  17.582  0.00  0.00    +0.000 A 
ATOM      8  N   UNL     1       1.326  10.308  18.223  0.00  0.00    +0.000 N 
ATOM      9  C   UNL     1       1.065   9.992  19.535  0.00  0.00    +0.000 A 
ATOM     10  C   UNL     1       0.528  10.783  20.564  0.00  0.00    +0.000 A 
ATOM     11  C   UNL     1       0.392  10.182  21.821  0.00  0.00    +0.000 A 
ATOM     12  C   UNL     1       0.777   8.858  22.033  0.00  0.00    +0.000 A 
ATOM     13  C   UNL     1       1.312   8.093  20.995  0.00  0.00    +0.000 A 
ATOM     14  C   UNL     1       1.467   8.668  19.719  0.00  0.00    +0.000 A 
ATOM     15  H   UNL     1       1.158  11.217  17.814  0.00  0.00    +0.000 HD
BRANCH  10  16
ATOM     16  O   UNL     1       0.121  12.055  20.259  0.00  0.00    +0.000 OA
BRANCH  16  17
ATOM     17  S   UNL     1       1.132  13.333  20.358  0.00  0.00    +0.000 S 
ATOM     18  C   UNL     1       0.101  14.469  19.466  0.00  0.00    +0.000 C 
ATOM     19  O   UNL     1       1.212  13.805  21.725  0.00  0.00    +0.000 OA
ATOM     20  O   UNL     1       2.313  13.082  19.558  0.00  0.00    +0.000 OA
ENDBRANCH  16  17
ENDBRANCH  10  16
ENDBRANCH   5   6
ENDBRANCH   4   5
ENDBRANCH   1   4
BRANCH   1  21
ATOM     21  C   UNL     1       4.050   4.858  19.877  0.00  0.00    +0.000 C 
BRANCH  21  22
ATOM     22  C   UNL     1       4.685   3.907  18.811  0.00  0.00    +0.000 C 
BRANCH  22  23
ATOM     23  C   UNL     1       5.640   4.603  17.849  0.00  0.00    +0.000 A 
ATOM     24  C   UNL     1       5.999   4.028  16.619  0.00  0.00    +0.000 A 
ATOM     25  C   UNL     1       6.781   4.725  15.704  0.00  0.00    +0.000 A 
ATOM     26  C   UNL     1       7.223   6.011  16.005  0.00  0.00    +0.000 A 
ATOM     27  C   UNL     1       6.926   6.607  17.235  0.00  0.00    +0.000 A 
ATOM     28  C   UNL     1       6.108   5.899  18.130  0.00  0.00    +0.000 A 
BRANCH  27  29
ATOM     29  N   UNL     1       7.331   7.930  17.466  0.00  0.00    +0.000 N 
ATOM     30  H   UNL     1       7.465   8.445  16.599  0.00  0.00    +0.000 HD
BRANCH  29  31
ATOM     31  C   UNL     1       8.435   8.144  18.391  0.00  0.00    +0.000 C 
BRANCH  31  32
ATOM     32  C   UNL     1       8.705   9.622  18.520  0.00  0.00    +0.000 A 
ATOM     33  C   UNL     1       9.413  10.115  19.627  0.00  0.00    +0.000 A 
ATOM     34  C   UNL     1       9.675  11.478  19.749  0.00  0.00    +0.000 A 
ATOM     35  C   UNL     1       9.216  12.366  18.777  0.00  0.00    +0.000 A 
ATOM     36  C   UNL     1       8.491  11.889  17.683  0.00  0.00    +0.000 A 
ATOM     37  C   UNL     1       8.235  10.524  17.557  0.00  0.00    +0.000 A 
ENDBRANCH  31  32
ENDBRANCH  29  31
ENDBRANCH  27  29
ENDBRANCH  22  23
BRANCH  22  38
ATOM     38  O   UNL     1       5.394   2.836  19.445  0.00  0.00    +0.000 OA
ATOM     39  H   UNL     1       5.114   2.022  18.997  0.00  0.00    +0.000 HD
ENDBRANCH  22  38
ENDBRANCH  21  22
ENDBRANCH   1  21
TORSDOF 12
ENDMDL
MODEL 2
REMARK VINA RESULT:      -7.8      3.798      6.391
REMARK  Name = 
REMARK  14 active torsions:
REMARK  status: ('A' for Active; 'I' for Inactive)
REMARK    1  A    between atoms: C_1  and  C_2
REMARK    2  A    between atoms: C_2  and  C_3
REMARK    3  A    between atoms: C_2  and  N_18
REMARK    4  A    between atoms: C_3  and  C_4
REMARK    5  A    between atoms: C_8  and  O_9
REMARK    6  A    between atoms: O_9  and  S_10
REMARK    7  A    between atoms: S_10  and  C_11
REMARK    8  A    between atoms: N_18  and  C_19
REMARK    9  A    between atoms: C_19  and  C_20
REMARK   10  A    between atoms: C_20  and  O_21
REMARK   11  A    between atoms: C_20  and  C_22
REMARK   12  A    between atoms: C_26  and  N_27
REMARK   13  A    between atoms: N_27  and  C_28
REMARK   14  A    between atoms: C_28  and  C_29
REMARK                            x       y       z     vdW  Elec       q    Type
REMARK                         _______ _______ _______ _____ _____    ______ ____
ROOT
ATOM      1  N   UNL     1       1.843   9.643  17.390  0.00  0.00    +0.000 NA
ATOM      2  H   UNL     1       2.232  10.478  16.952  0.00  0.00    +0.000 HD
ENDROOT
BRANCH   1   4
ATOM      3  C   UNL     1      -0.557   9.797  17.896  0.00  0.00    +0.000 C 
ATOM      4  C   UNL     1       0.861  10.071  18.405  0.00  0.00    +0.000 C 
BRANCH   4   5
ATOM      5  C   UNL     1       1.019  11.520  18.924  0.00  0.00    +0.000 C 
BRANCH   5   6
ATOM      6  C   UNL     1      -0.172  12.161  19.583  0.00  0.00    +0.000 A 
ATOM      7  C   UNL     1      -0.897  13.254  19.147  0.00  0.00    +0.000 A 
ATOM      8  N   UNL     1      -1.822  13.573  20.105  0.00  0.00    +0.000 N 
ATOM      9  C   UNL     1      -1.711  12.723  21.180  0.00  0.00    +0.000 A 
ATOM     10  C   UNL     1      -2.415  12.708  22.395  0.00  0.00    +0.000 A 
ATOM     11  C   UNL     1      -2.065  11.716  23.318  0.00  0.00    +0.000 A 
ATOM     12  C   UNL     1      -1.061  10.790  23.036  0.00  0.00    +0.000 A 
ATOM     13  C   UNL     1      -0.372  10.828  21.822  0.00  0.00    +0.000 A 
ATOM     14  C   UNL     1      -0.696  11.816  20.873  0.00  0.00    +0.000 A 
ATOM     15  H   UNL     1      -2.465  14.352  20.062  0.00  0.00    +0.000 HD
BRANCH  10  16
ATOM     16  O   UNL     1      -3.426  13.616  22.570  0.00  0.00    +0.000 OA
BRANCH  16  17
ATOM     17  S   UNL     1      -4.991  13.162  22.650  0.00  0.00    +0.000 S 
ATOM     18  C   UNL     1      -5.675  14.722  22.153  0.00  0.00    +0.000 C 
ATOM     19  O   UNL     1      -5.291  12.206  21.603  0.00  0.00    +0.000 OA
ATOM     20  O   UNL     1      -5.361  12.934  24.032  0.00  0.00    +0.000 OA
ENDBRANCH  16  17
ENDBRANCH  10  16
ENDBRANCH   5   6
ENDBRANCH   4   5
ENDBRANCH   1   4
BRANCH   1  21
ATOM     21  C   UNL     1       2.944   8.796  17.900  0.00  0.00    +0.000 C 
BRANCH  21  22
ATOM     22  C   UNL     1       2.622   7.280  18.104  0.00  0.00    +0.000 C 
BRANCH  22  23
ATOM     23  C   UNL     1       3.785   6.350  17.784  0.00  0.00    +0.000 A 
ATOM     24  C   UNL     1       4.701   6.637  16.759  0.00  0.00    +0.000 A 
ATOM     25  C   UNL     1       5.819   5.837  16.553  0.00  0.00    +0.000 A 
ATOM     26  C   UNL     1       6.042   4.730  17.368  0.00  0.00    +0.000 A 
ATOM     27  C   UNL     1       5.134   4.381  18.374  0.00  0.00    +0.000 A 
ATOM     28  C   UNL     1       4.029   5.220  18.586  0.00  0.00    +0.000 A 
BRANCH  27  29
ATOM     29  N   UNL     1       5.435   3.300  19.216  0.00  0.00    +0.000 N 
ATOM     30  H   UNL     1       6.426   3.073  19.208  0.00  0.00    +0.000 HD
BRANCH  29  31
ATOM     31  C   UNL     1       4.612   2.104  19.097  0.00  0.00    +0.000 C 
BRANCH  31  32
ATOM     32  C   UNL     1       3.244   2.373  19.673  0.00  0.00    +0.000 A 
ATOM     33  C   UNL     1       2.111   2.324  18.848  0.00  0.00    +0.000 A 
ATOM     34  C   UNL     1       0.843   2.562  19.375  0.00  0.00    +0.000 A 
ATOM     35  C   UNL     1       0.695   2.870  20.727  0.00  0.00    +0.000 A 
ATOM     36  C   UNL     1       1.819   2.944  21.551  0.00  0.00    +0.000 A 
ATOM     37  C   UNL     1       3.088   2.700  21.026  0.00  0.00    +0.000 A 
ENDBRANCH  31  32
ENDBRANCH  29  31
ENDBRANCH  27  29
ENDBRANCH  22  23
BRANCH  22  38
ATOM     38  O   UNL     1       2.206   7.026  19.451  0.00  0.00    +0.000 OA
ATOM     39  H   UNL     1       2.764   6.302  19.777  0.00  0.00    +0.000 HD
ENDBRANCH  22  38
ENDBRANCH  21  22
ENDBRANCH   1  21
TORSDOF 12
ENDMDL
MODEL 3
REMARK VINA RESULT:      -7.8      4.330     10.156
REMARK  Name = 
REMARK  14 active torsions:
REMARK  status: ('A' for Active; 'I' for Inactive)
REMARK    1  A    between atoms: C_1  and  C_2
REMARK    2  A    between atoms: C_2  and  C_3
REMARK    3  A    between atoms: C_2  and  N_18
REMARK    4  A    between atoms: C_3  and  C_4
REMARK    5  A    between atoms: C_8  and  O_9
REMARK    6  A    between atoms: O_9  and  S_10
REMARK    7  A    between atoms: S_10  and  C_11
REMARK    8  A    between atoms: N_18  and  C_19
REMARK    9  A    between atoms: C_19  and  C_20
REMARK   10  A    between atoms: C_20  and  O_21
REMARK   11  A    between atoms: C_20  and  C_22
REMARK   12  A    between atoms: C_26  and  N_27
REMARK   13  A    between atoms: N_27  and  C_28
REMARK   14  A    between atoms: C_28  and  C_29
REMARK                            x       y       z     vdW  Elec       q    Type
REMARK                         _______ _______ _______ _____ _____    ______ ____
ROOT
ATOM      1  N   UNL     1       1.542  14.000  20.040  0.00  0.00    +0.000 NA
ATOM      2  H   UNL     1       2.050  14.667  19.459  0.00  0.00    +0.000 HD
ENDROOT
BRANCH   1   4
ATOM      3  C   UNL     1       2.471  12.742  18.145  0.00  0.00    +0.000 C 
ATOM      4  C   UNL     1       1.796  12.645  19.517  0.00  0.00    +0.000 C 
BRANCH   4   5
ATOM      5  C   UNL     1       0.575  11.694  19.493  0.00  0.00    +0.000 C 
BRANCH   5   6
ATOM      6  C   UNL     1       0.782  10.278  19.957  0.00  0.00    +0.000 A 
ATOM      7  C   UNL     1       0.481   9.737  21.192  0.00  0.00    +0.000 A 
ATOM      8  N   UNL     1       0.939   8.446  21.226  0.00  0.00    +0.000 N 
ATOM      9  C   UNL     1       1.558   8.127  20.041  0.00  0.00    +0.000 A 
ATOM     10  C   UNL     1       2.209   6.945  19.652  0.00  0.00    +0.000 A 
ATOM     11  C   UNL     1       2.766   6.919  18.369  0.00  0.00    +0.000 A 
ATOM     12  C   UNL     1       2.676   8.023  17.521  0.00  0.00    +0.000 A 
ATOM     13  C   UNL     1       2.027   9.190  17.932  0.00  0.00    +0.000 A 
ATOM     14  C   UNL     1       1.459   9.250  19.219  0.00  0.00    +0.000 A 
ATOM     15  H   UNL     1       0.882   7.825  22.022  0.00  0.00    +0.000 HD
BRANCH  10  16
ATOM     16  O   UNL     1       2.203   5.885  20.522  0.00  0.00    +0.000 OA
BRANCH  16  17
ATOM     17  S   UNL     1       2.405   4.348  20.013  0.00  0.00    +0.000 S 
ATOM     18  C   UNL     1       2.071   3.578  21.577  0.00  0.00    +0.000 C 
ATOM     19  O   UNL     1       1.337   3.973  19.110  0.00  0.00    +0.000 OA
ATOM     20  O   UNL     1       3.800   4.121  19.695  0.00  0.00    +0.000 OA
ENDBRANCH  16  17
ENDBRANCH  10  16
ENDBRANCH   5   6
ENDBRANCH   4   5
ENDBRANCH   1   4
BRANCH   1  21
ATOM     21  C   UNL     1       0.115  14.391  20.105  0.00  0.00    +0.000 C 
BRANCH  21  22
ATOM     22  C   UNL     1      -0.535  14.428  21.525  0.00  0.00    +0.000 C 
BRANCH  22  23
ATOM     23  C   UNL     1      -1.892  13.739  21.605  0.00  0.00    +0.000 A 
ATOM     24  C   UNL     1      -2.446  13.339  22.832  0.00  0.00    +0.000 A 
ATOM     25  C   UNL     1      -3.732  12.813  22.899  0.00  0.00    +0.000 A 
ATOM     26  C   UNL     1      -4.488  12.675  21.737  0.00  0.00    +0.000 A 
ATOM     27  C   UNL     1      -3.961  13.021  20.488  0.00  0.00    +0.000 A 
ATOM     28  C   UNL     1      -2.673  13.579  20.447  0.00  0.00    +0.000 A 
BRANCH  27  29
ATOM     29  N   UNL     1      -4.783  12.932  19.354  0.00  0.00    +0.000 N 
ATOM     30  H   UNL     1      -5.583  13.557  19.413  0.00  0.00    +0.000 HD
BRANCH  29  31
ATOM     31  C   UNL     1      -5.175  11.602  18.910  0.00  0.00    +0.000 C 
BRANCH  31  32
ATOM     32  C   UNL     1      -4.205  11.113  17.864  0.00  0.00    +0.000 A 
ATOM     33  C   UNL     1      -2.998  10.512  18.251  0.00  0.00    +0.000 A 
ATOM     34  C   UNL     1      -2.100  10.049  17.290  0.00  0.00    +0.000 A 
ATOM     35  C   UNL     1      -2.390  10.198  15.935  0.00  0.00    +0.000 A 
ATOM     36  C   UNL     1      -3.578  10.815  15.540  0.00  0.00    +0.000 A 
ATOM     37  C   UNL     1      -4.480  11.273  16.500  0.00  0.00    +0.000 A 
ENDBRANCH  31  32
ENDBRANCH  29  31
ENDBRANCH  27  29
ENDBRANCH  22  23
BRANCH  22  38
ATOM     38  O   UNL     1       0.329  13.825  22.495  0.00  0.00    +0.000 OA
ATOM     39  H   UNL     1       1.023  13.368  21.994  0.00  0.00    +0.000 HD
ENDBRANCH  22  38
ENDBRANCH  21  22
ENDBRANCH   1  21
TORSDOF 12
ENDMDL
MODEL 4
REMARK VINA RESULT:      -7.7      4.039      5.720
REMARK  Name = 
REMARK  14 active torsions:
REMARK  status: ('A' for Active; 'I' for Inactive)
REMARK    1  A    between atoms: C_1  and  C_2
REMARK    2  A    between atoms: C_2  and  C_3
REMARK    3  A    between atoms: C_2  and  N_18
REMARK    4  A    between atoms: C_3  and  C_4
REMARK    5  A    between atoms: C_8  and  O_9
REMARK    6  A    between atoms: O_9  and  S_10
REMARK    7  A    between atoms: S_10  and  C_11
REMARK    8  A    between atoms: N_18  and  C_19
REMARK    9  A    between atoms: C_19  and  C_20
REMARK   10  A    between atoms: C_20  and  O_21
REMARK   11  A    between atoms: C_20  and  C_22
REMARK   12  A    between atoms: C_26  and  N_27
REMARK   13  A    between atoms: N_27  and  C_28
REMARK   14  A    between atoms: C_28  and  C_29
REMARK                            x       y       z     vdW  Elec       q    Type
REMARK                         _______ _______ _______ _____ _____    ______ ____
ROOT
ATOM      1  N   UNL     1       1.883   8.325  21.118  0.00  0.00    +0.000 NA
ATOM      2  H   UNL     1       1.691   7.842  21.996  0.00  0.00    +0.000 HD
ENDROOT
BRANCH   1   4
ATOM      3  C   UNL     1      -0.302   9.151  21.883  0.00  0.00    +0.000 C 
ATOM      4  C   UNL     1       0.896   9.410  20.963  0.00  0.00    +0.000 C 
BRANCH   4   5
ATOM      5  C   UNL     1       0.454   9.713  19.511  0.00  0.00    +0.000 C 
BRANCH   5   6
ATOM      6  C   UNL     1      -0.786  10.542  19.316  0.00  0.00    +0.000 A 
ATOM      7  C   UNL     1      -1.370  11.419  20.209  0.00  0.00    +0.000 A 
ATOM      8  N   UNL     1      -2.546  11.871  19.671  0.00  0.00    +0.000 N 
ATOM      9  C   UNL     1      -2.764  11.292  18.443  0.00  0.00    +0.000 A 
ATOM     10  C   UNL     1      -3.851  11.423  17.564  0.00  0.00    +0.000 A 
ATOM     11  C   UNL     1      -3.798  10.687  16.375  0.00  0.00    +0.000 A 
ATOM     12  C   UNL     1      -2.712   9.860  16.086  0.00  0.00    +0.000 A 
ATOM     13  C   UNL     1      -1.644   9.743  16.979  0.00  0.00    +0.000 A 
ATOM     14  C   UNL     1      -1.668  10.468  18.186  0.00  0.00    +0.000 A 
ATOM     15  H   UNL     1      -3.194  12.500  20.125  0.00  0.00    +0.000 HD
BRANCH  10  16
ATOM     16  O   UNL     1      -4.851  12.300  17.895  0.00  0.00    +0.000 OA
BRANCH  16  17
ATOM     17  S   UNL     1      -6.118  11.855  18.822  0.00  0.00    +0.000 S 
ATOM     18  C   UNL     1      -7.187  13.190  18.348  0.00  0.00    +0.000 C 
ATOM     19  O   UNL     1      -6.705  10.631  18.317  0.00  0.00    +0.000 OA
ATOM     20  O   UNL     1      -5.782  12.030  20.221  0.00  0.00    +0.000 OA
ENDBRANCH  16  17
ENDBRANCH  10  16
ENDBRANCH   5   6
ENDBRANCH   4   5
ENDBRANCH   1   4
BRANCH   1  21
ATOM     21  C   UNL     1       1.915   7.342  20.012  0.00  0.00    +0.000 C 
BRANCH  21  22
ATOM     22  C   UNL     1       1.686   5.846  20.400  0.00  0.00    +0.000 C 
BRANCH  22  23
ATOM     23  C   UNL     1       2.381   4.852  19.477  0.00  0.00    +0.000 A 
ATOM     24  C   UNL     1       1.709   4.246  18.404  0.00  0.00    +0.000 A 
ATOM     25  C   UNL     1       2.386   3.428  17.505  0.00  0.00    +0.000 A 
ATOM     26  C   UNL     1       3.750   3.198  17.667  0.00  0.00    +0.000 A 
ATOM     27  C   UNL     1       4.451   3.746  18.747  0.00  0.00    +0.000 A 
ATOM     28  C   UNL     1       3.756   4.594  19.622  0.00  0.00    +0.000 A 
BRANCH  27  29
ATOM     29  N   UNL     1       5.837   3.546  18.829  0.00  0.00    +0.000 N 
ATOM     30  H   UNL     1       6.123   3.221  19.750  0.00  0.00    +0.000 HD
BRANCH  29  31
ATOM     31  C   UNL     1       6.702   4.616  18.349  0.00  0.00    +0.000 C 
BRANCH  31  32
ATOM     32  C   UNL     1       6.288   5.009  16.953  0.00  0.00    +0.000 A 
ATOM     33  C   UNL     1       5.569   6.194  16.740  0.00  0.00    +0.000 A 
ATOM     34  C   UNL     1       5.192   6.570  15.452  0.00  0.00    +0.000 A 
ATOM     35  C   UNL     1       5.513   5.757  14.366  0.00  0.00    +0.000 A 
ATOM     36  C   UNL     1       6.209   4.564  14.570  0.00  0.00    +0.000 A 
ATOM     37  C   UNL     1       6.592   4.191  15.857  0.00  0.00    +0.000 A 
ENDBRANCH  31  32
ENDBRANCH  29  31
ENDBRANCH  27  29
ENDBRANCH  22  23
BRANCH  22  38
ATOM     38  O   UNL     1       2.129   5.595  21.739  0.00  0.00    +0.000 OA
ATOM     39  H   UNL     1       2.514   6.427  22.059  0.00  0.00    +0.000 HD
ENDBRANCH  22  38
ENDBRANCH  21  22
ENDBRANCH   1  21
TORSDOF 12
ENDMDL
MODEL 5
REMARK VINA RESULT:      -7.7      4.115     10.180
REMARK  Name = 
REMARK  14 active torsions:
REMARK  status: ('A' for Active; 'I' for Inactive)
REMARK    1  A    between atoms: C_1  and  C_2
REMARK    2  A    between atoms: C_2  and  C_3
REMARK    3  A    between atoms: C_2  and  N_18
REMARK    4  A    between atoms: C_3  and  C_4
REMARK    5  A    between atoms: C_8  and  O_9
REMARK    6  A    between atoms: O_9  and  S_10
REMARK    7  A    between atoms: S_10  and  C_11
REMARK    8  A    between atoms: N_18  and  C_19
REMARK    9  A    between atoms: C_19  and  C_20
REMARK   10  A    between atoms: C_20  and  O_21
REMARK   11  A    between atoms: C_20  and  C_22
REMARK   12  A    between atoms: C_26  and  N_27
REMARK   13  A    between atoms: N_27  and  C_28
REMARK   14  A    between atoms: C_28  and  C_29
REMARK                            x       y       z     vdW  Elec       q    Type
REMARK                         _______ _______ _______ _____ _____    ______ ____
ROOT
ATOM      1  N   UNL     1       0.496  11.179  21.619  0.00  0.00    +0.000 NA
ATOM      2  H   UNL     1       1.303  11.044  22.227  0.00  0.00    +0.000 HD
ENDROOT
BRANCH   1   4
ATOM      3  C   UNL     1      -0.759  10.143  19.778  0.00  0.00    +0.000 C 
ATOM      4  C   UNL     1       0.584  10.208  20.513  0.00  0.00    +0.000 C 
BRANCH   4   5
ATOM      5  C   UNL     1       1.104   8.801  20.893  0.00  0.00    +0.000 C 
BRANCH   5   6
ATOM      6  C   UNL     1       1.849   8.023  19.843  0.00  0.00    +0.000 A 
ATOM      7  C   UNL     1       2.294   8.468  18.613  0.00  0.00    +0.000 A 
ATOM      8  N   UNL     1       2.818   7.404  17.928  0.00  0.00    +0.000 N 
ATOM      9  C   UNL     1       2.711   6.255  18.674  0.00  0.00    +0.000 A 
ATOM     10  C   UNL     1       3.068   4.934  18.355  0.00  0.00    +0.000 A 
ATOM     11  C   UNL     1       2.819   3.958  19.326  0.00  0.00    +0.000 A 
ATOM     12  C   UNL     1       2.240   4.289  20.551  0.00  0.00    +0.000 A 
ATOM     13  C   UNL     1       1.890   5.608  20.843  0.00  0.00    +0.000 A 
ATOM     14  C   UNL     1       2.122   6.615  19.887  0.00  0.00    +0.000 A 
ATOM     15  H   UNL     1       3.187   7.438  16.988  0.00  0.00    +0.000 HD
BRANCH  10  16
ATOM     16  O   UNL     1       3.685   4.702  17.153  0.00  0.00    +0.000 OA
BRANCH  16  17
ATOM     17  S   UNL     1       5.190   5.246  16.835  0.00  0.00    +0.000 S 
ATOM     18  C   UNL     1       5.611   3.985  15.660  0.00  0.00    +0.000 C 
ATOM     19  O   UNL     1       5.130   6.503  16.117  0.00  0.00    +0.000 OA
ATOM     20  O   UNL     1       6.029   5.064  18.002  0.00  0.00    +0.000 OA
ENDBRANCH  16  17
ENDBRANCH  10  16
ENDBRANCH   5   6
ENDBRANCH   4   5
ENDBRANCH   1   4
BRANCH   1  21
ATOM     21  C   UNL     1       0.423  12.598  21.205  0.00  0.00    +0.000 C 
BRANCH  21  22
ATOM     22  C   UNL     1      -0.577  13.506  21.992  0.00  0.00    +0.000 C 
BRANCH  22  23
ATOM     23  C   UNL     1      -2.041  13.129  21.798  0.00  0.00    +0.000 A 
ATOM     24  C   UNL     1      -2.901  12.921  22.888  0.00  0.00    +0.000 A 
ATOM     25  C   UNL     1      -4.258  12.688  22.695  0.00  0.00    +0.000 A 
ATOM     26  C   UNL     1      -4.782  12.656  21.405  0.00  0.00    +0.000 A 
ATOM     27  C   UNL     1      -3.955  12.816  20.287  0.00  0.00    +0.000 A 
ATOM     28  C   UNL     1      -2.594  13.082  20.506  0.00  0.00    +0.000 A 
BRANCH  27  29
ATOM     29  N   UNL     1      -4.536  12.848  19.011  0.00  0.00    +0.000 N 
ATOM     30  H   UNL     1      -5.145  13.654  18.887  0.00  0.00    +0.000 HD
BRANCH  29  31
ATOM     31  C   UNL     1      -5.163  11.626  18.526  0.00  0.00    +0.000 C 
BRANCH  31  32
ATOM     32  C   UNL     1      -4.309  11.017  17.442  0.00  0.00    +0.000 A 
ATOM     33  C   UNL     1      -4.457  11.434  16.111  0.00  0.00    +0.000 A 
ATOM     34  C   UNL     1      -3.665  10.883  15.106  0.00  0.00    +0.000 A 
ATOM     35  C   UNL     1      -2.730   9.897  15.416  0.00  0.00    +0.000 A 
ATOM     36  C   UNL     1      -2.590   9.458  16.734  0.00  0.00    +0.000 A 
ATOM     37  C   UNL     1      -3.378  10.014  17.742  0.00  0.00    +0.000 A 
ENDBRANCH  31  32
ENDBRANCH  29  31
ENDBRANCH  27  29
ENDBRANCH  22  23
BRANCH  22  38
ATOM     38  O   UNL     1      -0.292  13.477  23.395  0.00  0.00    +0.000 OA
ATOM     39  H   UNL     1      -1.054  13.052  23.819  0.00  0.00    +0.000 HD
ENDBRANCH  22  38
ENDBRANCH  21  22
ENDBRANCH   1  21
TORSDOF 12
ENDMDL
MODEL 6
REMARK VINA RESULT:      -7.7      3.716      5.767
REMARK  Name = 
REMARK  14 active torsions:
REMARK  status: ('A' for Active; 'I' for Inactive)
REMARK    1  A    between atoms: C_1  and  C_2
REMARK    2  A    between atoms: C_2  and  C_3
REMARK    3  A    between atoms: C_2  and  N_18
REMARK    4  A    between atoms: C_3  and  C_4
REMARK    5  A    between atoms: C_8  and  O_9
REMARK    6  A    between atoms: O_9  and  S_10
REMARK    7  A    between atoms: S_10  and  C_11
REMARK    8  A    between atoms: N_18  and  C_19
REMARK    9  A    between atoms: C_19  and  C_20
REMARK   10  A    between atoms: C_20  and  O_21
REMARK   11  A    between atoms: C_20  and  C_22
REMARK   12  A    between atoms: C_26  and  N_27
REMARK   13  A    between atoms: N_27  and  C_28
REMARK   14  A    between atoms: C_28  and  C_29
REMARK                            x       y       z     vdW  Elec       q    Type
REMARK                         _______ _______ _______ _____ _____    ______ ____
ROOT
ATOM      1  N   UNL     1       2.407   8.935  18.371  0.00  0.00    +0.000 NA
ATOM      2  H   UNL     1       2.905   9.044  19.254  0.00  0.00    +0.000 HD
ENDROOT
BRANCH   1   4
ATOM      3  C   UNL     1       2.013  11.354  18.190  0.00  0.00    +0.000 C 
ATOM      4  C   UNL     1       1.361   9.972  18.300  0.00  0.00    +0.000 C 
BRANCH   4   5
ATOM      5  C   UNL     1       0.291   9.925  19.417  0.00  0.00    +0.000 C 
BRANCH   5   6
ATOM      6  C   UNL     1      -0.951  10.753  19.232  0.00  0.00    +0.000 A 
ATOM      7  C   UNL     1      -1.487  11.685  20.101  0.00  0.00    +0.000 A 
ATOM      8  N   UNL     1      -2.683  12.116  19.592  0.00  0.00    +0.000 N 
ATOM      9  C   UNL     1      -2.961  11.472  18.410  0.00  0.00    +0.000 A 
ATOM     10  C   UNL     1      -4.087  11.564  17.575  0.00  0.00    +0.000 A 
ATOM     11  C   UNL     1      -4.093  10.761  16.429  0.00  0.00    +0.000 A 
ATOM     12  C   UNL     1      -3.028   9.910  16.137  0.00  0.00    +0.000 A 
ATOM     13  C   UNL     1      -1.921   9.833  16.985  0.00  0.00    +0.000 A 
ATOM     14  C   UNL     1      -1.884  10.624  18.150  0.00  0.00    +0.000 A 
ATOM     15  H   UNL     1      -3.306  12.775  20.039  0.00  0.00    +0.000 HD
BRANCH  10  16
ATOM     16  O   UNL     1      -5.065  12.467  17.902  0.00  0.00    +0.000 OA
BRANCH  16  17
ATOM     17  S   UNL     1      -6.151  12.174  19.083  0.00  0.00    +0.000 S 
ATOM     18  C   UNL     1      -6.543  10.517  18.584  0.00  0.00    +0.000 C 
ATOM     19  O   UNL     1      -5.487  12.092  20.368  0.00  0.00    +0.000 OA
ATOM     20  O   UNL     1      -7.329  12.991  18.875  0.00  0.00    +0.000 OA
ENDBRANCH  16  17
ENDBRANCH  10  16
ENDBRANCH   5   6
ENDBRANCH   4   5
ENDBRANCH   1   4
BRANCH   1  21
ATOM     21  C   UNL     1       1.920   7.543  18.249  0.00  0.00    +0.000 C 
BRANCH  21  22
ATOM     22  C   UNL     1       1.932   6.682  19.554  0.00  0.00    +0.000 C 
BRANCH  22  23
ATOM     23  C   UNL     1       2.847   5.465  19.486  0.00  0.00    +0.000 A 
ATOM     24  C   UNL     1       2.343   4.173  19.265  0.00  0.00    +0.000 A 
ATOM     25  C   UNL     1       3.199   3.090  19.095  0.00  0.00    +0.000 A 
ATOM     26  C   UNL     1       4.578   3.279  19.146  0.00  0.00    +0.000 A 
ATOM     27  C   UNL     1       5.124   4.541  19.407  0.00  0.00    +0.000 A 
ATOM     28  C   UNL     1       4.243   5.626  19.543  0.00  0.00    +0.000 A 
BRANCH  27  29
ATOM     29  N   UNL     1       6.518   4.698  19.379  0.00  0.00    +0.000 N 
ATOM     30  H   UNL     1       6.915   4.755  20.313  0.00  0.00    +0.000 HD
BRANCH  29  31
ATOM     31  C   UNL     1       7.062   5.727  18.503  0.00  0.00    +0.000 C 
BRANCH  31  32
ATOM     32  C   UNL     1       6.617   5.469  17.085  0.00  0.00    +0.000 A 
ATOM     33  C   UNL     1       5.676   6.314  16.478  0.00  0.00    +0.000 A 
ATOM     34  C   UNL     1       5.268   6.088  15.165  0.00  0.00    +0.000 A 
ATOM     35  C   UNL     1       5.780   5.006  14.451  0.00  0.00    +0.000 A 
ATOM     36  C   UNL     1       6.700   4.146  15.054  0.00  0.00    +0.000 A 
ATOM     37  C   UNL     1       7.114   4.375  16.366  0.00  0.00    +0.000 A 
ENDBRANCH  31  32
ENDBRANCH  29  31
ENDBRANCH  27  29
ENDBRANCH  22  23
BRANCH  22  38
ATOM     38  O   UNL     1       2.327   7.474  20.681  0.00  0.00    +0.000 OA
ATOM     39  H   UNL     1       1.725   7.237  21.404  0.00  0.00    +0.000 HD
ENDBRANCH  22  38
ENDBRANCH  21  22
ENDBRANCH   1  21
TORSDOF 12
ENDMDL
MODEL 7
REMARK VINA RESULT:      -7.6      3.934      6.506
REMARK  Name = 
REMARK  14 active torsions:
REMARK  status: ('A' for Active; 'I' for Inactive)
REMARK    1  A    between atoms: C_1  and  C_2
REMARK    2  A    between atoms: C_2  and  C_3
REMARK    3  A    between atoms: C_2  and  N_18
REMARK    4  A    between atoms: C_3  and  C_4
REMARK    5  A    between atoms: C_8  and  O_9
REMARK    6  A    between atoms: O_9  and  S_10
REMARK    7  A    between atoms: S_10  and  C_11
REMARK    8  A    between atoms: N_18  and  C_19
REMARK    9  A    between atoms: C_19  and  C_20
REMARK   10  A    between atoms: C_20  and  O_21
REMARK   11  A    between atoms: C_20  and  C_22
REMARK   12  A    between atoms: C_26  and  N_27
REMARK   13  A    between atoms: N_27  and  C_28
REMARK   14  A    between atoms: C_28  and  C_29
REMARK                            x       y       z     vdW  Elec       q    Type
REMARK                         _______ _______ _______ _____ _____    ______ ____
ROOT
ATOM      1  N   UNL     1       1.858   9.665  17.401  0.00  0.00    +0.000 NA
ATOM      2  H   UNL     1       2.394  10.130  16.668  0.00  0.00    +0.000 HD
ENDROOT
BRANCH   1   4
ATOM      3  C   UNL     1       1.797  11.751  18.700  0.00  0.00    +0.000 C 
ATOM      4  C   UNL     1       0.963  10.661  18.019  0.00  0.00    +0.000 C 
BRANCH   4   5
ATOM      5  C   UNL     1      -0.125  10.093  18.962  0.00  0.00    +0.000 C 
BRANCH   5   6
ATOM      6  C   UNL     1      -1.237  11.015  19.384  0.00  0.00    +0.000 A 
ATOM      7  C   UNL     1      -2.156  11.659  18.578  0.00  0.00    +0.000 A 
ATOM      8  N   UNL     1      -2.914  12.490  19.360  0.00  0.00    +0.000 N 
ATOM      9  C   UNL     1      -2.502  12.423  20.670  0.00  0.00    +0.000 A 
ATOM     10  C   UNL     1      -2.955  13.128  21.796  0.00  0.00    +0.000 A 
ATOM     11  C   UNL     1      -2.322  12.854  23.013  0.00  0.00    +0.000 A 
ATOM     12  C   UNL     1      -1.286  11.923  23.095  0.00  0.00    +0.000 A 
ATOM     13  C   UNL     1      -0.849  11.238  21.960  0.00  0.00    +0.000 A 
ATOM     14  C   UNL     1      -1.462  11.492  20.718  0.00  0.00    +0.000 A 
ATOM     15  H   UNL     1      -3.642  13.106  19.025  0.00  0.00    +0.000 HD
BRANCH  10  16
ATOM     16  O   UNL     1      -4.016  13.982  21.642  0.00  0.00    +0.000 OA
BRANCH  16  17
ATOM     17  S   UNL     1      -5.545  13.438  21.473  0.00  0.00    +0.000 S 
ATOM     18  C   UNL     1      -6.342  14.895  22.098  0.00  0.00    +0.000 C 
ATOM     19  O   UNL     1      -5.887  13.328  20.070  0.00  0.00    +0.000 OA
ATOM     20  O   UNL     1      -5.786  12.362  22.412  0.00  0.00    +0.000 OA
ENDBRANCH  16  17
ENDBRANCH  10  16
ENDBRANCH   5   6
ENDBRANCH   4   5
ENDBRANCH   1   4
BRANCH   1  21
ATOM     21  C   UNL     1       2.786   8.990  18.336  0.00  0.00    +0.000 C 
BRANCH  21  22
ATOM     22  C   UNL     1       2.468   7.499  18.680  0.00  0.00    +0.000 C 
BRANCH  22  23
ATOM     23  C   UNL     1       3.509   6.509  18.173  0.00  0.00    +0.000 A 
ATOM     24  C   UNL     1       4.197   6.713  16.966  0.00  0.00    +0.000 A 
ATOM     25  C   UNL     1       5.222   5.860  16.573  0.00  0.00    +0.000 A 
ATOM     26  C   UNL     1       5.577   4.781  17.380  0.00  0.00    +0.000 A 
ATOM     27  C   UNL     1       4.891   4.514  18.570  0.00  0.00    +0.000 A 
ATOM     28  C   UNL     1       3.881   5.407  18.964  0.00  0.00    +0.000 A 
BRANCH  27  29
ATOM     29  N   UNL     1       5.329   3.461  19.386  0.00  0.00    +0.000 N 
ATOM     30  H   UNL     1       6.333   3.313  19.314  0.00  0.00    +0.000 HD
BRANCH  29  31
ATOM     31  C   UNL     1       4.598   2.203  19.312  0.00  0.00    +0.000 C 
BRANCH  31  32
ATOM     32  C   UNL     1       3.139   2.451  19.604  0.00  0.00    +0.000 A 
ATOM     33  C   UNL     1       2.732   2.824  20.893  0.00  0.00    +0.000 A 
ATOM     34  C   UNL     1       1.387   3.064  21.168  0.00  0.00    +0.000 A 
ATOM     35  C   UNL     1       0.432   2.915  20.164  0.00  0.00    +0.000 A 
ATOM     36  C   UNL     1       0.824   2.522  18.882  0.00  0.00    +0.000 A 
ATOM     37  C   UNL     1       2.170   2.288  18.605  0.00  0.00    +0.000 A 
ENDBRANCH  31  32
ENDBRANCH  29  31
ENDBRANCH  27  29
ENDBRANCH  22  23
BRANCH  22  38
ATOM     38  O   UNL     1       2.337   7.322  20.096  0.00  0.00    +0.000 OA
ATOM     39  H   UNL     1       2.740   8.103  20.506  0.00  0.00    +0.000 HD
ENDBRANCH  22  38
ENDBRANCH  21  22
ENDBRANCH   1  21
TORSDOF 12
ENDMDL
MODEL 8
REMARK VINA RESULT:      -7.6      3.827      6.601
REMARK  Name = 
REMARK  14 active torsions:
REMARK  status: ('A' for Active; 'I' for Inactive)
REMARK    1  A    between atoms: C_1  and  C_2
REMARK    2  A    between atoms: C_2  and  C_3
REMARK    3  A    between atoms: C_2  and  N_18
REMARK    4  A    between atoms: C_3  and  C_4
REMARK    5  A    between atoms: C_8  and  O_9
REMARK    6  A    between atoms: O_9  and  S_10
REMARK    7  A    between atoms: S_10  and  C_11
REMARK    8  A    between atoms: N_18  and  C_19
REMARK    9  A    between atoms: C_19  and  C_20
REMARK   10  A    between atoms: C_20  and  O_21
REMARK   11  A    between atoms: C_20  and  C_22
REMARK   12  A    between atoms: C_26  and  N_27
REMARK   13  A    between atoms: N_27  and  C_28
REMARK   14  A    between atoms: C_28  and  C_29
REMARK                            x       y       z     vdW  Elec       q    Type
REMARK                         _______ _______ _______ _____ _____    ______ ____
ROOT
ATOM      1  N   UNL     1       1.423   9.695  17.518  0.00  0.00    +0.000 NA
ATOM      2  H   UNL     1       1.683  10.566  17.057  0.00  0.00    +0.000 HD
ENDROOT
BRANCH   1   4
ATOM      3  C   UNL     1      -0.888  10.234  18.154  0.00  0.00    +0.000 C 
ATOM      4  C   UNL     1       0.543  10.019  18.656  0.00  0.00    +0.000 C 
BRANCH   4   5
ATOM      5  C   UNL     1       1.017  11.181  19.563  0.00  0.00    +0.000 C 
BRANCH   5   6
ATOM      6  C   UNL     1       0.114  11.603  20.689  0.00  0.00    +0.000 A 
ATOM      7  C   UNL     1      -0.328  10.841  21.754  0.00  0.00    +0.000 A 
ATOM      8  N   UNL     1      -1.224  11.582  22.478  0.00  0.00    +0.000 N 
ATOM      9  C   UNL     1      -1.400  12.817  21.901  0.00  0.00    +0.000 A 
ATOM     10  C   UNL     1      -2.250  13.873  22.270  0.00  0.00    +0.000 A 
ATOM     11  C   UNL     1      -2.222  15.020  21.468  0.00  0.00    +0.000 A 
ATOM     12  C   UNL     1      -1.387  15.101  20.354  0.00  0.00    +0.000 A 
ATOM     13  C   UNL     1      -0.554  14.036  20.004  0.00  0.00    +0.000 A 
ATOM     14  C   UNL     1      -0.561  12.866  20.787  0.00  0.00    +0.000 A 
ATOM     15  H   UNL     1      -1.728  11.259  23.292  0.00  0.00    +0.000 HD
BRANCH  10  16
ATOM     16  O   UNL     1      -2.996  13.736  23.412  0.00  0.00    +0.000 OA
BRANCH  16  17
ATOM     17  S   UNL     1      -4.568  13.301  23.369  0.00  0.00    +0.000 S 
ATOM     18  C   UNL     1      -4.550  12.350  24.867  0.00  0.00    +0.000 C 
ATOM     19  O   UNL     1      -5.415  14.454  23.600  0.00  0.00    +0.000 OA
ATOM     20  O   UNL     1      -4.791  12.389  22.266  0.00  0.00    +0.000 OA
ENDBRANCH  16  17
ENDBRANCH  10  16
ENDBRANCH   5   6
ENDBRANCH   4   5
ENDBRANCH   1   4
BRANCH   1  21
ATOM     21  C   UNL     1       2.647   8.938  17.867  0.00  0.00    +0.000 C 
BRANCH  21  22
ATOM     22  C   UNL     1       2.460   7.423  18.201  0.00  0.00    +0.000 C 
BRANCH  22  23
ATOM     23  C   UNL     1       3.493   6.512  17.550  0.00  0.00    +0.000 A 
ATOM     24  C   UNL     1       4.490   7.015  16.699  0.00  0.00    +0.000 A 
ATOM     25  C   UNL     1       5.492   6.188  16.202  0.00  0.00    +0.000 A 
ATOM     26  C   UNL     1       5.512   4.838  16.545  0.00  0.00    +0.000 A 
ATOM     27  C   UNL     1       4.514   4.284  17.355  0.00  0.00    +0.000 A 
ATOM     28  C   UNL     1       3.532   5.143  17.872  0.00  0.00    +0.000 A 
BRANCH  27  29
ATOM     29  N   UNL     1       4.615   2.937  17.732  0.00  0.00    +0.000 N 
ATOM     30  H   UNL     1       5.340   2.447  17.213  0.00  0.00    +0.000 HD
BRANCH  29  31
ATOM     31  C   UNL     1       3.384   2.161  17.791  0.00  0.00    +0.000 C 
BRANCH  31  32
ATOM     32  C   UNL     1       2.658   2.465  19.078  0.00  0.00    +0.000 A 
ATOM     33  C   UNL     1       3.341   2.410  20.302  0.00  0.00    +0.000 A 
ATOM     34  C   UNL     1       2.680   2.699  21.494  0.00  0.00    +0.000 A 
ATOM     35  C   UNL     1       1.325   3.027  21.479  0.00  0.00    +0.000 A 
ATOM     36  C   UNL     1       0.630   3.061  20.268  0.00  0.00    +0.000 A 
ATOM     37  C   UNL     1       1.293   2.779  19.074  0.00  0.00    +0.000 A 
ENDBRANCH  31  32
ENDBRANCH  29  31
ENDBRANCH  27  29
ENDBRANCH  22  23
BRANCH  22  38
ATOM     38  O   UNL     1       2.504   7.206  19.617  0.00  0.00    +0.000 OA
ATOM     39  H   UNL     1       1.803   6.566  19.816  0.00  0.00    +0.000 HD
ENDBRANCH  22  38
ENDBRANCH  21  22
ENDBRANCH   1  21
TORSDOF 12
ENDMDL
MODEL 9
REMARK VINA RESULT:      -7.6      3.632      5.364
REMARK  Name = 
REMARK  14 active torsions:
REMARK  status: ('A' for Active; 'I' for Inactive)
REMARK    1  A    between atoms: C_1  and  C_2
REMARK    2  A    between atoms: C_2  and  C_3
REMARK    3  A    between atoms: C_2  and  N_18
REMARK    4  A    between atoms: C_3  and  C_4
REMARK    5  A    between atoms: C_8  and  O_9
REMARK    6  A    between atoms: O_9  and  S_10
REMARK    7  A    between atoms: S_10  and  C_11
REMARK    8  A    between atoms: N_18  and  C_19
REMARK    9  A    between atoms: C_19  and  C_20
REMARK   10  A    between atoms: C_20  and  O_21
REMARK   11  A    between atoms: C_20  and  C_22
REMARK   12  A    between atoms: C_26  and  N_27
REMARK   13  A    between atoms: N_27  and  C_28
REMARK   14  A    between atoms: C_28  and  C_29
REMARK                            x       y       z     vdW  Elec       q    Type
REMARK                         _______ _______ _______ _____ _____    ______ ____
ROOT
ATOM      1  N   UNL     1       1.058   9.070  18.524  0.00  0.00    +0.000 NA
ATOM      2  H   UNL     1       1.140   9.680  17.711  0.00  0.00    +0.000 HD
ENDROOT
BRANCH   1   4
ATOM      3  C   UNL     1       0.100   9.222  20.782  0.00  0.00    +0.000 C 
ATOM      4  C   UNL     1       0.970   9.916  19.729  0.00  0.00    +0.000 C 
BRANCH   4   5
ATOM      5  C   UNL     1       0.530  11.381  19.491  0.00  0.00    +0.000 C 
BRANCH   5   6
ATOM      6  C   UNL     1      -0.921  11.635  19.189  0.00  0.00    +0.000 A 
ATOM      7  C   UNL     1      -1.535  11.681  17.951  0.00  0.00    +0.000 A 
ATOM      8  N   UNL     1      -2.840  12.057  18.126  0.00  0.00    +0.000 N 
ATOM      9  C   UNL     1      -3.100  12.280  19.458  0.00  0.00    +0.000 A 
ATOM     10  C   UNL     1      -4.276  12.721  20.086  0.00  0.00    +0.000 A 
ATOM     11  C   UNL     1      -4.233  12.872  21.477  0.00  0.00    +0.000 A 
ATOM     12  C   UNL     1      -3.071  12.599  22.197  0.00  0.00    +0.000 A 
ATOM     13  C   UNL     1      -1.912  12.166  21.549  0.00  0.00    +0.000 A 
ATOM     14  C   UNL     1      -1.920  12.007  20.150  0.00  0.00    +0.000 A 
ATOM     15  H   UNL     1      -3.512  12.201  17.385  0.00  0.00    +0.000 HD
BRANCH  10  16
ATOM     16  O   UNL     1      -5.392  12.912  19.313  0.00  0.00    +0.000 OA
BRANCH  16  17
ATOM     17  S   UNL     1      -6.288  11.662  18.767  0.00  0.00    +0.000 S 
ATOM     18  C   UNL     1      -7.096  11.312  20.308  0.00  0.00    +0.000 C 
ATOM     19  O   UNL     1      -7.301  12.136  17.846  0.00  0.00    +0.000 OA
ATOM     20  O   UNL     1      -5.424  10.543  18.454  0.00  0.00    +0.000 OA
ENDBRANCH  16  17
ENDBRANCH  10  16
ENDBRANCH   5   6
ENDBRANCH   4   5
ENDBRANCH   1   4
BRANCH   1  21
ATOM     21  C   UNL     1       2.172   8.095  18.521  0.00  0.00    +0.000 C 
BRANCH  21  22
ATOM     22  C   UNL     1       1.922   6.747  19.270  0.00  0.00    +0.000 C 
BRANCH  22  23
ATOM     23  C   UNL     1       2.472   5.523  18.547  0.00  0.00    +0.000 A 
ATOM     24  C   UNL     1       1.902   4.251  18.709  0.00  0.00    +0.000 A 
ATOM     25  C   UNL     1       2.344   3.167  17.957  0.00  0.00    +0.000 A 
ATOM     26  C   UNL     1       3.369   3.336  17.030  0.00  0.00    +0.000 A 
ATOM     27  C   UNL     1       3.996   4.577  16.866  0.00  0.00    +0.000 A 
ATOM     28  C   UNL     1       3.512   5.664  17.611  0.00  0.00    +0.000 A 
BRANCH  27  29
ATOM     29  N   UNL     1       4.974   4.718  15.871  0.00  0.00    +0.000 N 
ATOM     30  H   UNL     1       4.665   4.348  14.975  0.00  0.00    +0.000 HD
BRANCH  29  31
ATOM     31  C   UNL     1       6.327   4.283  16.190  0.00  0.00    +0.000 C 
BRANCH  31  32
ATOM     32  C   UNL     1       6.980   5.294  17.099  0.00  0.00    +0.000 A 
ATOM     33  C   UNL     1       7.086   6.634  16.700  0.00  0.00    +0.000 A 
ATOM     34  C   UNL     1       7.680   7.576  17.538  0.00  0.00    +0.000 A 
ATOM     35  C   UNL     1       8.191   7.186  18.775  0.00  0.00    +0.000 A 
ATOM     36  C   UNL     1       8.110   5.850  19.172  0.00  0.00    +0.000 A 
ATOM     37  C   UNL     1       7.511   4.908  18.337  0.00  0.00    +0.000 A 
ENDBRANCH  31  32
ENDBRANCH  29  31
ENDBRANCH  27  29
ENDBRANCH  22  23
BRANCH  22  38
ATOM     38  O   UNL     1       2.493   6.782  20.584  0.00  0.00    +0.000 OA
ATOM     39  H   UNL     1       2.447   5.874  20.924  0.00  0.00    +0.000 HD
ENDBRANCH  22  38
ENDBRANCH  21  22
ENDBRANCH   1  21
TORSDOF 12
ENDMDL
