MODEL 1
REMARK VINA RESULT:      -8.5      0.000      0.000
REMARK  Name = 
REMARK  5 active torsions:
REMARK  status: ('A' for Active; 'I' for Inactive)
REMARK    1  A    between atoms: C_5  and  C_6
REMARK    2  A    between atoms: N_13  and  N_14
REMARK    3  A    between atoms: C_15  and  C_16
REMARK    4  A    between atoms: C_16  and  C_17
REMARK    5  A    between atoms: C_17  and  N_18
REMARK                            x       y       z     vdW  Elec       q    Type
REMARK                         _______ _______ _______ _____ _____    ______ ____
ROOT
ATOM      1  O   UNL     1       5.083   7.109  15.137  0.00  0.00    +0.000 OA
ATOM      2  C   UNL     1       5.287   6.150  15.844  0.00  0.00    +0.000 C 
ATOM      3  C   UNL     1       5.246   4.605  15.690  0.00  0.00    +0.000 C 
ATOM      4 CL   UNL     1       6.464   3.952  14.537  0.00  0.00    +0.000 Cl
ATOM      5  C   UNL     1       5.566   4.569  17.226  0.00  0.00    +0.000 C 
ATOM      6  N   UNL     1       5.751   6.019  17.114  0.00  0.00    +0.000 N 
ENDROOT
BRANCH   5   7
ATOM      7  C   UNL     1       4.385   4.095  18.194  0.00  0.00    +0.000 A 
ATOM      8  C   UNL     1       3.092   4.654  18.116  0.00  0.00    +0.000 A 
ATOM      9  C   UNL     1       2.068   4.281  18.995  0.00  0.00    +0.000 A 
ATOM     10  C   UNL     1       2.311   3.324  19.974  0.00  0.00    +0.000 A 
ATOM     11 CL   UNL     1       1.059   2.869  21.062  0.00  0.00    +0.000 Cl
ATOM     12  C   UNL     1       3.563   2.735  20.076  0.00  0.00    +0.000 A 
ATOM     13  C   UNL     1       4.578   3.115  19.193  0.00  0.00    +0.000 A 
ENDBRANCH   5   7
BRANCH   6  14
ATOM     14  N   UNL     1       6.437   6.824  17.950  0.00  0.00    +0.000 NA
ATOM     15  C   UNL     1       7.613   7.202  17.577  0.00  0.00    +0.000 C 
BRANCH  15  16
ATOM     16  C   UNL     1       8.455   8.040  18.495  0.00  0.00    +0.000 C 
BRANCH  16  17
ATOM     17  C   UNL     1       8.382   9.495  18.059  0.00  0.00    +0.000 C 
BRANCH  17  18
ATOM     18  N   UNL     1       9.124  10.355  18.952  0.00  0.00    +0.000 N 
ATOM     19  N   UNL     1       8.894  10.299  20.278  0.00  0.00    +0.000 NA
ATOM     20  N   UNL     1       9.716  11.165  20.857  0.00  0.00    +0.000 NA
ATOM     21  C   UNL     1      10.470  11.757  19.880  0.00  0.00    +0.000 A 
ATOM     22  C   UNL     1      11.482  12.725  19.963  0.00  0.00    +0.000 A 
ATOM     23  C   UNL     1      12.101  13.147  18.778  0.00  0.00    +0.000 A 
ATOM     24  C   UNL     1      11.720  12.620  17.543  0.00  0.00    +0.000 A 
ATOM     25  C   UNL     1      10.709  11.656  17.440  0.00  0.00    +0.000 A 
ATOM     26  C   UNL     1      10.109  11.251  18.637  0.00  0.00    +0.000 A 
ENDBRANCH  17  18
ENDBRANCH  16  17
ENDBRANCH  15  16
ENDBRANCH   6  14
TORSDOF 5
ENDMDL
MODEL 2
REMARK VINA RESULT:      -8.3      5.879      7.654
REMARK  Name = 
REMARK  5 active torsions:
REMARK  status: ('A' for Active; 'I' for Inactive)
REMARK    1  A    between atoms: C_5  and  C_6
REMARK    2  A    between atoms: N_13  and  N_14
REMARK    3  A    between atoms: C_15  and  C_16
REMARK    4  A    between atoms: C_16  and  C_17
REMARK    5  A    between atoms: C_17  and  N_18
REMARK                            x       y       z     vdW  Elec       q    Type
REMARK                         _______ _______ _______ _____ _____    ______ ____
ROOT
ATOM      1  O   UNL     1       0.829   2.767  18.592  0.00  0.00    +0.000 OA
ATOM      2  C   UNL     1       1.417   3.621  19.214  0.00  0.00    +0.000 C 
ATOM      3  C   UNL     1       1.391   4.182  20.662  0.00  0.00    +0.000 C 
ATOM      4 CL   UNL     1       1.890   2.992  21.917  0.00  0.00    +0.000 Cl
ATOM      5  C   UNL     1       2.447   5.220  20.145  0.00  0.00    +0.000 C 
ATOM      6  N   UNL     1       2.467   4.427  18.912  0.00  0.00    +0.000 N 
ENDROOT
BRANCH   5   7
ATOM      7  C   UNL     1       1.949   6.732  19.986  0.00  0.00    +0.000 A 
ATOM      8  C   UNL     1       2.196   7.475  18.813  0.00  0.00    +0.000 A 
ATOM      9  C   UNL     1       1.809   8.815  18.687  0.00  0.00    +0.000 A 
ATOM     10  C   UNL     1       1.150   9.445  19.736  0.00  0.00    +0.000 A 
ATOM     11 CL   UNL     1       0.679  11.093  19.591  0.00  0.00    +0.000 Cl
ATOM     12  C   UNL     1       0.869   8.747  20.902  0.00  0.00    +0.000 A 
ATOM     13  C   UNL     1       1.261   7.410  21.017  0.00  0.00    +0.000 A 
ENDBRANCH   5   7
BRANCH   6  14
ATOM     14  N   UNL     1       3.436   4.395  17.975  0.00  0.00    +0.000 NA
ATOM     15  C   UNL     1       4.659   4.422  18.386  0.00  0.00    +0.000 C 
BRANCH  15  16
ATOM     16  C   UNL     1       5.781   4.460  17.389  0.00  0.00    +0.000 C 
BRANCH  16  17
ATOM     17  C   UNL     1       5.385   5.342  16.216  0.00  0.00    +0.000 C 
BRANCH  17  18
ATOM     18  N   UNL     1       6.294   5.185  15.103  0.00  0.00    +0.000 N 
ATOM     19  N   UNL     1       7.522   5.734  15.162  0.00  0.00    +0.000 NA
ATOM     20  N   UNL     1       8.147   5.423  14.033  0.00  0.00    +0.000 NA
ATOM     21  C   UNL     1       7.300   4.665  13.271  0.00  0.00    +0.000 A 
ATOM     22  C   UNL     1       7.477   4.080  12.008  0.00  0.00    +0.000 A 
ATOM     23  C   UNL     1       6.422   3.334  11.463  0.00  0.00    +0.000 A 
ATOM     24  C   UNL     1       5.221   3.178  12.158  0.00  0.00    +0.000 A 
ATOM     25  C   UNL     1       5.024   3.758  13.417  0.00  0.00    +0.000 A 
ATOM     26  C   UNL     1       6.092   4.495  13.940  0.00  0.00    +0.000 A 
ENDBRANCH  17  18
ENDBRANCH  16  17
ENDBRANCH  15  16
ENDBRANCH   6  14
TORSDOF 5
ENDMDL
MODEL 3
REMARK VINA RESULT:      -8.2      4.434      6.337
REMARK  Name = 
REMARK  5 active torsions:
REMARK  status: ('A' for Active; 'I' for Inactive)
REMARK    1  A    between atoms: C_5  and  C_6
REMARK    2  A    between atoms: N_13  and  N_14
REMARK    3  A    between atoms: C_15  and  C_16
REMARK    4  A    between atoms: C_16  and  C_17
REMARK    5  A    between atoms: C_17  and  N_18
REMARK                            x       y       z     vdW  Elec       q    Type
REMARK                         _______ _______ _______ _____ _____    ______ ____
ROOT
ATOM      1  O   UNL     1       0.820   2.095  18.422  0.00  0.00    +0.000 OA
ATOM      2  C   UNL     1       1.428   2.933  19.047  0.00  0.00    +0.000 C 
ATOM      3  C   UNL     1       1.229   3.719  20.372  0.00  0.00    +0.000 C 
ATOM      4 CL   UNL     1       1.241   2.685  21.844  0.00  0.00    +0.000 Cl
ATOM      5  C   UNL     1       2.542   4.478  19.972  0.00  0.00    +0.000 C 
ATOM      6  N   UNL     1       2.650   3.502  18.883  0.00  0.00    +0.000 N 
ENDROOT
BRANCH   5   7
ATOM      7  C   UNL     1       2.381   6.004  19.519  0.00  0.00    +0.000 A 
ATOM      8  C   UNL     1       1.821   6.976  20.375  0.00  0.00    +0.000 A 
ATOM      9  C   UNL     1       1.629   8.302  19.966  0.00  0.00    +0.000 A 
ATOM     10  C   UNL     1       2.005   8.692  18.686  0.00  0.00    +0.000 A 
ATOM     11 CL   UNL     1       1.764  10.317  18.175  0.00  0.00    +0.000 Cl
ATOM     12  C   UNL     1       2.577   7.773  17.817  0.00  0.00    +0.000 A 
ATOM     13  C   UNL     1       2.763   6.452  18.235  0.00  0.00    +0.000 A 
ENDBRANCH   5   7
BRANCH   6  14
ATOM     14  N   UNL     1       3.758   3.165  18.193  0.00  0.00    +0.000 NA
ATOM     15  C   UNL     1       3.809   3.509  16.949  0.00  0.00    +0.000 C 
BRANCH  15  16
ATOM     16  C   UNL     1       4.984   3.101  16.109  0.00  0.00    +0.000 C 
BRANCH  16  17
ATOM     17  C   UNL     1       5.315   4.215  15.129  0.00  0.00    +0.000 C 
BRANCH  17  18
ATOM     18  N   UNL     1       5.747   5.413  15.812  0.00  0.00    +0.000 N 
ATOM     19  N   UNL     1       5.255   6.609  15.438  0.00  0.00    +0.000 NA
ATOM     20  N   UNL     1       5.795   7.523  16.235  0.00  0.00    +0.000 NA
ATOM     21  C   UNL     1       6.624   6.885  17.118  0.00  0.00    +0.000 A 
ATOM     22  C   UNL     1       7.415   7.388  18.161  0.00  0.00    +0.000 A 
ATOM     23  C   UNL     1       8.168   6.484  18.924  0.00  0.00    +0.000 A 
ATOM     24  C   UNL     1       8.135   5.115  18.652  0.00  0.00    +0.000 A 
ATOM     25  C   UNL     1       7.354   4.595  17.612  0.00  0.00    +0.000 A 
ATOM     26  C   UNL     1       6.611   5.517  16.867  0.00  0.00    +0.000 A 
ENDBRANCH  17  18
ENDBRANCH  16  17
ENDBRANCH  15  16
ENDBRANCH   6  14
TORSDOF 5
ENDMDL
MODEL 4
REMARK VINA RESULT:      -8.1      5.915      7.692
REMARK  Name = 
REMARK  5 active torsions:
REMARK  status: ('A' for Active; 'I' for Inactive)
REMARK    1  A    between atoms: C_5  and  C_6
REMARK    2  A    between atoms: N_13  and  N_14
REMARK    3  A    between atoms: C_15  and  C_16
REMARK    4  A    between atoms: C_16  and  C_17
REMARK    5  A    between atoms: C_17  and  N_18
REMARK                            x       y       z     vdW  Elec       q    Type
REMARK                         _______ _______ _______ _____ _____    ______ ____
ROOT
ATOM      1  O   UNL     1       0.900   2.268  18.633  0.00  0.00    +0.000 OA
ATOM      2  C   UNL     1       1.422   3.105  19.332  0.00  0.00    +0.000 C 
ATOM      3  C   UNL     1       1.128   3.773  20.703  0.00  0.00    +0.000 C 
ATOM      4 CL   UNL     1       1.192   2.639  22.099  0.00  0.00    +0.000 Cl
ATOM      5  C   UNL     1       2.383   4.664  20.396  0.00  0.00    +0.000 C 
ATOM      6  N   UNL     1       2.597   3.782  19.244  0.00  0.00    +0.000 N 
ENDROOT
BRANCH   5   7
ATOM      7  C   UNL     1       2.106   6.200  20.048  0.00  0.00    +0.000 A 
ATOM      8  C   UNL     1       1.491   7.071  20.972  0.00  0.00    +0.000 A 
ATOM      9  C   UNL     1       1.199   8.403  20.655  0.00  0.00    +0.000 A 
ATOM     10  C   UNL     1       1.526   8.903  19.399  0.00  0.00    +0.000 A 
ATOM     11 CL   UNL     1       1.162  10.536  19.001  0.00  0.00    +0.000 Cl
ATOM     12  C   UNL     1       2.149   8.087  18.466  0.00  0.00    +0.000 A 
ATOM     13  C   UNL     1       2.436   6.759  18.793  0.00  0.00    +0.000 A 
ENDBRANCH   5   7
BRANCH   6  14
ATOM     14  N   UNL     1       3.743   3.587  18.564  0.00  0.00    +0.000 NA
ATOM     15  C   UNL     1       3.810   4.062  17.365  0.00  0.00    +0.000 C 
BRANCH  15  16
ATOM     16  C   UNL     1       5.033   3.816  16.531  0.00  0.00    +0.000 C 
BRANCH  16  17
ATOM     17  C   UNL     1       5.751   5.134  16.286  0.00  0.00    +0.000 C 
BRANCH  17  18
ATOM     18  N   UNL     1       6.544   5.090  15.079  0.00  0.00    +0.000 N 
ATOM     19  N   UNL     1       7.737   5.713  15.040  0.00  0.00    +0.000 NA
ATOM     20  N   UNL     1       8.256   5.497  13.838  0.00  0.00    +0.000 NA
ATOM     21  C   UNL     1       7.377   4.725  13.126  0.00  0.00    +0.000 A 
ATOM     22  C   UNL     1       7.453   4.214  11.822  0.00  0.00    +0.000 A 
ATOM     23  C   UNL     1       6.392   3.430  11.349  0.00  0.00    +0.000 A 
ATOM     24  C   UNL     1       5.283   3.163  12.155  0.00  0.00    +0.000 A 
ATOM     25  C   UNL     1       5.188   3.668  13.457  0.00  0.00    +0.000 A 
ATOM     26  C   UNL     1       6.260   4.446  13.906  0.00  0.00    +0.000 A 
ENDBRANCH  17  18
ENDBRANCH  16  17
ENDBRANCH  15  16
ENDBRANCH   6  14
TORSDOF 5
ENDMDL
MODEL 5
REMARK VINA RESULT:      -8.1      3.921      5.783
REMARK  Name = 
REMARK  5 active torsions:
REMARK  status: ('A' for Active; 'I' for Inactive)
REMARK    1  A    between atoms: C_5  and  C_6
REMARK    2  A    between atoms: N_13  and  N_14
REMARK    3  A    between atoms: C_15  and  C_16
REMARK    4  A    between atoms: C_16  and  C_17
REMARK    5  A    between atoms: C_17  and  N_18
REMARK                            x       y       z     vdW  Elec       q    Type
REMARK                         _______ _______ _______ _____ _____    ______ ____
ROOT
ATOM      1  O   UNL     1       0.988   2.176  18.494  0.00  0.00    +0.000 OA
ATOM      2  C   UNL     1       1.518   3.052  19.137  0.00  0.00    +0.000 C 
ATOM      3  C   UNL     1       1.249   3.790  20.477  0.00  0.00    +0.000 C 
ATOM      4 CL   UNL     1       1.352   2.731  21.928  0.00  0.00    +0.000 Cl
ATOM      5  C   UNL     1       2.490   4.671  20.096  0.00  0.00    +0.000 C 
ATOM      6  N   UNL     1       2.685   3.731  18.987  0.00  0.00    +0.000 N 
ENDROOT
BRANCH   5   7
ATOM      7  C   UNL     1       2.194   6.185  19.674  0.00  0.00    +0.000 A 
ATOM      8  C   UNL     1       2.501   6.670  18.385  0.00  0.00    +0.000 A 
ATOM      9  C   UNL     1       2.292   8.007  18.026  0.00  0.00    +0.000 A 
ATOM     10  C   UNL     1       1.756   8.896  18.951  0.00  0.00    +0.000 A 
ATOM     11 CL   UNL     1       1.504  10.541  18.518  0.00  0.00    +0.000 Cl
ATOM     12  C   UNL     1       1.421   8.458  20.225  0.00  0.00    +0.000 A 
ATOM     13  C   UNL     1       1.635   7.121  20.573  0.00  0.00    +0.000 A 
ENDBRANCH   5   7
BRANCH   6  14
ATOM     14  N   UNL     1       3.818   3.508  18.293  0.00  0.00    +0.000 NA
ATOM     15  C   UNL     1       3.878   3.973  17.090  0.00  0.00    +0.000 C 
BRANCH  15  16
ATOM     16  C   UNL     1       5.084   3.697  16.241  0.00  0.00    +0.000 C 
BRANCH  16  17
ATOM     17  C   UNL     1       5.839   4.994  15.998  0.00  0.00    +0.000 C 
BRANCH  17  18
ATOM     18  N   UNL     1       6.679   5.337  17.123  0.00  0.00    +0.000 N 
ATOM     19  N   UNL     1       7.092   4.373  17.967  0.00  0.00    +0.000 NA
ATOM     20  N   UNL     1       7.858   4.953  18.884  0.00  0.00    +0.000 NA
ATOM     21  C   UNL     1       7.927   6.290  18.598  0.00  0.00    +0.000 A 
ATOM     22  C   UNL     1       8.607   7.332  19.245  0.00  0.00    +0.000 A 
ATOM     23  C   UNL     1       8.506   8.626  18.716  0.00  0.00    +0.000 A 
ATOM     24  C   UNL     1       7.744   8.875  17.572  0.00  0.00    +0.000 A 
ATOM     25  C   UNL     1       7.055   7.849  16.916  0.00  0.00    +0.000 A 
ATOM     26  C   UNL     1       7.173   6.567  17.463  0.00  0.00    +0.000 A 
ENDBRANCH  17  18
ENDBRANCH  16  17
ENDBRANCH  15  16
ENDBRANCH   6  14
TORSDOF 5
ENDMDL
MODEL 6
REMARK VINA RESULT:      -8.1      5.856      7.552
REMARK  Name = 
REMARK  5 active torsions:
REMARK  status: ('A' for Active; 'I' for Inactive)
REMARK    1  A    between atoms: C_5  and  C_6
REMARK    2  A    between atoms: N_13  and  N_14
REMARK    3  A    between atoms: C_15  and  C_16
REMARK    4  A    between atoms: C_16  and  C_17
REMARK    5  A    between atoms: C_17  and  N_18
REMARK                            x       y       z     vdW  Elec       q    Type
REMARK                         _______ _______ _______ _____ _____    ______ ____
ROOT
ATOM      1  O   UNL     1       1.060   3.338  18.108  0.00  0.00    +0.000 OA
ATOM      2  C   UNL     1       1.510   4.125  18.908  0.00  0.00    +0.000 C 
ATOM      3  C   UNL     1       1.207   4.545  20.372  0.00  0.00    +0.000 C 
ATOM      4 CL   UNL     1       1.478   3.238  21.579  0.00  0.00    +0.000 Cl
ATOM      5  C   UNL     1       2.327   5.623  20.162  0.00  0.00    +0.000 C 
ATOM      6  N   UNL     1       2.588   4.952  18.885  0.00  0.00    +0.000 N 
ENDROOT
BRANCH   5   7
ATOM      7  C   UNL     1       1.848   7.146  20.057  0.00  0.00    +0.000 A 
ATOM      8  C   UNL     1       1.209   7.798  21.132  0.00  0.00    +0.000 A 
ATOM      9  C   UNL     1       0.741   9.114  21.028  0.00  0.00    +0.000 A 
ATOM     10  C   UNL     1       0.912   9.818  19.842  0.00  0.00    +0.000 A 
ATOM     11 CL   UNL     1       0.332  11.432  19.706  0.00  0.00    +0.000 Cl
ATOM     12  C   UNL     1       1.553   9.221  18.765  0.00  0.00    +0.000 A 
ATOM     13  C   UNL     1       2.015   7.907  18.879  0.00  0.00    +0.000 A 
ENDBRANCH   5   7
BRANCH   6  14
ATOM     14  N   UNL     1       3.714   5.005  18.147  0.00  0.00    +0.000 NA
ATOM     15  C   UNL     1       4.702   4.261  18.519  0.00  0.00    +0.000 C 
BRANCH  15  16
ATOM     16  C   UNL     1       6.007   4.328  17.780  0.00  0.00    +0.000 C 
BRANCH  16  17
ATOM     17  C   UNL     1       5.861   3.639  16.433  0.00  0.00    +0.000 C 
BRANCH  17  18
ATOM     18  N   UNL     1       6.587   4.338  15.398  0.00  0.00    +0.000 N 
ATOM     19  N   UNL     1       7.457   5.310  15.732  0.00  0.00    +0.000 NA
ATOM     20  N   UNL     1       7.994   5.763  14.606  0.00  0.00    +0.000 NA
ATOM     21  C   UNL     1       7.457   5.058  13.563  0.00  0.00    +0.000 A 
ATOM     22  C   UNL     1       7.693   5.140  12.183  0.00  0.00    +0.000 A 
ATOM     23  C   UNL     1       6.995   4.270  11.333  0.00  0.00    +0.000 A 
ATOM     24  C   UNL     1       6.085   3.344  11.846  0.00  0.00    +0.000 A 
ATOM     25  C   UNL     1       5.834   3.250  13.221  0.00  0.00    +0.000 A 
ATOM     26  C   UNL     1       6.543   4.128  14.047  0.00  0.00    +0.000 A 
ENDBRANCH  17  18
ENDBRANCH  16  17
ENDBRANCH  15  16
ENDBRANCH   6  14
TORSDOF 5
ENDMDL
MODEL 7
REMARK VINA RESULT:      -8.0      5.739      8.525
REMARK  Name = 
REMARK  5 active torsions:
REMARK  status: ('A' for Active; 'I' for Inactive)
REMARK    1  A    between atoms: C_5  and  C_6
REMARK    2  A    between atoms: N_13  and  N_14
REMARK    3  A    between atoms: C_15  and  C_16
REMARK    4  A    between atoms: C_16  and  C_17
REMARK    5  A    between atoms: C_17  and  N_18
REMARK                            x       y       z     vdW  Elec       q    Type
REMARK                         _______ _______ _______ _____ _____    ______ ____
ROOT
ATOM      1  O   UNL     1       2.231   3.316  22.160  0.00  0.00    +0.000 OA
ATOM      2  C   UNL     1       2.323   3.678  21.010  0.00  0.00    +0.000 C 
ATOM      3  C   UNL     1       2.713   3.035  19.651  0.00  0.00    +0.000 C 
ATOM      4 CL   UNL     1       1.586   1.744  19.103  0.00  0.00    +0.000 Cl
ATOM      5  C   UNL     1       2.549   4.480  19.063  0.00  0.00    +0.000 C 
ATOM      6  N   UNL     1       2.018   4.843  20.381  0.00  0.00    +0.000 N 
ENDROOT
BRANCH   5   7
ATOM      7  C   UNL     1       3.890   5.235  18.626  0.00  0.00    +0.000 A 
ATOM      8  C   UNL     1       3.891   6.221  17.617  0.00  0.00    +0.000 A 
ATOM      9  C   UNL     1       5.070   6.848  17.195  0.00  0.00    +0.000 A 
ATOM     10  C   UNL     1       6.283   6.509  17.783  0.00  0.00    +0.000 A 
ATOM     11 CL   UNL     1       7.735   7.269  17.262  0.00  0.00    +0.000 Cl
ATOM     12  C   UNL     1       6.326   5.557  18.792  0.00  0.00    +0.000 A 
ATOM     13  C   UNL     1       5.143   4.937  19.206  0.00  0.00    +0.000 A 
ENDBRANCH   5   7
BRANCH   6  14
ATOM     14  N   UNL     1       1.240   5.899  20.687  0.00  0.00    +0.000 NA
ATOM     15  C   UNL     1       1.822   7.042  20.837  0.00  0.00    +0.000 C 
BRANCH  15  16
ATOM     16  C   UNL     1       1.020   8.241  21.248  0.00  0.00    +0.000 C 
BRANCH  16  17
ATOM     17  C   UNL     1       1.207   9.350  20.224  0.00  0.00    +0.000 C 
BRANCH  17  18
ATOM     18  N   UNL     1       0.263  10.426  20.428  0.00  0.00    +0.000 N 
ATOM     19  N   UNL     1       0.455  11.300  21.435  0.00  0.00    +0.000 NA
ATOM     20  N   UNL     1      -0.532  12.185  21.381  0.00  0.00    +0.000 NA
ATOM     21  C   UNL     1      -1.340  11.861  20.324  0.00  0.00    +0.000 A 
ATOM     22  C   UNL     1      -2.500  12.477  19.833  0.00  0.00    +0.000 A 
ATOM     23  C   UNL     1      -3.126  11.923  18.707  0.00  0.00    +0.000 A 
ATOM     24  C   UNL     1      -2.608  10.784  18.088  0.00  0.00    +0.000 A 
ATOM     25  C   UNL     1      -1.453  10.153  18.565  0.00  0.00    +0.000 A 
ATOM     26  C   UNL     1      -0.847  10.726  19.689  0.00  0.00    +0.000 A 
ENDBRANCH  17  18
ENDBRANCH  16  17
ENDBRANCH  15  16
ENDBRANCH   6  14
TORSDOF 5
ENDMDL
MODEL 8
REMARK VINA RESULT:      -8.0      5.584      8.215
REMARK  Name = 
REMARK  5 active torsions:
REMARK  status: ('A' for Active; 'I' for Inactive)
REMARK    1  A    between atoms: C_5  and  C_6
REMARK    2  A    between atoms: N_13  and  N_14
REMARK    3  A    between atoms: C_15  and  C_16
REMARK    4  A    between atoms: C_16  and  C_17
REMARK    5  A    between atoms: C_17  and  N_18
REMARK                            x       y       z     vdW  Elec       q    Type
REMARK                         _______ _______ _______ _____ _____    ______ ____
ROOT
ATOM      1  O   UNL     1       3.033   2.722  21.687  0.00  0.00    +0.000 OA
ATOM      2  C   UNL     1       3.140   3.149  20.561  0.00  0.00    +0.000 C 
ATOM      3  C   UNL     1       3.756   2.658  19.222  0.00  0.00    +0.000 C 
ATOM      4 CL   UNL     1       2.955   1.198  18.540  0.00  0.00    +0.000 Cl
ATOM      5  C   UNL     1       3.354   4.069  18.665  0.00  0.00    +0.000 C 
ATOM      6  N   UNL     1       2.660   4.259  19.943  0.00  0.00    +0.000 N 
ENDROOT
BRANCH   5   7
ATOM      7  C   UNL     1       4.548   5.091  18.369  0.00  0.00    +0.000 A 
ATOM      8  C   UNL     1       4.417   6.132  17.426  0.00  0.00    +0.000 A 
ATOM      9  C   UNL     1       5.475   6.997  17.124  0.00  0.00    +0.000 A 
ATOM     10  C   UNL     1       6.697   6.849  17.771  0.00  0.00    +0.000 A 
ATOM     11 CL   UNL     1       8.003   7.904  17.399  0.00  0.00    +0.000 Cl
ATOM     12  C   UNL     1       6.865   5.850  18.720  0.00  0.00    +0.000 A 
ATOM     13  C   UNL     1       5.802   4.991  19.013  0.00  0.00    +0.000 A 
ENDBRANCH   5   7
BRANCH   6  14
ATOM     14  N   UNL     1       1.665   5.127  20.213  0.00  0.00    +0.000 NA
ATOM     15  C   UNL     1       2.001   6.326  20.555  0.00  0.00    +0.000 C 
BRANCH  15  16
ATOM     16  C   UNL     1       0.942   7.318  20.937  0.00  0.00    +0.000 C 
BRANCH  16  17
ATOM     17  C   UNL     1       1.589   8.509  21.626  0.00  0.00    +0.000 C 
BRANCH  17  18
ATOM     18  N   UNL     1       0.614   9.520  21.967  0.00  0.00    +0.000 N 
ATOM     19  N   UNL     1       0.395   9.828  23.259  0.00  0.00    +0.000 NA
ATOM     20  N   UNL     1      -0.520  10.789  23.286  0.00  0.00    +0.000 NA
ATOM     21  C   UNL     1      -0.865  11.085  21.995  0.00  0.00    +0.000 A 
ATOM     22  C   UNL     1      -1.772  12.023  21.481  0.00  0.00    +0.000 A 
ATOM     23  C   UNL     1      -1.918  12.118  20.090  0.00  0.00    +0.000 A 
ATOM     24  C   UNL     1      -1.181  11.297  19.234  0.00  0.00    +0.000 A 
ATOM     25  C   UNL     1      -0.274  10.352  19.729  0.00  0.00    +0.000 A 
ATOM     26  C   UNL     1      -0.146  10.278  21.120  0.00  0.00    +0.000 A 
ENDBRANCH  17  18
ENDBRANCH  16  17
ENDBRANCH  15  16
ENDBRANCH   6  14
TORSDOF 5
ENDMDL
MODEL 9
REMARK VINA RESULT:      -8.0      5.569      7.243
REMARK  Name = 
REMARK  5 active torsions:
REMARK  status: ('A' for Active; 'I' for Inactive)
REMARK    1  A    between atoms: C_5  and  C_6
REMARK    2  A    between atoms: N_13  and  N_14
REMARK    3  A    between atoms: C_15  and  C_16
REMARK    4  A    between atoms: C_16  and  C_17
REMARK    5  A    between atoms: C_17  and  N_18
REMARK                            x       y       z     vdW  Elec       q    Type
REMARK                         _______ _______ _______ _____ _____    ______ ____
ROOT
ATOM      1  O   UNL     1       2.114   3.474  22.146  0.00  0.00    +0.000 OA
ATOM      2  C   UNL     1       2.213   3.843  20.999  0.00  0.00    +0.000 C 
ATOM      3  C   UNL     1       2.556   3.195  19.630  0.00  0.00    +0.000 C 
ATOM      4 CL   UNL     1       1.358   1.970  19.080  0.00  0.00    +0.000 Cl
ATOM      5  C   UNL     1       2.461   4.653  19.057  0.00  0.00    +0.000 C 
ATOM      6  N   UNL     1       1.963   5.029  20.384  0.00  0.00    +0.000 N 
ENDROOT
BRANCH   5   7
ATOM      7  C   UNL     1       3.835   5.341  18.615  0.00  0.00    +0.000 A 
ATOM      8  C   UNL     1       3.883   6.314  17.595  0.00  0.00    +0.000 A 
ATOM      9  C   UNL     1       5.089   6.883  17.167  0.00  0.00    +0.000 A 
ATOM     10  C   UNL     1       6.285   6.497  17.761  0.00  0.00    +0.000 A 
ATOM     11 CL   UNL     1       7.770   7.185  17.234  0.00  0.00    +0.000 Cl
ATOM     12  C   UNL     1       6.283   5.556  18.782  0.00  0.00    +0.000 A 
ATOM     13  C   UNL     1       5.074   4.994  19.200  0.00  0.00    +0.000 A 
ENDBRANCH   5   7
BRANCH   6  14
ATOM     14  N   UNL     1       1.243   6.121  20.709  0.00  0.00    +0.000 NA
ATOM     15  C   UNL     1       1.891   7.219  20.911  0.00  0.00    +0.000 C 
BRANCH  15  16
ATOM     16  C   UNL     1       1.153   8.452  21.345  0.00  0.00    +0.000 C 
BRANCH  16  17
ATOM     17  C   UNL     1       0.898   9.339  20.136  0.00  0.00    +0.000 C 
BRANCH  17  18
ATOM     18  N   UNL     1       0.871  10.738  20.501  0.00  0.00    +0.000 N 
ATOM     19  N   UNL     1       0.404  11.104  21.710  0.00  0.00    +0.000 NA
ATOM     20  N   UNL     1       0.512  12.424  21.790  0.00  0.00    +0.000 NA
ATOM     21  C   UNL     1       1.059  12.880  20.621  0.00  0.00    +0.000 A 
ATOM     22  C   UNL     1       1.386  14.180  20.207  0.00  0.00    +0.000 A 
ATOM     23  C   UNL     1       1.956  14.353  18.938  0.00  0.00    +0.000 A 
ATOM     24  C   UNL     1       2.192  13.259  18.103  0.00  0.00    +0.000 A 
ATOM     25  C   UNL     1       1.868  11.955  18.497  0.00  0.00    +0.000 A 
ATOM     26  C   UNL     1       1.303  11.809  19.768  0.00  0.00    +0.000 A 
ENDBRANCH  17  18
ENDBRANCH  16  17
ENDBRANCH  15  16
ENDBRANCH   6  14
TORSDOF 5
ENDMDL
