MODEL 1
REMARK VINA RESULT:      -6.9      0.000      0.000
REMARK  Name = 
REMARK  3 active torsions:
REMARK  status: ('A' for Active; 'I' for Inactive)
REMARK    1  A    between atoms: N_6  and  C_7
REMARK    2  A    between atoms: C_7  and  C_8
REMARK    3  A    between atoms: C_8  and  C_9
REMARK                            x       y       z     vdW  Elec       q    Type
REMARK                         _______ _______ _______ _____ _____    ______ ____
ROOT
ATOM      1  O   UNL     1       7.740   6.404  18.977  0.00  0.00    +0.000 OA
ATOM      2  S   UNL     1       7.244   6.270  17.621  0.00  0.00    +0.000 S 
ATOM      3  O   UNL     1       7.790   7.094  16.559  0.00  0.00    +0.000 OA
ATOM      4  C   UNL     1       5.486   6.514  17.656  0.00  0.00    +0.000 C 
ATOM      5  C   UNL     1       4.838   5.931  16.411  0.00  0.00    +0.000 C 
ATOM      6  N   UNL     1       5.088   4.496  16.194  0.00  0.00    +0.000 NA
ATOM      7  C   UNL     1       6.525   4.255  15.960  0.00  0.00    +0.000 C 
ATOM      8  C   UNL     1       7.424   4.568  17.144  0.00  0.00    +0.000 C 
ENDROOT
BRANCH   6   9
ATOM      9  C   UNL     1       4.536   3.619  17.250  0.00  0.00    +0.000 C 
BRANCH   9  10
ATOM     10  C   UNL     1       3.005   3.672  17.365  0.00  0.00    +0.000 C 
BRANCH  10  11
ATOM     11  C   UNL     1       2.557   3.442  18.786  0.00  0.00    +0.000 A 
ATOM     12  C   UNL     1       1.303   3.869  19.209  0.00  0.00    +0.000 A 
ATOM     13  C   UNL     1       0.930   3.653  20.533  0.00  0.00    +0.000 A 
ATOM     14  C   UNL     1       1.818   3.027  21.398  0.00  0.00    +0.000 A 
ATOM     15  C   UNL     1       3.053   2.646  20.902  0.00  0.00    +0.000 A 
ATOM     16  N   UNL     1       3.441   2.840  19.622  0.00  0.00    +0.000 NA
ENDBRANCH  10  11
ENDBRANCH   9  10
ENDBRANCH   6   9
TORSDOF 3
ENDMDL
MODEL 2
REMARK VINA RESULT:      -6.8      1.760      2.450
REMARK  Name = 
REMARK  3 active torsions:
REMARK  status: ('A' for Active; 'I' for Inactive)
REMARK    1  A    between atoms: N_6  and  C_7
REMARK    2  A    between atoms: C_7  and  C_8
REMARK    3  A    between atoms: C_8  and  C_9
REMARK                            x       y       z     vdW  Elec       q    Type
REMARK                         _______ _______ _______ _____ _____    ______ ____
ROOT
ATOM      1  O   UNL     1       7.555   5.654  15.198  0.00  0.00    +0.000 OA
ATOM      2  S   UNL     1       7.177   4.987  16.428  0.00  0.00    +0.000 S 
ATOM      3  O   UNL     1       8.115   4.107  17.099  0.00  0.00    +0.000 OA
ATOM      4  C   UNL     1       5.690   4.069  16.116  0.00  0.00    +0.000 C 
ATOM      5  C   UNL     1       4.975   3.747  17.417  0.00  0.00    +0.000 C 
ATOM      6  N   UNL     1       4.617   4.917  18.237  0.00  0.00    +0.000 NA
ATOM      7  C   UNL     1       5.834   5.615  18.695  0.00  0.00    +0.000 C 
ATOM      8  C   UNL     1       6.667   6.234  17.585  0.00  0.00    +0.000 C 
ENDROOT
BRANCH   6   9
ATOM      9  C   UNL     1       3.652   5.835  17.592  0.00  0.00    +0.000 C 
BRANCH   9  10
ATOM     10  C   UNL     1       2.427   6.159  18.460  0.00  0.00    +0.000 C 
BRANCH  10  11
ATOM     11  C   UNL     1       2.030   4.974  19.304  0.00  0.00    +0.000 A 
ATOM     12  C   UNL     1       2.418   4.896  20.638  0.00  0.00    +0.000 A 
ATOM     13  C   UNL     1       2.045   3.779  21.381  0.00  0.00    +0.000 A 
ATOM     14  C   UNL     1       1.307   2.772  20.775  0.00  0.00    +0.000 A 
ATOM     15  C   UNL     1       0.974   2.919  19.439  0.00  0.00    +0.000 A 
ATOM     16  N   UNL     1       1.319   3.993  18.694  0.00  0.00    +0.000 NA
ENDBRANCH  10  11
ENDBRANCH   9  10
ENDBRANCH   6   9
TORSDOF 3
ENDMDL
MODEL 3
REMARK VINA RESULT:      -6.8      1.494      1.871
REMARK  Name = 
REMARK  3 active torsions:
REMARK  status: ('A' for Active; 'I' for Inactive)
REMARK    1  A    between atoms: N_6  and  C_7
REMARK    2  A    between atoms: C_7  and  C_8
REMARK    3  A    between atoms: C_8  and  C_9
REMARK                            x       y       z     vdW  Elec       q    Type
REMARK                         _______ _______ _______ _____ _____    ______ ____
ROOT
ATOM      1  O   UNL     1       7.638   6.941  16.832  0.00  0.00    +0.000 OA
ATOM      2  S   UNL     1       7.120   5.593  16.960  0.00  0.00    +0.000 S 
ATOM      3  O   UNL     1       8.005   4.454  16.806  0.00  0.00    +0.000 OA
ATOM      4  C   UNL     1       5.784   5.410  15.805  0.00  0.00    +0.000 C 
ATOM      5  C   UNL     1       4.896   4.240  16.193  0.00  0.00    +0.000 C 
ATOM      6  N   UNL     1       4.314   4.322  17.544  0.00  0.00    +0.000 NA
ATOM      7  C   UNL     1       5.378   4.279  18.565  0.00  0.00    +0.000 C 
ATOM      8  C   UNL     1       6.327   5.465  18.545  0.00  0.00    +0.000 C 
ENDROOT
BRANCH   6   9
ATOM      9  C   UNL     1       3.395   5.466  17.739  0.00  0.00    +0.000 C 
BRANCH   9  10
ATOM     10  C   UNL     1       1.933   5.055  17.971  0.00  0.00    +0.000 C 
BRANCH  10  11
ATOM     11  C   UNL     1       1.791   4.234  19.228  0.00  0.00    +0.000 A 
ATOM     12  C   UNL     1       1.102   3.026  19.208  0.00  0.00    +0.000 A 
ATOM     13  C   UNL     1       0.978   2.303  20.392  0.00  0.00    +0.000 A 
ATOM     14  C   UNL     1       1.535   2.807  21.560  0.00  0.00    +0.000 A 
ATOM     15  C   UNL     1       2.192   4.024  21.498  0.00  0.00    +0.000 A 
ATOM     16  N   UNL     1       2.330   4.746  20.363  0.00  0.00    +0.000 NA
ENDBRANCH  10  11
ENDBRANCH   9  10
ENDBRANCH   6   9
TORSDOF 3
ENDMDL
MODEL 4
REMARK VINA RESULT:      -6.8      1.603      1.829
REMARK  Name = 
REMARK  3 active torsions:
REMARK  status: ('A' for Active; 'I' for Inactive)
REMARK    1  A    between atoms: N_6  and  C_7
REMARK    2  A    between atoms: C_7  and  C_8
REMARK    3  A    between atoms: C_8  and  C_9
REMARK                            x       y       z     vdW  Elec       q    Type
REMARK                         _______ _______ _______ _____ _____    ______ ____
ROOT
ATOM      1  O   UNL     1       7.978   5.264  19.371  0.00  0.00    +0.000 OA
ATOM      2  S   UNL     1       7.315   5.061  18.097  0.00  0.00    +0.000 S 
ATOM      3  O   UNL     1       8.016   4.414  17.004  0.00  0.00    +0.000 OA
ATOM      4  C   UNL     1       6.742   6.640  17.523  0.00  0.00    +0.000 C 
ATOM      5  C   UNL     1       5.651   6.469  16.480  0.00  0.00    +0.000 C 
ATOM      6  N   UNL     1       4.477   5.700  16.928  0.00  0.00    +0.000 NA
ATOM      7  C   UNL     1       4.860   4.308  17.235  0.00  0.00    +0.000 C 
ATOM      8  C   UNL     1       5.818   4.156  18.404  0.00  0.00    +0.000 C 
ENDROOT
BRANCH   6   9
ATOM      9  C   UNL     1       3.727   6.333  18.036  0.00  0.00    +0.000 C 
BRANCH   9  10
ATOM     10  C   UNL     1       2.240   5.948  18.078  0.00  0.00    +0.000 C 
BRANCH  10  11
ATOM     11  C   UNL     1       1.981   4.894  19.126  0.00  0.00    +0.000 A 
ATOM     12  C   UNL     1       1.252   3.751  18.813  0.00  0.00    +0.000 A 
ATOM     13  C   UNL     1       1.019   2.808  19.810  0.00  0.00    +0.000 A 
ATOM     14  C   UNL     1       1.509   3.034  21.089  0.00  0.00    +0.000 A 
ATOM     15  C   UNL     1       2.212   4.204  21.323  0.00  0.00    +0.000 A 
ATOM     16  N   UNL     1       2.455   5.135  20.374  0.00  0.00    +0.000 NA
ENDBRANCH  10  11
ENDBRANCH   9  10
ENDBRANCH   6   9
TORSDOF 3
ENDMDL
MODEL 5
REMARK VINA RESULT:      -6.7      1.977      2.733
REMARK  Name = 
REMARK  3 active torsions:
REMARK  status: ('A' for Active; 'I' for Inactive)
REMARK    1  A    between atoms: N_6  and  C_7
REMARK    2  A    between atoms: C_7  and  C_8
REMARK    3  A    between atoms: C_8  and  C_9
REMARK                            x       y       z     vdW  Elec       q    Type
REMARK                         _______ _______ _______ _____ _____    ______ ____
ROOT
ATOM      1  O   UNL     1       6.347   3.489  15.059  0.00  0.00    +0.000 OA
ATOM      2  S   UNL     1       6.707   4.757  15.664  0.00  0.00    +0.000 S 
ATOM      3  O   UNL     1       7.587   5.676  14.966  0.00  0.00    +0.000 OA
ATOM      4  C   UNL     1       7.416   4.421  17.256  0.00  0.00    +0.000 C 
ATOM      5  C   UNL     1       7.374   5.659  18.135  0.00  0.00    +0.000 C 
ATOM      6  N   UNL     1       6.031   6.223  18.352  0.00  0.00    +0.000 NA
ATOM      7  C   UNL     1       5.464   6.705  17.077  0.00  0.00    +0.000 C 
ATOM      8  C   UNL     1       5.202   5.620  16.047  0.00  0.00    +0.000 C 
ENDROOT
BRANCH   6   9
ATOM      9  C   UNL     1       5.105   5.321  19.072  0.00  0.00    +0.000 C 
BRANCH   9  10
ATOM     10  C   UNL     1       3.719   5.931  19.332  0.00  0.00    +0.000 C 
BRANCH  10  11
ATOM     11  C   UNL     1       2.662   4.860  19.431  0.00  0.00    +0.000 A 
ATOM     12  C   UNL     1       2.106   4.529  20.663  0.00  0.00    +0.000 A 
ATOM     13  C   UNL     1       1.144   3.524  20.717  0.00  0.00    +0.000 A 
ATOM     14  C   UNL     1       0.770   2.874  19.548  0.00  0.00    +0.000 A 
ATOM     15  C   UNL     1       1.382   3.253  18.366  0.00  0.00    +0.000 A 
ATOM     16  N   UNL     1       2.317   4.226  18.282  0.00  0.00    +0.000 NA
ENDBRANCH  10  11
ENDBRANCH   9  10
ENDBRANCH   6   9
TORSDOF 3
ENDMDL
MODEL 6
REMARK VINA RESULT:      -6.7      1.617      1.892
REMARK  Name = 
REMARK  3 active torsions:
REMARK  status: ('A' for Active; 'I' for Inactive)
REMARK    1  A    between atoms: N_6  and  C_7
REMARK    2  A    between atoms: C_7  and  C_8
REMARK    3  A    between atoms: C_8  and  C_9
REMARK                            x       y       z     vdW  Elec       q    Type
REMARK                         _______ _______ _______ _____ _____    ______ ____
ROOT
ATOM      1  O   UNL     1       7.914   5.296  19.441  0.00  0.00    +0.000 OA
ATOM      2  S   UNL     1       7.280   5.108  18.151  0.00  0.00    +0.000 S 
ATOM      3  O   UNL     1       8.017   4.504  17.057  0.00  0.00    +0.000 OA
ATOM      4  C   UNL     1       6.679   6.686  17.603  0.00  0.00    +0.000 C 
ATOM      5  C   UNL     1       5.612   6.513  16.535  0.00  0.00    +0.000 C 
ATOM      6  N   UNL     1       4.449   5.705  16.943  0.00  0.00    +0.000 NA
ATOM      7  C   UNL     1       4.861   4.317  17.224  0.00  0.00    +0.000 C 
ATOM      8  C   UNL     1       5.800   4.159  18.408  0.00  0.00    +0.000 C 
ENDROOT
BRANCH   6   9
ATOM      9  C   UNL     1       3.663   6.293  18.050  0.00  0.00    +0.000 C 
BRANCH   9  10
ATOM     10  C   UNL     1       2.190   5.857  18.066  0.00  0.00    +0.000 C 
BRANCH  10  11
ATOM     11  C   UNL     1       1.942   4.815  19.128  0.00  0.00    +0.000 A 
ATOM     12  C   UNL     1       2.260   5.073  20.458  0.00  0.00    +0.000 A 
ATOM     13  C   UNL     1       2.032   4.081  21.408  0.00  0.00    +0.000 A 
ATOM     14  C   UNL     1       1.503   2.861  21.006  0.00  0.00    +0.000 A 
ATOM     15  C   UNL     1       1.229   2.679  19.662  0.00  0.00    +0.000 A 
ATOM     16  N   UNL     1       1.437   3.624  18.718  0.00  0.00    +0.000 NA
ENDBRANCH  10  11
ENDBRANCH   9  10
ENDBRANCH   6   9
TORSDOF 3
ENDMDL
MODEL 7
REMARK VINA RESULT:      -6.6      1.194      1.826
REMARK  Name = 
REMARK  3 active torsions:
REMARK  status: ('A' for Active; 'I' for Inactive)
REMARK    1  A    between atoms: N_6  and  C_7
REMARK    2  A    between atoms: C_7  and  C_8
REMARK    3  A    between atoms: C_8  and  C_9
REMARK                            x       y       z     vdW  Elec       q    Type
REMARK                         _______ _______ _______ _____ _____    ______ ____
ROOT
ATOM      1  O   UNL     1       7.725   5.895  15.376  0.00  0.00    +0.000 OA
ATOM      2  S   UNL     1       6.914   6.274  16.517  0.00  0.00    +0.000 S 
ATOM      3  O   UNL     1       6.990   7.621  17.051  0.00  0.00    +0.000 OA
ATOM      4  C   UNL     1       7.261   5.139  17.836  0.00  0.00    +0.000 C 
ATOM      5  C   UNL     1       6.145   5.156  18.867  0.00  0.00    +0.000 C 
ATOM      6  N   UNL     1       4.807   4.836  18.339  0.00  0.00    +0.000 NA
ATOM      7  C   UNL     1       4.377   5.864  17.372  0.00  0.00    +0.000 C 
ATOM      8  C   UNL     1       5.217   5.940  16.109  0.00  0.00    +0.000 C 
ENDROOT
BRANCH   6   9
ATOM      9  C   UNL     1       4.684   3.465  17.795  0.00  0.00    +0.000 C 
BRANCH   9  10
ATOM     10  C   UNL     1       3.236   2.961  17.703  0.00  0.00    +0.000 C 
BRANCH  10  11
ATOM     11  C   UNL     1       2.570   2.969  19.057  0.00  0.00    +0.000 A 
ATOM     12  C   UNL     1       1.284   3.477  19.208  0.00  0.00    +0.000 A 
ATOM     13  C   UNL     1       0.708   3.482  20.476  0.00  0.00    +0.000 A 
ATOM     14  C   UNL     1       1.431   2.990  21.555  0.00  0.00    +0.000 A 
ATOM     15  C   UNL     1       2.711   2.516  21.322  0.00  0.00    +0.000 A 
ATOM     16  N   UNL     1       3.294   2.496  20.103  0.00  0.00    +0.000 NA
ENDBRANCH  10  11
ENDBRANCH   9  10
ENDBRANCH   6   9
TORSDOF 3
ENDMDL
MODEL 8
REMARK VINA RESULT:      -6.6      1.978      2.724
REMARK  Name = 
REMARK  3 active torsions:
REMARK  status: ('A' for Active; 'I' for Inactive)
REMARK    1  A    between atoms: N_6  and  C_7
REMARK    2  A    between atoms: C_7  and  C_8
REMARK    3  A    between atoms: C_8  and  C_9
REMARK                            x       y       z     vdW  Elec       q    Type
REMARK                         _______ _______ _______ _____ _____    ______ ____
ROOT
ATOM      1  O   UNL     1       6.269   3.551  14.821  0.00  0.00    +0.000 OA
ATOM      2  S   UNL     1       6.704   4.779  15.458  0.00  0.00    +0.000 S 
ATOM      3  O   UNL     1       7.627   5.667  14.775  0.00  0.00    +0.000 OA
ATOM      4  C   UNL     1       7.410   4.357  17.031  0.00  0.00    +0.000 C 
ATOM      5  C   UNL     1       7.446   5.570  17.945  0.00  0.00    +0.000 C 
ATOM      6  N   UNL     1       6.138   6.201  18.193  0.00  0.00    +0.000 NA
ATOM      7  C   UNL     1       5.587   6.751  16.940  0.00  0.00    +0.000 C 
ATOM      8  C   UNL     1       5.254   5.712  15.882  0.00  0.00    +0.000 C 
ENDROOT
BRANCH   6   9
ATOM      9  C   UNL     1       5.171   5.331  18.898  0.00  0.00    +0.000 C 
BRANCH   9  10
ATOM     10  C   UNL     1       3.784   5.966  19.084  0.00  0.00    +0.000 C 
BRANCH  10  11
ATOM     11  C   UNL     1       2.728   4.913  19.306  0.00  0.00    +0.000 A 
ATOM     12  C   UNL     1       2.167   4.237  18.228  0.00  0.00    +0.000 A 
ATOM     13  C   UNL     1       1.183   3.282  18.471  0.00  0.00    +0.000 A 
ATOM     14  C   UNL     1       0.781   3.036  19.777  0.00  0.00    +0.000 A 
ATOM     15  C   UNL     1       1.378   3.762  20.793  0.00  0.00    +0.000 A 
ATOM     16  N   UNL     1       2.337   4.692  20.587  0.00  0.00    +0.000 NA
ENDBRANCH  10  11
ENDBRANCH   9  10
ENDBRANCH   6   9
TORSDOF 3
ENDMDL
MODEL 9
REMARK VINA RESULT:      -6.5      1.674      2.074
REMARK  Name = 
REMARK  3 active torsions:
REMARK  status: ('A' for Active; 'I' for Inactive)
REMARK    1  A    between atoms: N_6  and  C_7
REMARK    2  A    between atoms: C_7  and  C_8
REMARK    3  A    between atoms: C_8  and  C_9
REMARK                            x       y       z     vdW  Elec       q    Type
REMARK                         _______ _______ _______ _____ _____    ______ ____
ROOT
ATOM      1  O   UNL     1       8.090   6.827  18.365  0.00  0.00    +0.000 OA
ATOM      2  S   UNL     1       7.390   5.602  18.030  0.00  0.00    +0.000 S 
ATOM      3  O   UNL     1       8.134   4.379  17.793  0.00  0.00    +0.000 OA
ATOM      4  C   UNL     1       6.387   5.920  16.600  0.00  0.00    +0.000 C 
ATOM      5  C   UNL     1       5.289   4.879  16.473  0.00  0.00    +0.000 C 
ATOM      6  N   UNL     1       4.392   4.775  17.637  0.00  0.00    +0.000 NA
ATOM      7  C   UNL     1       5.141   4.319  18.824  0.00  0.00    +0.000 C 
ATOM      8  C   UNL     1       6.205   5.286  19.315  0.00  0.00    +0.000 C 
ENDROOT
BRANCH   6   9
ATOM      9  C   UNL     1       3.606   6.000  17.906  0.00  0.00    +0.000 C 
BRANCH   9  10
ATOM     10  C   UNL     1       2.086   5.789  17.843  0.00  0.00    +0.000 C 
BRANCH  10  11
ATOM     11  C   UNL     1       1.664   4.609  18.682  0.00  0.00    +0.000 A 
ATOM     12  C   UNL     1       1.653   4.699  20.070  0.00  0.00    +0.000 A 
ATOM     13  C   UNL     1       1.272   3.584  20.812  0.00  0.00    +0.000 A 
ATOM     14  C   UNL     1       0.924   2.412  20.153  0.00  0.00    +0.000 A 
ATOM     15  C   UNL     1       0.977   2.401  18.770  0.00  0.00    +0.000 A 
ATOM     16  N   UNL     1       1.339   3.469  18.023  0.00  0.00    +0.000 NA
ENDBRANCH  10  11
ENDBRANCH   9  10
ENDBRANCH   6   9
TORSDOF 3
ENDMDL
