MODEL 1
REMARK VINA RESULT:      -7.9      0.000      0.000
REMARK  Name = 
REMARK  3 active torsions:
REMARK  status: ('A' for Active; 'I' for Inactive)
REMARK    1  A    between atoms: C_3  and  O_4
REMARK    2  A    between atoms: C_5  and  C_6
REMARK    3  A    between atoms: C_15  and  O_16
REMARK                            x       y       z     vdW  Elec       q    Type
REMARK                         _______ _______ _______ _____ _____    ______ ____
ROOT
ATOM      1  O   UNL     1       6.501   4.760  19.333  0.00  0.00    +0.000 OA
ATOM      2  C   UNL     1       5.861   4.455  18.331  0.00  0.00    +0.000 A 
ATOM      3  C   UNL     1       6.503   4.508  17.000  0.00  0.00    +0.000 A 
ATOM      4  C   UNL     1       5.774   4.181  15.916  0.00  0.00    +0.000 A 
ATOM      5  O   UNL     1       4.444   3.795  15.946  0.00  0.00    +0.000 OA
ATOM      6  C   UNL     1       3.824   3.702  17.171  0.00  0.00    +0.000 A 
ATOM      7  C   UNL     1       2.500   3.264  17.183  0.00  0.00    +0.000 A 
ATOM      8  C   UNL     1       1.836   3.131  18.402  0.00  0.00    +0.000 A 
ATOM      9  C   UNL     1       2.468   3.448  19.603  0.00  0.00    +0.000 A 
ATOM     10  C   UNL     1       3.788   3.894  19.591  0.00  0.00    +0.000 A 
ATOM     11  C   UNL     1       4.462   4.014  18.371  0.00  0.00    +0.000 A 
ENDROOT
BRANCH   4  12
ATOM     12  C   UNL     1       6.377   4.227  14.578  0.00  0.00    +0.000 A 
ATOM     13  C   UNL     1       7.365   5.173  14.277  0.00  0.00    +0.000 A 
ATOM     14  C   UNL     1       7.818   5.324  12.964  0.00  0.00    +0.000 A 
ATOM     15  C   UNL     1       7.311   4.510  11.951  0.00  0.00    +0.000 A 
ATOM     16  C   UNL     1       6.356   3.540  12.250  0.00  0.00    +0.000 A 
ATOM     17  C   UNL     1       5.886   3.401  13.558  0.00  0.00    +0.000 A 
ENDBRANCH   4  12
BRANCH   3  18
ATOM     18  O   UNL     1       7.830   4.892  16.947  0.00  0.00    +0.000 OA
ATOM     19  H   UNL     1       7.897   5.657  17.556  0.00  0.00    +0.000 HD
ENDBRANCH   3  18
BRANCH   8  20
ATOM     20  O   UNL     1       0.551   2.683  18.468  0.00  0.00    +0.000 OA
ATOM     21  H   UNL     1       0.503   1.947  19.100  0.00  0.00    +0.000 HD
ENDBRANCH   8  20
TORSDOF 3
ENDMDL
MODEL 2
REMARK VINA RESULT:      -7.9      0.193      1.125
REMARK  Name = 
REMARK  3 active torsions:
REMARK  status: ('A' for Active; 'I' for Inactive)
REMARK    1  A    between atoms: C_3  and  O_4
REMARK    2  A    between atoms: C_5  and  C_6
REMARK    3  A    between atoms: C_15  and  O_16
REMARK                            x       y       z     vdW  Elec       q    Type
REMARK                         _______ _______ _______ _____ _____    ______ ____
ROOT
ATOM      1  O   UNL     1       6.650   4.740  19.200  0.00  0.00    +0.000 OA
ATOM      2  C   UNL     1       5.938   4.455  18.241  0.00  0.00    +0.000 A 
ATOM      3  C   UNL     1       6.475   4.556  16.868  0.00  0.00    +0.000 A 
ATOM      4  C   UNL     1       5.670   4.250  15.834  0.00  0.00    +0.000 A 
ATOM      5  O   UNL     1       4.351   3.842  15.953  0.00  0.00    +0.000 OA
ATOM      6  C   UNL     1       3.828   3.703  17.218  0.00  0.00    +0.000 A 
ATOM      7  C   UNL     1       2.515   3.245  17.318  0.00  0.00    +0.000 A 
ATOM      8  C   UNL     1       1.948   3.067  18.581  0.00  0.00    +0.000 A 
ATOM      9  C   UNL     1       2.667   3.357  19.738  0.00  0.00    +0.000 A 
ATOM     10  C   UNL     1       3.976   3.824  19.640  0.00  0.00    +0.000 A 
ATOM     11  C   UNL     1       4.552   3.990  18.375  0.00  0.00    +0.000 A 
ENDROOT
BRANCH   4  12
ATOM     12  C   UNL     1       6.166   4.344  14.455  0.00  0.00    +0.000 A 
ATOM     13  C   UNL     1       5.658   3.503  13.458  0.00  0.00    +0.000 A 
ATOM     14  C   UNL     1       6.244   3.478  12.190  0.00  0.00    +0.000 A 
ATOM     15  C   UNL     1       7.319   4.317  11.901  0.00  0.00    +0.000 A 
ATOM     16  C   UNL     1       7.807   5.187  12.876  0.00  0.00    +0.000 A 
ATOM     17  C   UNL     1       7.236   5.197  14.151  0.00  0.00    +0.000 A 
ENDBRANCH   4  12
BRANCH   3  18
ATOM     18  O   UNL     1       7.789   4.962  16.724  0.00  0.00    +0.000 OA
ATOM     19  H   UNL     1       7.886   5.173  15.773  0.00  0.00    +0.000 HD
ENDBRANCH   3  18
BRANCH   8  20
ATOM     20  O   UNL     1       0.679   2.597  18.731  0.00  0.00    +0.000 OA
ATOM     21  H   UNL     1       0.714   1.688  19.076  0.00  0.00    +0.000 HD
ENDBRANCH   8  20
TORSDOF 3
ENDMDL
MODEL 3
REMARK VINA RESULT:      -7.7      1.631      5.986
REMARK  Name = 
REMARK  3 active torsions:
REMARK  status: ('A' for Active; 'I' for Inactive)
REMARK    1  A    between atoms: C_3  and  O_4
REMARK    2  A    between atoms: C_5  and  C_6
REMARK    3  A    between atoms: C_15  and  O_16
REMARK                            x       y       z     vdW  Elec       q    Type
REMARK                         _______ _______ _______ _____ _____    ______ ____
ROOT
ATOM      1  O   UNL     1       8.011   5.552  17.842  0.00  0.00    +0.000 OA
ATOM      2  C   UNL     1       6.913   5.070  17.582  0.00  0.00    +0.000 A 
ATOM      3  C   UNL     1       5.919   4.872  18.658  0.00  0.00    +0.000 A 
ATOM      4  C   UNL     1       4.728   4.329  18.348  0.00  0.00    +0.000 A 
ATOM      5  O   UNL     1       4.349   3.928  17.077  0.00  0.00    +0.000 OA
ATOM      6  C   UNL     1       5.236   4.128  16.044  0.00  0.00    +0.000 A 
ATOM      7  C   UNL     1       4.817   3.763  14.765  0.00  0.00    +0.000 A 
ATOM      8  C   UNL     1       5.673   3.967  13.682  0.00  0.00    +0.000 A 
ATOM      9  C   UNL     1       6.943   4.512  13.863  0.00  0.00    +0.000 A 
ATOM     10  C   UNL     1       7.366   4.869  15.141  0.00  0.00    +0.000 A 
ATOM     11  C   UNL     1       6.505   4.678  16.228  0.00  0.00    +0.000 A 
ENDROOT
BRANCH   4  12
ATOM     12  C   UNL     1       3.718   4.113  19.392  0.00  0.00    +0.000 A 
ATOM     13  C   UNL     1       3.657   2.894  20.079  0.00  0.00    +0.000 A 
ATOM     14  C   UNL     1       2.598   2.630  20.951  0.00  0.00    +0.000 A 
ATOM     15  C   UNL     1       1.613   3.593  21.168  0.00  0.00    +0.000 A 
ATOM     16  C   UNL     1       1.688   4.824  20.518  0.00  0.00    +0.000 A 
ATOM     17  C   UNL     1       2.734   5.082  19.629  0.00  0.00    +0.000 A 
ENDBRANCH   4  12
BRANCH   3  18
ATOM     18  O   UNL     1       6.276   5.264  19.936  0.00  0.00    +0.000 OA
ATOM     19  H   UNL     1       6.393   4.429  20.434  0.00  0.00    +0.000 HD
ENDBRANCH   3  18
BRANCH   8  20
ATOM     20  O   UNL     1       5.300   3.651  12.411  0.00  0.00    +0.000 OA
ATOM     21  H   UNL     1       5.371   2.689  12.288  0.00  0.00    +0.000 HD
ENDBRANCH   8  20
TORSDOF 3
ENDMDL
MODEL 4
REMARK VINA RESULT:      -7.7      3.381      6.617
REMARK  Name = 
REMARK  3 active torsions:
REMARK  status: ('A' for Active; 'I' for Inactive)
REMARK    1  A    between atoms: C_3  and  O_4
REMARK    2  A    between atoms: C_5  and  C_6
REMARK    3  A    between atoms: C_15  and  O_16
REMARK                            x       y       z     vdW  Elec       q    Type
REMARK                         _______ _______ _______ _____ _____    ______ ____
ROOT
ATOM      1  O   UNL     1       2.867   2.888  17.511  0.00  0.00    +0.000 OA
ATOM      2  C   UNL     1       3.282   4.041  17.437  0.00  0.00    +0.000 A 
ATOM      3  C   UNL     1       2.576   5.127  18.149  0.00  0.00    +0.000 A 
ATOM      4  C   UNL     1       3.045   6.384  18.040  0.00  0.00    +0.000 A 
ATOM      5  O   UNL     1       4.155   6.752  17.298  0.00  0.00    +0.000 OA
ATOM      6  C   UNL     1       4.857   5.762  16.649  0.00  0.00    +0.000 A 
ATOM      7  C   UNL     1       6.000   6.147  15.947  0.00  0.00    +0.000 A 
ATOM      8  C   UNL     1       6.757   5.176  15.292  0.00  0.00    +0.000 A 
ATOM      9  C   UNL     1       6.379   3.835  15.313  0.00  0.00    +0.000 A 
ATOM     10  C   UNL     1       5.233   3.451  16.006  0.00  0.00    +0.000 A 
ATOM     11  C   UNL     1       4.479   4.420  16.676  0.00  0.00    +0.000 A 
ENDROOT
BRANCH   4  12
ATOM     12  C   UNL     1       2.367   7.489  18.729  0.00  0.00    +0.000 A 
ATOM     13  C   UNL     1       2.093   7.409  20.101  0.00  0.00    +0.000 A 
ATOM     14  C   UNL     1       1.306   8.382  20.720  0.00  0.00    +0.000 A 
ATOM     15  C   UNL     1       0.814   9.458  19.981  0.00  0.00    +0.000 A 
ATOM     16  C   UNL     1       1.114   9.566  18.624  0.00  0.00    +0.000 A 
ATOM     17  C   UNL     1       1.883   8.582  17.998  0.00  0.00    +0.000 A 
ENDBRANCH   4  12
BRANCH   3  18
ATOM     18  O   UNL     1       1.465   4.783  18.896  0.00  0.00    +0.000 OA
ATOM     19  H   UNL     1       1.404   3.808  18.825  0.00  0.00    +0.000 HD
ENDBRANCH   3  18
BRANCH   8  20
ATOM     20  O   UNL     1       7.894   5.497  14.615  0.00  0.00    +0.000 OA
ATOM     21  H   UNL     1       7.687   6.171  13.945  0.00  0.00    +0.000 HD
ENDBRANCH   8  20
TORSDOF 3
ENDMDL
MODEL 5
REMARK VINA RESULT:      -7.7      1.531      6.014
REMARK  Name = 
REMARK  3 active torsions:
REMARK  status: ('A' for Active; 'I' for Inactive)
REMARK    1  A    between atoms: C_3  and  O_4
REMARK    2  A    between atoms: C_5  and  C_6
REMARK    3  A    between atoms: C_15  and  O_16
REMARK                            x       y       z     vdW  Elec       q    Type
REMARK                         _______ _______ _______ _____ _____    ______ ____
ROOT
ATOM      1  O   UNL     1       7.462   6.019  18.034  0.00  0.00    +0.000 OA
ATOM      2  C   UNL     1       6.522   5.326  17.657  0.00  0.00    +0.000 A 
ATOM      3  C   UNL     1       5.449   4.958  18.605  0.00  0.00    +0.000 A 
ATOM      4  C   UNL     1       4.436   4.186  18.169  0.00  0.00    +0.000 A 
ATOM      5  O   UNL     1       4.316   3.695  16.879  0.00  0.00    +0.000 OA
ATOM      6  C   UNL     1       5.279   4.045  15.960  0.00  0.00    +0.000 A 
ATOM      7  C   UNL     1       5.113   3.581  14.655  0.00  0.00    +0.000 A 
ATOM      8  C   UNL     1       6.051   3.929  13.684  0.00  0.00    +0.000 A 
ATOM      9  C   UNL     1       7.158   4.715  14.001  0.00  0.00    +0.000 A 
ATOM     10  C   UNL     1       7.329   5.171  15.306  0.00  0.00    +0.000 A 
ATOM     11  C   UNL     1       6.382   4.836  16.280  0.00  0.00    +0.000 A 
ENDROOT
BRANCH   4  12
ATOM     12  C   UNL     1       3.355   3.797  19.083  0.00  0.00    +0.000 A 
ATOM     13  C   UNL     1       2.117   4.450  19.038  0.00  0.00    +0.000 A 
ATOM     14  C   UNL     1       1.150   4.195  20.013  0.00  0.00    +0.000 A 
ATOM     15  C   UNL     1       1.399   3.261  21.018  0.00  0.00    +0.000 A 
ATOM     16  C   UNL     1       2.614   2.577  21.047  0.00  0.00    +0.000 A 
ATOM     17  C   UNL     1       3.591   2.847  20.086  0.00  0.00    +0.000 A 
ENDBRANCH   4  12
BRANCH   3  18
ATOM     18  O   UNL     1       5.548   5.437  19.899  0.00  0.00    +0.000 OA
ATOM     19  H   UNL     1       6.500   5.632  20.023  0.00  0.00    +0.000 HD
ENDBRANCH   3  18
BRANCH   8  20
ATOM     20  O   UNL     1       5.920   3.522  12.390  0.00  0.00    +0.000 OA
ATOM     21  H   UNL     1       5.585   4.262  11.856  0.00  0.00    +0.000 HD
ENDBRANCH   8  20
TORSDOF 3
ENDMDL
MODEL 6
REMARK VINA RESULT:      -7.6      3.396      6.580
REMARK  Name = 
REMARK  3 active torsions:
REMARK  status: ('A' for Active; 'I' for Inactive)
REMARK    1  A    between atoms: C_3  and  O_4
REMARK    2  A    between atoms: C_5  and  C_6
REMARK    3  A    between atoms: C_15  and  O_16
REMARK                            x       y       z     vdW  Elec       q    Type
REMARK                         _______ _______ _______ _____ _____    ______ ____
ROOT
ATOM      1  O   UNL     1       3.011   2.774  17.742  0.00  0.00    +0.000 OA
ATOM      2  C   UNL     1       3.339   3.947  17.593  0.00  0.00    +0.000 A 
ATOM      3  C   UNL     1       2.565   5.020  18.251  0.00  0.00    +0.000 A 
ATOM      4  C   UNL     1       2.938   6.299  18.061  0.00  0.00    +0.000 A 
ATOM      5  O   UNL     1       4.010   6.701  17.280  0.00  0.00    +0.000 OA
ATOM      6  C   UNL     1       4.774   5.727  16.679  0.00  0.00    +0.000 A 
ATOM      7  C   UNL     1       5.877   6.150  15.938  0.00  0.00    +0.000 A 
ATOM      8  C   UNL     1       6.696   5.199  15.329  0.00  0.00    +0.000 A 
ATOM      9  C   UNL     1       6.418   3.838  15.435  0.00  0.00    +0.000 A 
ATOM     10  C   UNL     1       5.311   3.415  16.168  0.00  0.00    +0.000 A 
ATOM     11  C   UNL     1       4.496   4.365  16.792  0.00  0.00    +0.000 A 
ENDROOT
BRANCH   4  12
ATOM     12  C   UNL     1       2.189   7.391  18.695  0.00  0.00    +0.000 A 
ATOM     13  C   UNL     1       1.773   8.497  17.942  0.00  0.00    +0.000 A 
ATOM     14  C   UNL     1       1.208   9.607  18.574  0.00  0.00    +0.000 A 
ATOM     15  C   UNL     1       1.025   9.607  19.956  0.00  0.00    +0.000 A 
ATOM     16  C   UNL     1       1.401   8.494  20.709  0.00  0.00    +0.000 A 
ATOM     17  C   UNL     1       1.986   7.392  20.081  0.00  0.00    +0.000 A 
ENDBRANCH   4  12
BRANCH   3  18
ATOM     18  O   UNL     1       1.490   4.642  19.036  0.00  0.00    +0.000 OA
ATOM     19  H   UNL     1       1.441   5.319  19.742  0.00  0.00    +0.000 HD
ENDBRANCH   3  18
BRANCH   8  20
ATOM     20  O   UNL     1       7.798   5.561  14.616  0.00  0.00    +0.000 OA
ATOM     21  H   UNL     1       7.882   4.979  13.841  0.00  0.00    +0.000 HD
ENDBRANCH   8  20
TORSDOF 3
ENDMDL
MODEL 7
REMARK VINA RESULT:      -7.4      1.586      1.601
REMARK  Name = 
REMARK  3 active torsions:
REMARK  status: ('A' for Active; 'I' for Inactive)
REMARK    1  A    between atoms: C_3  and  O_4
REMARK    2  A    between atoms: C_5  and  C_6
REMARK    3  A    between atoms: C_15  and  O_16
REMARK                            x       y       z     vdW  Elec       q    Type
REMARK                         _______ _______ _______ _____ _____    ______ ____
ROOT
ATOM      1  O   UNL     1       3.937   7.149  17.911  0.00  0.00    +0.000 OA
ATOM      2  C   UNL     1       4.046   6.045  17.386  0.00  0.00    +0.000 A 
ATOM      3  C   UNL     1       4.929   5.869  16.213  0.00  0.00    +0.000 A 
ATOM      4  C   UNL     1       5.021   4.651  15.649  0.00  0.00    +0.000 A 
ATOM      5  O   UNL     1       4.339   3.526  16.083  0.00  0.00    +0.000 OA
ATOM      6  C   UNL     1       3.534   3.645  17.193  0.00  0.00    +0.000 A 
ATOM      7  C   UNL     1       2.895   2.489  17.643  0.00  0.00    +0.000 A 
ATOM      8  C   UNL     1       2.087   2.555  18.778  0.00  0.00    +0.000 A 
ATOM      9  C   UNL     1       1.894   3.757  19.455  0.00  0.00    +0.000 A 
ATOM     10  C   UNL     1       2.525   4.914  19.001  0.00  0.00    +0.000 A 
ATOM     11  C   UNL     1       3.348   4.849  17.871  0.00  0.00    +0.000 A 
ENDROOT
BRANCH   4  12
ATOM     12  C   UNL     1       5.883   4.440  14.480  0.00  0.00    +0.000 A 
ATOM     13  C   UNL     1       7.109   5.109  14.372  0.00  0.00    +0.000 A 
ATOM     14  C   UNL     1       7.850   5.037  13.190  0.00  0.00    +0.000 A 
ATOM     15  C   UNL     1       7.388   4.269  12.121  0.00  0.00    +0.000 A 
ATOM     16  C   UNL     1       6.188   3.569  12.234  0.00  0.00    +0.000 A 
ATOM     17  C   UNL     1       5.435   3.657  13.408  0.00  0.00    +0.000 A 
ENDBRANCH   4  12
BRANCH   3  18
ATOM     18  O   UNL     1       5.619   6.980  15.762  0.00  0.00    +0.000 OA
ATOM     19  H   UNL     1       5.171   7.235  14.929  0.00  0.00    +0.000 HD
ENDBRANCH   3  18
BRANCH   8  20
ATOM     20  O   UNL     1       1.462   1.449  19.271  0.00  0.00    +0.000 OA
ATOM     21  H   UNL     1       1.407   1.520  20.239  0.00  0.00    +0.000 HD
ENDBRANCH   8  20
TORSDOF 3
ENDMDL
MODEL 8
REMARK VINA RESULT:      -7.4      2.979      4.161
REMARK  Name = 
REMARK  3 active torsions:
REMARK  status: ('A' for Active; 'I' for Inactive)
REMARK    1  A    between atoms: C_3  and  O_4
REMARK    2  A    between atoms: C_5  and  C_6
REMARK    3  A    between atoms: C_15  and  O_16
REMARK                            x       y       z     vdW  Elec       q    Type
REMARK                         _______ _______ _______ _____ _____    ______ ____
ROOT
ATOM      1  O   UNL     1       2.577   2.934  16.268  0.00  0.00    +0.000 OA
ATOM      2  C   UNL     1       3.086   3.445  17.261  0.00  0.00    +0.000 A 
ATOM      3  C   UNL     1       4.258   4.334  17.115  0.00  0.00    +0.000 A 
ATOM      4  C   UNL     1       4.805   4.870  18.222  0.00  0.00    +0.000 A 
ATOM      5  O   UNL     1       4.353   4.650  19.513  0.00  0.00    +0.000 OA
ATOM      6  C   UNL     1       3.243   3.855  19.684  0.00  0.00    +0.000 A 
ATOM      7  C   UNL     1       2.774   3.686  20.987  0.00  0.00    +0.000 A 
ATOM      8  C   UNL     1       1.639   2.907  21.208  0.00  0.00    +0.000 A 
ATOM      9  C   UNL     1       0.979   2.282  20.151  0.00  0.00    +0.000 A 
ATOM     10  C   UNL     1       1.451   2.443  18.850  0.00  0.00    +0.000 A 
ATOM     11  C   UNL     1       2.582   3.235  18.623  0.00  0.00    +0.000 A 
ENDROOT
BRANCH   4  12
ATOM     12  C   UNL     1       5.972   5.754  18.116  0.00  0.00    +0.000 A 
ATOM     13  C   UNL     1       7.119   5.510  18.882  0.00  0.00    +0.000 A 
ATOM     14  C   UNL     1       8.162   6.439  18.906  0.00  0.00    +0.000 A 
ATOM     15  C   UNL     1       8.081   7.601  18.139  0.00  0.00    +0.000 A 
ATOM     16  C   UNL     1       6.960   7.833  17.343  0.00  0.00    +0.000 A 
ATOM     17  C   UNL     1       5.906   6.915  17.335  0.00  0.00    +0.000 A 
ENDBRANCH   4  12
BRANCH   3  18
ATOM     18  O   UNL     1       4.727   4.567  15.835  0.00  0.00    +0.000 OA
ATOM     19  H   UNL     1       5.364   3.844  15.664  0.00  0.00    +0.000 HD
ENDBRANCH   3  18
BRANCH   8  20
ATOM     20  O   UNL     1       1.128   2.732  22.458  0.00  0.00    +0.000 OA
ATOM     21  H   UNL     1       1.797   2.992  23.115  0.00  0.00    +0.000 HD
ENDBRANCH   8  20
TORSDOF 3
ENDMDL
MODEL 9
REMARK VINA RESULT:      -7.4      2.142      6.396
REMARK  Name = 
REMARK  3 active torsions:
REMARK  status: ('A' for Active; 'I' for Inactive)
REMARK    1  A    between atoms: C_3  and  O_4
REMARK    2  A    between atoms: C_5  and  C_6
REMARK    3  A    between atoms: C_15  and  O_16
REMARK                            x       y       z     vdW  Elec       q    Type
REMARK                         _______ _______ _______ _____ _____    ______ ____
ROOT
ATOM      1  O   UNL     1       4.427   7.654  17.399  0.00  0.00    +0.000 OA
ATOM      2  C   UNL     1       4.334   6.430  17.396  0.00  0.00    +0.000 A 
ATOM      3  C   UNL     1       3.562   5.746  18.455  0.00  0.00    +0.000 A 
ATOM      4  C   UNL     1       3.487   4.402  18.436  0.00  0.00    +0.000 A 
ATOM      5  O   UNL     1       4.088   3.591  17.487  0.00  0.00    +0.000 OA
ATOM      6  C   UNL     1       4.786   4.195  16.467  0.00  0.00    +0.000 A 
ATOM      7  C   UNL     1       5.342   3.363  15.495  0.00  0.00    +0.000 A 
ATOM      8  C   UNL     1       6.040   3.930  14.429  0.00  0.00    +0.000 A 
ATOM      9  C   UNL     1       6.204   5.310  14.331  0.00  0.00    +0.000 A 
ATOM     10  C   UNL     1       5.657   6.142  15.306  0.00  0.00    +0.000 A 
ATOM     11  C   UNL     1       4.945   5.577  16.369  0.00  0.00    +0.000 A 
ENDROOT
BRANCH   4  12
ATOM     12  C   UNL     1       2.734   3.688  19.474  0.00  0.00    +0.000 A 
ATOM     13  C   UNL     1       1.333   3.690  19.464  0.00  0.00    +0.000 A 
ATOM     14  C   UNL     1       0.620   3.153  20.538  0.00  0.00    +0.000 A 
ATOM     15  C   UNL     1       1.300   2.581  21.613  0.00  0.00    +0.000 A 
ATOM     16  C   UNL     1       2.694   2.540  21.613  0.00  0.00    +0.000 A 
ATOM     17  C   UNL     1       3.409   3.095  20.550  0.00  0.00    +0.000 A 
ENDBRANCH   4  12
BRANCH   3  18
ATOM     18  O   UNL     1       2.954   6.536  19.413  0.00  0.00    +0.000 OA
ATOM     19  H   UNL     1       3.521   6.452  20.207  0.00  0.00    +0.000 HD
ENDBRANCH   3  18
BRANCH   8  20
ATOM     20  O   UNL     1       6.579   3.162  13.442  0.00  0.00    +0.000 OA
ATOM     21  H   UNL     1       5.929   2.493  13.168  0.00  0.00    +0.000 HD
ENDBRANCH   8  20
TORSDOF 3
ENDMDL
