MODEL 1
REMARK VINA RESULT:      -6.0      0.000      0.000
REMARK  Name = 
REMARK  16 active torsions:
REMARK  status: ('A' for Active; 'I' for Inactive)
REMARK    1  A    between atoms: C_1  and  C_2
REMARK    2  A    between atoms: C_2  and  C_3
REMARK    3  A    between atoms: C_2  and  C_4
REMARK    4  A    between atoms: C_2  and  C_5
REMARK    5  A    between atoms: C_5  and  O_6
REMARK    6  A    between atoms: O_6  and  C_7
REMARK    7  A    between atoms: C_7  and  C_8
REMARK    8  A    between atoms: C_7  and  C_10
REMARK    9  A    between atoms: C_8  and  O_9
REMARK   10  A    between atoms: C_10  and  O_11
REMARK   11  A    between atoms: C_10  and  C_12
REMARK   12  A    between atoms: C_12  and  S_13
REMARK   13  A    between atoms: C_15  and  O_16
REMARK   14  A    between atoms: C_17  and  O_18
REMARK   15  A    between atoms: C_19  and  C_20
REMARK   16  A    between atoms: C_20  and  O_21
REMARK                            x       y       z     vdW  Elec       q    Type
REMARK                         _______ _______ _______ _____ _____    ______ ____
ROOT
ATOM      1  C   UNL     1       5.067   5.942  16.484  0.00  0.00    +0.000 C 
ENDROOT
BRANCH   1   2
ATOM      2  O   UNL     1       5.693   6.637  17.570  0.00  0.00    +0.000 OA
ATOM      3  H   UNL     1       6.661   6.503  17.507  0.00  0.00    +0.000 HD
ENDBRANCH   1   2
BRANCH   1   4
ATOM      4  C   UNL     1       6.110   5.328  15.508  0.00  0.00    +0.000 C 
BRANCH   4   5
ATOM      5  O   UNL     1       5.559   4.787  14.291  0.00  0.00    +0.000 OA
BRANCH   5   6
ATOM      6  C   UNL     1       6.103   3.536  13.871  0.00  0.00    +0.000 C 
BRANCH   6   8
ATOM      7  C   UNL     1       6.553   2.060  11.856  0.00  0.00    +0.000 C 
ATOM      8  C   UNL     1       6.100   3.456  12.321  0.00  0.00    +0.000 C 
ATOM      9  C   UNL     1       7.057   4.505  11.733  0.00  0.00    +0.000 C 
ATOM     10  C   UNL     1       4.682   3.725  11.791  0.00  0.00    +0.000 C 
ENDBRANCH   6   8
ENDBRANCH   5   6
ENDBRANCH   4   5
BRANCH   4  11
ATOM     11  C   UNL     1       6.958   4.212  16.142  0.00  0.00    +0.000 C 
BRANCH  11  12
ATOM     12  O   UNL     1       7.814   4.766  17.150  0.00  0.00    +0.000 OA
ATOM     13  H   UNL     1       7.763   4.160  17.912  0.00  0.00    +0.000 HD
ENDBRANCH  11  12
ENDBRANCH   4  11
ENDBRANCH   1   4
BRANCH   1  14
ATOM     14  C   UNL     1       3.926   5.050  17.024  0.00  0.00    +0.000 C 
BRANCH  14  15
ATOM     15  S   UNL     1       3.684   5.035  18.827  0.00  0.00    +0.000 S 
ATOM     16  C   UNL     1       4.957   3.794  19.233  0.00  0.00    +0.000 C 
ATOM     17  C   UNL     1       4.370   2.401  19.141  0.00  0.00    +0.000 C 
ATOM     18  C   UNL     1       2.889   2.488  19.510  0.00  0.00    +0.000 C 
ATOM     19  C   UNL     1       2.310   3.805  18.966  0.00  0.00    +0.000 C 
BRANCH  17  20
ATOM     20  O   UNL     1       5.041   1.525  20.054  0.00  0.00    +0.000 OA
ATOM     21  H   UNL     1       5.584   0.918  19.516  0.00  0.00    +0.000 HD
ENDBRANCH  17  20
BRANCH  18  22
ATOM     22  O   UNL     1       2.232   1.336  18.951  0.00  0.00    +0.000 OA
ATOM     23  H   UNL     1       1.996   1.537  18.027  0.00  0.00    +0.000 HD
ENDBRANCH  18  22
BRANCH  19  24
ATOM     24  C   UNL     1       1.281   4.374  19.960  0.00  0.00    +0.000 C 
BRANCH  24  25
ATOM     25  O   UNL     1       0.691   3.383  20.778  0.00  0.00    +0.000 OA
ATOM     26  H   UNL     1      -0.080   3.031  20.305  0.00  0.00    +0.000 HD
ENDBRANCH  24  25
ENDBRANCH  19  24
ENDBRANCH  14  15
ENDBRANCH   1  14
TORSDOF 13
ENDMDL
MODEL 2
REMARK VINA RESULT:      -5.8      2.552      6.835
REMARK  Name = 
REMARK  16 active torsions:
REMARK  status: ('A' for Active; 'I' for Inactive)
REMARK    1  A    between atoms: C_1  and  C_2
REMARK    2  A    between atoms: C_2  and  C_3
REMARK    3  A    between atoms: C_2  and  C_4
REMARK    4  A    between atoms: C_2  and  C_5
REMARK    5  A    between atoms: C_5  and  O_6
REMARK    6  A    between atoms: O_6  and  C_7
REMARK    7  A    between atoms: C_7  and  C_8
REMARK    8  A    between atoms: C_7  and  C_10
REMARK    9  A    between atoms: C_8  and  O_9
REMARK   10  A    between atoms: C_10  and  O_11
REMARK   11  A    between atoms: C_10  and  C_12
REMARK   12  A    between atoms: C_12  and  S_13
REMARK   13  A    between atoms: C_15  and  O_16
REMARK   14  A    between atoms: C_17  and  O_18
REMARK   15  A    between atoms: C_19  and  C_20
REMARK   16  A    between atoms: C_20  and  O_21
REMARK                            x       y       z     vdW  Elec       q    Type
REMARK                         _______ _______ _______ _____ _____    ______ ____
ROOT
ATOM      1  C   UNL     1       3.686   6.361  18.311  0.00  0.00    +0.000 C 
ENDROOT
BRANCH   1   2
ATOM      2  O   UNL     1       3.595   7.543  17.506  0.00  0.00    +0.000 OA
ATOM      3  H   UNL     1       4.501   7.816  17.253  0.00  0.00    +0.000 HD
ENDBRANCH   1   2
BRANCH   1   4
ATOM      4  C   UNL     1       2.862   6.485  19.624  0.00  0.00    +0.000 C 
BRANCH   4   5
ATOM      5  O   UNL     1       1.936   5.408  19.864  0.00  0.00    +0.000 OA
BRANCH   5   6
ATOM      6  C   UNL     1       2.204   4.609  21.016  0.00  0.00    +0.000 C 
BRANCH   6   8
ATOM      7  C   UNL     1       0.884   2.990  19.575  0.00  0.00    +0.000 C 
ATOM      8  C   UNL     1       1.933   3.115  20.695  0.00  0.00    +0.000 C 
ATOM      9  C   UNL     1       1.407   2.389  21.944  0.00  0.00    +0.000 C 
ATOM     10  C   UNL     1       3.236   2.439  20.240  0.00  0.00    +0.000 C 
ENDBRANCH   6   8
ENDBRANCH   5   6
ENDBRANCH   4   5
BRANCH   4  11
ATOM     11  C   UNL     1       2.054   7.791  19.717  0.00  0.00    +0.000 C 
BRANCH  11  12
ATOM     12  O   UNL     1       1.763   8.085  21.089  0.00  0.00    +0.000 OA
ATOM     13  H   UNL     1       2.222   8.921  21.290  0.00  0.00    +0.000 HD
ENDBRANCH  11  12
ENDBRANCH   4  11
ENDBRANCH   1   4
BRANCH   1  14
ATOM     14  C   UNL     1       3.500   5.110  17.422  0.00  0.00    +0.000 C 
BRANCH  14  15
ATOM     15  S   UNL     1       4.992   4.131  17.067  0.00  0.00    +0.000 S 
ATOM     16  C   UNL     1       5.841   4.395  18.659  0.00  0.00    +0.000 C 
ATOM     17  C   UNL     1       6.660   5.667  18.605  0.00  0.00    +0.000 C 
ATOM     18  C   UNL     1       7.132   5.864  17.165  0.00  0.00    +0.000 C 
ATOM     19  C   UNL     1       6.023   5.401  16.203  0.00  0.00    +0.000 C 
BRANCH  17  20
ATOM     20  O   UNL     1       7.797   5.555  19.470  0.00  0.00    +0.000 OA
ATOM     21  H   UNL     1       7.917   6.427  19.893  0.00  0.00    +0.000 HD
ENDBRANCH  17  20
BRANCH  18  22
ATOM     22  O   UNL     1       7.448   7.257  16.995  0.00  0.00    +0.000 OA
ATOM     23  H   UNL     1       8.393   7.384  17.197  0.00  0.00    +0.000 HD
ENDBRANCH  18  22
BRANCH  19  24
ATOM     24  C   UNL     1       6.648   4.726  14.970  0.00  0.00    +0.000 C 
BRANCH  24  25
ATOM     25  O   UNL     1       7.769   5.425  14.460  0.00  0.00    +0.000 OA
ATOM     26  H   UNL     1       7.583   6.374  14.539  0.00  0.00    +0.000 HD
ENDBRANCH  24  25
ENDBRANCH  19  24
ENDBRANCH  14  15
ENDBRANCH   1  14
TORSDOF 13
ENDMDL
MODEL 3
REMARK VINA RESULT:      -5.7      3.172      6.060
REMARK  Name = 
REMARK  16 active torsions:
REMARK  status: ('A' for Active; 'I' for Inactive)
REMARK    1  A    between atoms: C_1  and  C_2
REMARK    2  A    between atoms: C_2  and  C_3
REMARK    3  A    between atoms: C_2  and  C_4
REMARK    4  A    between atoms: C_2  and  C_5
REMARK    5  A    between atoms: C_5  and  O_6
REMARK    6  A    between atoms: O_6  and  C_7
REMARK    7  A    between atoms: C_7  and  C_8
REMARK    8  A    between atoms: C_7  and  C_10
REMARK    9  A    between atoms: C_8  and  O_9
REMARK   10  A    between atoms: C_10  and  O_11
REMARK   11  A    between atoms: C_10  and  C_12
REMARK   12  A    between atoms: C_12  and  S_13
REMARK   13  A    between atoms: C_15  and  O_16
REMARK   14  A    between atoms: C_17  and  O_18
REMARK   15  A    between atoms: C_19  and  C_20
REMARK   16  A    between atoms: C_20  and  O_21
REMARK                            x       y       z     vdW  Elec       q    Type
REMARK                         _______ _______ _______ _____ _____    ______ ____
ROOT
ATOM      1  C   UNL     1       4.021   6.856  18.117  0.00  0.00    +0.000 C 
ENDROOT
BRANCH   1   2
ATOM      2  O   UNL     1       2.960   7.782  17.855  0.00  0.00    +0.000 OA
ATOM      3  H   UNL     1       3.137   8.222  16.998  0.00  0.00    +0.000 HD
ENDBRANCH   1   2
BRANCH   1   4
ATOM      4  C   UNL     1       3.701   5.928  19.324  0.00  0.00    +0.000 C 
BRANCH   4   5
ATOM      5  O   UNL     1       3.975   4.531  19.105  0.00  0.00    +0.000 OA
BRANCH   5   6
ATOM      6  C   UNL     1       3.014   3.622  19.644  0.00  0.00    +0.000 C 
BRANCH   6   8
ATOM      7  C   UNL     1       3.515   1.432  18.464  0.00  0.00    +0.000 C 
ATOM      8  C   UNL     1       2.552   2.631  18.544  0.00  0.00    +0.000 C 
ATOM      9  C   UNL     1       2.524   3.331  17.175  0.00  0.00    +0.000 C 
ATOM     10  C   UNL     1       1.139   2.119  18.868  0.00  0.00    +0.000 C 
ENDBRANCH   6   8
ENDBRANCH   5   6
ENDBRANCH   4   5
BRANCH   4  11
ATOM     11  C   UNL     1       2.240   6.023  19.796  0.00  0.00    +0.000 C 
BRANCH  11  12
ATOM     12  O   UNL     1       2.104   7.090  20.743  0.00  0.00    +0.000 OA
ATOM     13  H   UNL     1       3.008   7.405  20.927  0.00  0.00    +0.000 HD
ENDBRANCH  11  12
ENDBRANCH   4  11
ENDBRANCH   1   4
BRANCH   1  14
ATOM     14  C   UNL     1       4.503   6.225  16.791  0.00  0.00    +0.000 C 
BRANCH  14  15
ATOM     15  S   UNL     1       6.193   6.633  16.258  0.00  0.00    +0.000 S 
ATOM     16  C   UNL     1       6.905   4.961  16.405  0.00  0.00    +0.000 C 
ATOM     17  C   UNL     1       7.404   4.733  17.816  0.00  0.00    +0.000 C 
ATOM     18  C   UNL     1       7.861   6.078  18.379  0.00  0.00    +0.000 C 
ATOM     19  C   UNL     1       6.923   7.185  17.865  0.00  0.00    +0.000 C 
BRANCH  17  20
ATOM     20  O   UNL     1       8.507   3.818  17.805  0.00  0.00    +0.000 OA
ATOM     21  H   UNL     1       8.770   3.681  18.735  0.00  0.00    +0.000 HD
ENDBRANCH  17  20
BRANCH  18  22
ATOM     22  O   UNL     1       7.846   5.979  19.814  0.00  0.00    +0.000 OA
ATOM     23  H   UNL     1       8.413   6.684  20.176  0.00  0.00    +0.000 HD
ENDBRANCH  18  22
BRANCH  19  24
ATOM     24  C   UNL     1       7.728   8.467  17.590  0.00  0.00    +0.000 C 
BRANCH  24  25
ATOM     25  O   UNL     1       8.627   8.794  18.633  0.00  0.00    +0.000 OA
ATOM     26  H   UNL     1       8.922   9.708  18.491  0.00  0.00    +0.000 HD
ENDBRANCH  24  25
ENDBRANCH  19  24
ENDBRANCH  14  15
ENDBRANCH   1  14
TORSDOF 13
ENDMDL
MODEL 4
REMARK VINA RESULT:      -5.6      1.664      2.966
REMARK  Name = 
REMARK  16 active torsions:
REMARK  status: ('A' for Active; 'I' for Inactive)
REMARK    1  A    between atoms: C_1  and  C_2
REMARK    2  A    between atoms: C_2  and  C_3
REMARK    3  A    between atoms: C_2  and  C_4
REMARK    4  A    between atoms: C_2  and  C_5
REMARK    5  A    between atoms: C_5  and  O_6
REMARK    6  A    between atoms: O_6  and  C_7
REMARK    7  A    between atoms: C_7  and  C_8
REMARK    8  A    between atoms: C_7  and  C_10
REMARK    9  A    between atoms: C_8  and  O_9
REMARK   10  A    between atoms: C_10  and  O_11
REMARK   11  A    between atoms: C_10  and  C_12
REMARK   12  A    between atoms: C_12  and  S_13
REMARK   13  A    between atoms: C_15  and  O_16
REMARK   14  A    between atoms: C_17  and  O_18
REMARK   15  A    between atoms: C_19  and  C_20
REMARK   16  A    between atoms: C_20  and  O_21
REMARK                            x       y       z     vdW  Elec       q    Type
REMARK                         _______ _______ _______ _____ _____    ______ ____
ROOT
ATOM      1  C   UNL     1       4.501   6.286  17.698  0.00  0.00    +0.000 C 
ENDROOT
BRANCH   1   2
ATOM      2  O   UNL     1       3.526   7.333  17.779  0.00  0.00    +0.000 OA
ATOM      3  H   UNL     1       2.662   6.935  18.015  0.00  0.00    +0.000 HD
ENDBRANCH   1   2
BRANCH   1   4
ATOM      4  C   UNL     1       5.900   6.824  17.286  0.00  0.00    +0.000 C 
BRANCH   4   5
ATOM      5  O   UNL     1       6.298   6.512  15.936  0.00  0.00    +0.000 OA
BRANCH   5   6
ATOM      6  C   UNL     1       5.330   5.810  15.155  0.00  0.00    +0.000 C 
BRANCH   6   8
ATOM      7  C   UNL     1       6.048   3.408  15.548  0.00  0.00    +0.000 C 
ATOM      8  C   UNL     1       5.980   4.552  14.520  0.00  0.00    +0.000 C 
ATOM      9  C   UNL     1       7.406   4.872  14.045  0.00  0.00    +0.000 C 
ATOM     10  C   UNL     1       5.146   4.092  13.313  0.00  0.00    +0.000 C 
ENDBRANCH   6   8
ENDBRANCH   5   6
ENDBRANCH   4   5
BRANCH   4  11
ATOM     11  C   UNL     1       7.036   6.339  18.204  0.00  0.00    +0.000 C 
BRANCH  11  12
ATOM     12  O   UNL     1       7.795   5.321  17.539  0.00  0.00    +0.000 OA
ATOM     13  H   UNL     1       7.427   4.470  17.839  0.00  0.00    +0.000 HD
ENDBRANCH  11  12
ENDBRANCH   4  11
ENDBRANCH   1   4
BRANCH   1  14
ATOM     14  C   UNL     1       4.383   5.367  18.935  0.00  0.00    +0.000 C 
BRANCH  14  15
ATOM     15  S   UNL     1       3.899   3.641  18.627  0.00  0.00    +0.000 S 
ATOM     16  C   UNL     1       2.092   3.879  18.696  0.00  0.00    +0.000 C 
ATOM     17  C   UNL     1       1.608   3.762  20.126  0.00  0.00    +0.000 C 
ATOM     18  C   UNL     1       2.526   2.782  20.856  0.00  0.00    +0.000 C 
ATOM     19  C   UNL     1       3.966   2.966  20.348  0.00  0.00    +0.000 C 
BRANCH  17  20
ATOM     20  O   UNL     1       0.263   3.268  20.150  0.00  0.00    +0.000 OA
ATOM     21  H   UNL     1       0.238   2.489  19.561  0.00  0.00    +0.000 HD
ENDBRANCH  17  20
BRANCH  18  22
ATOM     22  O   UNL     1       2.411   3.044  22.266  0.00  0.00    +0.000 OA
ATOM     23  H   UNL     1       1.635   3.616  22.410  0.00  0.00    +0.000 HD
ENDBRANCH  18  22
BRANCH  19  24
ATOM     24  C   UNL     1       4.676   1.602  20.281  0.00  0.00    +0.000 C 
BRANCH  24  25
ATOM     25  O   UNL     1       5.517   1.357  21.392  0.00  0.00    +0.000 OA
ATOM     26  H   UNL     1       6.419   1.232  21.056  0.00  0.00    +0.000 HD
ENDBRANCH  24  25
ENDBRANCH  19  24
ENDBRANCH  14  15
ENDBRANCH   1  14
TORSDOF 13
ENDMDL
MODEL 5
REMARK VINA RESULT:      -5.6      1.324      1.677
REMARK  Name = 
REMARK  16 active torsions:
REMARK  status: ('A' for Active; 'I' for Inactive)
REMARK    1  A    between atoms: C_1  and  C_2
REMARK    2  A    between atoms: C_2  and  C_3
REMARK    3  A    between atoms: C_2  and  C_4
REMARK    4  A    between atoms: C_2  and  C_5
REMARK    5  A    between atoms: C_5  and  O_6
REMARK    6  A    between atoms: O_6  and  C_7
REMARK    7  A    between atoms: C_7  and  C_8
REMARK    8  A    between atoms: C_7  and  C_10
REMARK    9  A    between atoms: C_8  and  O_9
REMARK   10  A    between atoms: C_10  and  O_11
REMARK   11  A    between atoms: C_10  and  C_12
REMARK   12  A    between atoms: C_12  and  S_13
REMARK   13  A    between atoms: C_15  and  O_16
REMARK   14  A    between atoms: C_17  and  O_18
REMARK   15  A    between atoms: C_19  and  C_20
REMARK   16  A    between atoms: C_20  and  O_21
REMARK                            x       y       z     vdW  Elec       q    Type
REMARK                         _______ _______ _______ _____ _____    ______ ____
ROOT
ATOM      1  C   UNL     1       5.176   6.011  16.085  0.00  0.00    +0.000 C 
ENDROOT
BRANCH   1   2
ATOM      2  O   UNL     1       4.800   7.188  15.359  0.00  0.00    +0.000 OA
ATOM      3  H   UNL     1       5.099   7.972  15.865  0.00  0.00    +0.000 HD
ENDBRANCH   1   2
BRANCH   1   4
ATOM      4  C   UNL     1       6.343   5.249  15.396  0.00  0.00    +0.000 C 
BRANCH   4   5
ATOM      5  O   UNL     1       6.115   4.911  14.014  0.00  0.00    +0.000 OA
BRANCH   5   6
ATOM      6  C   UNL     1       6.203   3.521  13.696  0.00  0.00    +0.000 C 
BRANCH   6   8
ATOM      7  C   UNL     1       4.653   3.519  11.687  0.00  0.00    +0.000 C 
ATOM      8  C   UNL     1       6.105   3.326  12.160  0.00  0.00    +0.000 C 
ATOM      9  C   UNL     1       6.564   1.911  11.773  0.00  0.00    +0.000 C 
ATOM     10  C   UNL     1       7.004   4.351  11.449  0.00  0.00    +0.000 C 
ENDBRANCH   6   8
ENDBRANCH   5   6
ENDBRANCH   4   5
BRANCH   4  11
ATOM     11  C   UNL     1       6.727   3.943  16.112  0.00  0.00    +0.000 C 
BRANCH  11  12
ATOM     12  O   UNL     1       7.893   4.156  16.919  0.00  0.00    +0.000 OA
ATOM     13  H   UNL     1       7.973   5.121  17.028  0.00  0.00    +0.000 HD
ENDBRANCH  11  12
ENDBRANCH   4  11
ENDBRANCH   1   4
BRANCH   1  14
ATOM     14  C   UNL     1       5.279   6.338  17.592  0.00  0.00    +0.000 C 
BRANCH  14  15
ATOM     15  S   UNL     1       3.903   5.781  18.645  0.00  0.00    +0.000 S 
ATOM     16  C   UNL     1       4.865   4.689  19.744  0.00  0.00    +0.000 C 
ATOM     17  C   UNL     1       4.965   3.304  19.139  0.00  0.00    +0.000 C 
ATOM     18  C   UNL     1       3.698   3.053  18.322  0.00  0.00    +0.000 C 
ATOM     19  C   UNL     1       3.270   4.364  17.639  0.00  0.00    +0.000 C 
BRANCH  17  20
ATOM     20  O   UNL     1       5.068   2.322  20.177  0.00  0.00    +0.000 OA
ATOM     21  H   UNL     1       4.960   1.449  19.752  0.00  0.00    +0.000 HD
ENDBRANCH  17  20
BRANCH  18  22
ATOM     22  O   UNL     1       3.991   2.017  17.367  0.00  0.00    +0.000 OA
ATOM     23  H   UNL     1       3.470   2.186  16.561  0.00  0.00    +0.000 HD
ENDBRANCH  18  22
BRANCH  19  24
ATOM     24  C   UNL     1       1.734   4.465  17.616  0.00  0.00    +0.000 C 
BRANCH  24  25
ATOM     25  O   UNL     1       1.091   3.231  17.872  0.00  0.00    +0.000 OA
ATOM     26  H   UNL     1       1.265   2.647  17.116  0.00  0.00    +0.000 HD
ENDBRANCH  24  25
ENDBRANCH  19  24
ENDBRANCH  14  15
ENDBRANCH   1  14
TORSDOF 13
ENDMDL
MODEL 6
REMARK VINA RESULT:      -5.5      2.461      6.189
REMARK  Name = 
REMARK  16 active torsions:
REMARK  status: ('A' for Active; 'I' for Inactive)
REMARK    1  A    between atoms: C_1  and  C_2
REMARK    2  A    between atoms: C_2  and  C_3
REMARK    3  A    between atoms: C_2  and  C_4
REMARK    4  A    between atoms: C_2  and  C_5
REMARK    5  A    between atoms: C_5  and  O_6
REMARK    6  A    between atoms: O_6  and  C_7
REMARK    7  A    between atoms: C_7  and  C_8
REMARK    8  A    between atoms: C_7  and  C_10
REMARK    9  A    between atoms: C_8  and  O_9
REMARK   10  A    between atoms: C_10  and  O_11
REMARK   11  A    between atoms: C_10  and  C_12
REMARK   12  A    between atoms: C_12  and  S_13
REMARK   13  A    between atoms: C_15  and  O_16
REMARK   14  A    between atoms: C_17  and  O_18
REMARK   15  A    between atoms: C_19  and  C_20
REMARK   16  A    between atoms: C_20  and  O_21
REMARK                            x       y       z     vdW  Elec       q    Type
REMARK                         _______ _______ _______ _____ _____    ______ ____
ROOT
ATOM      1  C   UNL     1       4.583   5.167  19.198  0.00  0.00    +0.000 C 
ENDROOT
BRANCH   1   2
ATOM      2  O   UNL     1       3.881   5.520  20.396  0.00  0.00    +0.000 OA
ATOM      3  H   UNL     1       3.983   4.790  21.041  0.00  0.00    +0.000 HD
ENDBRANCH   1   2
BRANCH   1   4
ATOM      4  C   UNL     1       4.671   3.626  19.006  0.00  0.00    +0.000 C 
BRANCH   4   5
ATOM      5  O   UNL     1       3.636   3.056  18.182  0.00  0.00    +0.000 OA
BRANCH   5   6
ATOM      6  C   UNL     1       2.644   2.297  18.874  0.00  0.00    +0.000 C 
BRANCH   6   8
ATOM      7  C   UNL     1       1.076   3.794  20.192  0.00  0.00    +0.000 C 
ATOM      8  C   UNL     1       1.293   3.059  18.857  0.00  0.00    +0.000 C 
ATOM      9  C   UNL     1       0.131   2.075  18.643  0.00  0.00    +0.000 C 
ATOM     10  C   UNL     1       1.290   4.085  17.713  0.00  0.00    +0.000 C 
ENDBRANCH   6   8
ENDBRANCH   5   6
ENDBRANCH   4   5
BRANCH   4  11
ATOM     11  C   UNL     1       4.660   2.844  20.331  0.00  0.00    +0.000 C 
BRANCH  11  12
ATOM     12  O   UNL     1       5.340   1.594  20.163  0.00  0.00    +0.000 OA
ATOM     13  H   UNL     1       5.621   1.563  19.230  0.00  0.00    +0.000 HD
ENDBRANCH  11  12
ENDBRANCH   4  11
ENDBRANCH   1   4
BRANCH   1  14
ATOM     14  C   UNL     1       4.086   6.043  18.025  0.00  0.00    +0.000 C 
BRANCH  14  15
ATOM     15  S   UNL     1       5.358   6.924  17.068  0.00  0.00    +0.000 S 
ATOM     16  C   UNL     1       5.371   5.826  15.612  0.00  0.00    +0.000 C 
ATOM     17  C   UNL     1       6.333   4.679  15.838  0.00  0.00    +0.000 C 
ATOM     18  C   UNL     1       7.465   5.181  16.734  0.00  0.00    +0.000 C 
ATOM     19  C   UNL     1       6.889   6.162  17.771  0.00  0.00    +0.000 C 
BRANCH  17  20
ATOM     20  O   UNL     1       6.874   4.239  14.586  0.00  0.00    +0.000 OA
ATOM     21  H   UNL     1       7.746   3.845  14.778  0.00  0.00    +0.000 HD
ENDBRANCH  17  20
BRANCH  18  22
ATOM     22  O   UNL     1       8.073   4.034  17.355  0.00  0.00    +0.000 OA
ATOM     23  H   UNL     1       7.364   3.461  17.702  0.00  0.00    +0.000 HD
ENDBRANCH  18  22
BRANCH  19  24
ATOM     24  C   UNL     1       7.893   7.299  18.029  0.00  0.00    +0.000 C 
BRANCH  24  25
ATOM     25  O   UNL     1       7.618   8.466  17.277  0.00  0.00    +0.000 OA
ATOM     26  H   UNL     1       6.741   8.357  16.876  0.00  0.00    +0.000 HD
ENDBRANCH  24  25
ENDBRANCH  19  24
ENDBRANCH  14  15
ENDBRANCH   1  14
TORSDOF 13
ENDMDL
MODEL 7
REMARK VINA RESULT:      -5.5      1.340      2.255
REMARK  Name = 
REMARK  16 active torsions:
REMARK  status: ('A' for Active; 'I' for Inactive)
REMARK    1  A    between atoms: C_1  and  C_2
REMARK    2  A    between atoms: C_2  and  C_3
REMARK    3  A    between atoms: C_2  and  C_4
REMARK    4  A    between atoms: C_2  and  C_5
REMARK    5  A    between atoms: C_5  and  O_6
REMARK    6  A    between atoms: O_6  and  C_7
REMARK    7  A    between atoms: C_7  and  C_8
REMARK    8  A    between atoms: C_7  and  C_10
REMARK    9  A    between atoms: C_8  and  O_9
REMARK   10  A    between atoms: C_10  and  O_11
REMARK   11  A    between atoms: C_10  and  C_12
REMARK   12  A    between atoms: C_12  and  S_13
REMARK   13  A    between atoms: C_15  and  O_16
REMARK   14  A    between atoms: C_17  and  O_18
REMARK   15  A    between atoms: C_19  and  C_20
REMARK   16  A    between atoms: C_20  and  O_21
REMARK                            x       y       z     vdW  Elec       q    Type
REMARK                         _______ _______ _______ _____ _____    ______ ____
ROOT
ATOM      1  C   UNL     1       4.985   5.438  16.611  0.00  0.00    +0.000 C 
ENDROOT
BRANCH   1   2
ATOM      2  O   UNL     1       5.493   6.421  17.521  0.00  0.00    +0.000 OA
ATOM      3  H   UNL     1       6.429   6.601  17.293  0.00  0.00    +0.000 HD
ENDBRANCH   1   2
BRANCH   1   4
ATOM      4  C   UNL     1       5.999   5.114  15.478  0.00  0.00    +0.000 C 
BRANCH   4   5
ATOM      5  O   UNL     1       5.420   4.537  14.291  0.00  0.00    +0.000 OA
BRANCH   5   6
ATOM      6  C   UNL     1       6.050   3.349  13.812  0.00  0.00    +0.000 C 
BRANCH   6   8
ATOM      7  C   UNL     1       7.022   4.439  11.737  0.00  0.00    +0.000 C 
ATOM      8  C   UNL     1       6.067   3.351  12.261  0.00  0.00    +0.000 C 
ATOM      9  C   UNL     1       4.657   3.629  11.714  0.00  0.00    +0.000 C 
ATOM     10  C   UNL     1       6.537   1.981  11.746  0.00  0.00    +0.000 C 
ENDBRANCH   6   8
ENDBRANCH   5   6
ENDBRANCH   4   5
BRANCH   4  11
ATOM     11  C   UNL     1       7.129   4.168  15.922  0.00  0.00    +0.000 C 
BRANCH  11  12
ATOM     12  O   UNL     1       7.766   4.690  17.095  0.00  0.00    +0.000 OA
ATOM     13  H   UNL     1       8.356   5.402  16.789  0.00  0.00    +0.000 HD
ENDBRANCH  11  12
ENDBRANCH   4  11
ENDBRANCH   1   4
BRANCH   1  14
ATOM     14  C   UNL     1       4.346   4.275  17.404  0.00  0.00    +0.000 C 
BRANCH  14  15
ATOM     15  S   UNL     1       2.539   4.322  17.609  0.00  0.00    +0.000 S 
ATOM     16  C   UNL     1       2.451   5.825  18.638  0.00  0.00    +0.000 C 
ATOM     17  C   UNL     1       2.609   5.463  20.099  0.00  0.00    +0.000 C 
ATOM     18  C   UNL     1       2.030   4.063  20.304  0.00  0.00    +0.000 C 
ATOM     19  C   UNL     1       2.342   3.202  19.068  0.00  0.00    +0.000 C 
BRANCH  17  20
ATOM     20  O   UNL     1       1.898   6.400  20.917  0.00  0.00    +0.000 OA
ATOM     21  H   UNL     1       2.119   6.191  21.845  0.00  0.00    +0.000 HD
ENDBRANCH  17  20
BRANCH  18  22
ATOM     22  O   UNL     1       2.612   3.521  21.503  0.00  0.00    +0.000 OA
ATOM     23  H   UNL     1       2.228   3.986  22.269  0.00  0.00    +0.000 HD
ENDBRANCH  18  22
BRANCH  19  24
ATOM     24  C   UNL     1       1.160   2.263  18.772  0.00  0.00    +0.000 C 
BRANCH  24  25
ATOM     25  O   UNL     1      -0.034   2.646  19.428  0.00  0.00    +0.000 OA
ATOM     26  H   UNL     1       0.077   2.459  20.374  0.00  0.00    +0.000 HD
ENDBRANCH  24  25
ENDBRANCH  19  24
ENDBRANCH  14  15
ENDBRANCH   1  14
TORSDOF 13
ENDMDL
MODEL 8
REMARK VINA RESULT:      -5.5      1.860      3.093
REMARK  Name = 
REMARK  16 active torsions:
REMARK  status: ('A' for Active; 'I' for Inactive)
REMARK    1  A    between atoms: C_1  and  C_2
REMARK    2  A    between atoms: C_2  and  C_3
REMARK    3  A    between atoms: C_2  and  C_4
REMARK    4  A    between atoms: C_2  and  C_5
REMARK    5  A    between atoms: C_5  and  O_6
REMARK    6  A    between atoms: O_6  and  C_7
REMARK    7  A    between atoms: C_7  and  C_8
REMARK    8  A    between atoms: C_7  and  C_10
REMARK    9  A    between atoms: C_8  and  O_9
REMARK   10  A    between atoms: C_10  and  O_11
REMARK   11  A    between atoms: C_10  and  C_12
REMARK   12  A    between atoms: C_12  and  S_13
REMARK   13  A    between atoms: C_15  and  O_16
REMARK   14  A    between atoms: C_17  and  O_18
REMARK   15  A    between atoms: C_19  and  C_20
REMARK   16  A    between atoms: C_20  and  O_21
REMARK                            x       y       z     vdW  Elec       q    Type
REMARK                         _______ _______ _______ _____ _____    ______ ____
ROOT
ATOM      1  C   UNL     1       6.148   5.258  19.013  0.00  0.00    +0.000 C 
ENDROOT
BRANCH   1   2
ATOM      2  O   UNL     1       7.132   5.203  20.052  0.00  0.00    +0.000 OA
ATOM      3  H   UNL     1       6.674   5.259  20.916  0.00  0.00    +0.000 HD
ENDBRANCH   1   2
BRANCH   1   4
ATOM      4  C   UNL     1       6.739   5.790  17.677  0.00  0.00    +0.000 C 
BRANCH   4   5
ATOM      5  O   UNL     1       7.419   4.802  16.877  0.00  0.00    +0.000 OA
BRANCH   5   6
ATOM      6  C   UNL     1       6.581   4.000  16.045  0.00  0.00    +0.000 C 
BRANCH   6   8
ATOM      7  C   UNL     1       5.677   3.786  13.684  0.00  0.00    +0.000 C 
ATOM      8  C   UNL     1       6.286   4.749  14.719  0.00  0.00    +0.000 C 
ATOM      9  C   UNL     1       7.583   5.337  14.140  0.00  0.00    +0.000 C 
ATOM     10  C   UNL     1       5.295   5.895  14.980  0.00  0.00    +0.000 C 
ENDBRANCH   6   8
ENDBRANCH   5   6
ENDBRANCH   4   5
BRANCH   4  11
ATOM     11  C   UNL     1       7.724   6.957  17.867  0.00  0.00    +0.000 C 
BRANCH  11  12
ATOM     12  O   UNL     1       7.339   8.057  17.031  0.00  0.00    +0.000 OA
ATOM     13  H   UNL     1       7.471   7.758  16.113  0.00  0.00    +0.000 HD
ENDBRANCH  11  12
ENDBRANCH   4  11
ENDBRANCH   1   4
BRANCH   1  14
ATOM     14  C   UNL     1       5.326   3.948  19.003  0.00  0.00    +0.000 C 
BRANCH  14  15
ATOM     15  S   UNL     1       3.612   4.063  18.404  0.00  0.00    +0.000 S 
ATOM     16  C   UNL     1       3.155   5.602  19.270  0.00  0.00    +0.000 C 
ATOM     17  C   UNL     1       2.650   5.283  20.661  0.00  0.00    +0.000 C 
ATOM     18  C   UNL     1       1.977   3.911  20.616  0.00  0.00    +0.000 C 
ATOM     19  C   UNL     1       2.755   2.999  19.651  0.00  0.00    +0.000 C 
BRANCH  17  20
ATOM     20  O   UNL     1       1.698   6.270  21.075  0.00  0.00    +0.000 OA
ATOM     21  H   UNL     1       0.819   5.847  21.039  0.00  0.00    +0.000 HD
ENDBRANCH  17  20
BRANCH  18  22
ATOM     22  O   UNL     1       1.959   3.389  21.957  0.00  0.00    +0.000 OA
ATOM     23  H   UNL     1       2.154   2.435  21.917  0.00  0.00    +0.000 HD
ENDBRANCH  18  22
BRANCH  19  24
ATOM     24  C   UNL     1       1.776   2.091  18.886  0.00  0.00    +0.000 C 
BRANCH  24  25
ATOM     25  O   UNL     1       2.142   1.892  17.534  0.00  0.00    +0.000 OA
ATOM     26  H   UNL     1       2.163   2.761  17.103  0.00  0.00    +0.000 HD
ENDBRANCH  24  25
ENDBRANCH  19  24
ENDBRANCH  14  15
ENDBRANCH   1  14
TORSDOF 13
ENDMDL
MODEL 9
REMARK VINA RESULT:      -5.4      1.645      2.143
REMARK  Name = 
REMARK  16 active torsions:
REMARK  status: ('A' for Active; 'I' for Inactive)
REMARK    1  A    between atoms: C_1  and  C_2
REMARK    2  A    between atoms: C_2  and  C_3
REMARK    3  A    between atoms: C_2  and  C_4
REMARK    4  A    between atoms: C_2  and  C_5
REMARK    5  A    between atoms: C_5  and  O_6
REMARK    6  A    between atoms: O_6  and  C_7
REMARK    7  A    between atoms: C_7  and  C_8
REMARK    8  A    between atoms: C_7  and  C_10
REMARK    9  A    between atoms: C_8  and  O_9
REMARK   10  A    between atoms: C_10  and  O_11
REMARK   11  A    between atoms: C_10  and  C_12
REMARK   12  A    between atoms: C_12  and  S_13
REMARK   13  A    between atoms: C_15  and  O_16
REMARK   14  A    between atoms: C_17  and  O_18
REMARK   15  A    between atoms: C_19  and  C_20
REMARK   16  A    between atoms: C_20  and  O_21
REMARK                            x       y       z     vdW  Elec       q    Type
REMARK                         _______ _______ _______ _____ _____    ______ ____
ROOT
ATOM      1  C   UNL     1       5.347   5.646  16.188  0.00  0.00    +0.000 C 
ENDROOT
BRANCH   1   2
ATOM      2  O   UNL     1       5.684   6.989  16.560  0.00  0.00    +0.000 OA
ATOM      3  H   UNL     1       6.167   7.404  15.816  0.00  0.00    +0.000 HD
ENDBRANCH   1   2
BRANCH   1   4
ATOM      4  C   UNL     1       5.931   5.263  14.799  0.00  0.00    +0.000 C 
BRANCH   4   5
ATOM      5  O   UNL     1       5.201   4.239  14.095  0.00  0.00    +0.000 OA
BRANCH   5   6
ATOM      6  C   UNL     1       5.988   3.164  13.580  0.00  0.00    +0.000 C 
BRANCH   6   8
ATOM      7  C   UNL     1       4.444   3.549  11.604  0.00  0.00    +0.000 C 
ATOM      8  C   UNL     1       5.854   3.106  12.036  0.00  0.00    +0.000 C 
ATOM      9  C   UNL     1       6.095   1.674  11.534  0.00  0.00    +0.000 C 
ATOM     10  C   UNL     1       6.892   4.039  11.390  0.00  0.00    +0.000 C 
ENDBRANCH   6   8
ENDBRANCH   5   6
ENDBRANCH   4   5
BRANCH   4  11
ATOM     11  C   UNL     1       7.396   4.798  14.859  0.00  0.00    +0.000 C 
BRANCH  11  12
ATOM     12  O   UNL     1       8.220   5.693  14.099  0.00  0.00    +0.000 OA
ATOM     13  H   UNL     1       8.387   6.462  14.674  0.00  0.00    +0.000 HD
ENDBRANCH  11  12
ENDBRANCH   4  11
ENDBRANCH   1   4
BRANCH   1  14
ATOM     14  C   UNL     1       5.579   4.699  17.388  0.00  0.00    +0.000 C 
BRANCH  14  15
ATOM     15  S   UNL     1       4.666   5.077  18.915  0.00  0.00    +0.000 S 
ATOM     16  C   UNL     1       4.146   3.376  19.315  0.00  0.00    +0.000 C 
ATOM     17  C   UNL     1       2.843   3.054  18.614  0.00  0.00    +0.000 C 
ATOM     18  C   UNL     1       2.044   4.351  18.485  0.00  0.00    +0.000 C 
ATOM     19  C   UNL     1       3.012   5.515  18.213  0.00  0.00    +0.000 C 
BRANCH  17  20
ATOM     20  O   UNL     1       2.094   2.104  19.382  0.00  0.00    +0.000 OA
ATOM     21  H   UNL     1       2.710   1.386  19.622  0.00  0.00    +0.000 HD
ENDBRANCH  17  20
BRANCH  18  22
ATOM     22  O   UNL     1       1.095   4.175  17.417  0.00  0.00    +0.000 OA
ATOM     23  H   UNL     1       1.338   4.776  16.689  0.00  0.00    +0.000 HD
ENDBRANCH  18  22
BRANCH  19  24
ATOM     24  C   UNL     1       2.524   6.782  18.937  0.00  0.00    +0.000 C 
BRANCH  24  25
ATOM     25  O   UNL     1       2.396   6.608  20.336  0.00  0.00    +0.000 OA
ATOM     26  H   UNL     1       3.066   5.964  20.615  0.00  0.00    +0.000 HD
ENDBRANCH  24  25
ENDBRANCH  19  24
ENDBRANCH  14  15
ENDBRANCH   1  14
TORSDOF 13
ENDMDL
