MODEL 1
REMARK VINA RESULT:      -5.5      0.000      0.000
REMARK  Name = 
REMARK  13 active torsions:
REMARK  status: ('A' for Active; 'I' for Inactive)
REMARK    1  A    between atoms: C_1  and  O_2
REMARK    2  A    between atoms: O_2  and  C_3
REMARK    3  A    between atoms: C_3  and  C_5
REMARK    4  A    between atoms: C_6  and  C_7
REMARK    5  A    between atoms: N_8  and  C_9
REMARK    6  A    between atoms: C_10  and  C_11
REMARK    7  A    between atoms: C_12  and  C_13
REMARK    8  A    between atoms: C_13  and  O_15
REMARK    9  A    between atoms: O_15  and  C_16
REMARK   10  A    between atoms: C_17  and  C_18
REMARK   11  A    between atoms: C_21  and  C_22
REMARK   12  A    between atoms: C_22  and  O_24
REMARK   13  A    between atoms: O_24  and  C_25
REMARK                            x       y       z     vdW  Elec       q    Type
REMARK                         _______ _______ _______ _____ _____    ______ ____
ROOT
ATOM      1  C   UNL     1      -1.142  13.026  20.278  0.00  0.00    +0.000 C 
ATOM      2  C   UNL     1      -2.302  13.454  20.841  0.00  0.00    +0.000 C 
ATOM      3  C   UNL     1      -2.350  14.272  22.123  0.00  0.00    +0.000 C 
ATOM      4  N   UNL     1      -3.561  13.133  20.251  0.00  0.00    +0.000 N 
ATOM      5  C   UNL     1      -4.802  13.807  20.697  0.00  0.00    +0.000 C 
ATOM      6  C   UNL     1      -3.641  12.164  19.212  0.00  0.00    +0.000 C 
ATOM      7  C   UNL     1      -5.015  11.627  18.829  0.00  0.00    +0.000 C 
ATOM      8  C   UNL     1      -2.527  11.712  18.586  0.00  0.00    +0.000 C 
ATOM      9  C   UNL     1      -1.134  12.181  19.004  0.00  0.00    +0.000 C 
ENDROOT
BRANCH   9  10
ATOM     10  C   UNL     1      -0.158  10.998  19.104  0.00  0.00    +0.000 A 
ATOM     11  C   UNL     1       0.860  10.854  18.144  0.00  0.00    +0.000 A 
ATOM     12  C   UNL     1       1.698   9.740  18.154  0.00  0.00    +0.000 A 
ATOM     13  C   UNL     1       1.529   8.746  19.122  0.00  0.00    +0.000 A 
ATOM     14  C   UNL     1       0.539   8.897  20.103  0.00  0.00    +0.000 A 
ATOM     15  C   UNL     1      -0.293  10.020  20.101  0.00  0.00    +0.000 A 
BRANCH  13  16
ATOM     16  C   UNL     1       2.404   7.546  19.048  0.00  0.00    +0.000 C 
ATOM     17  O   UNL     1       3.149   7.308  18.109  0.00  0.00    +0.000 OA
BRANCH  16  18
ATOM     18  O   UNL     1       2.232   6.767  20.143  0.00  0.00    +0.000 OA
ATOM     19  C   UNL     1       2.185   5.369  19.858  0.00  0.00    +0.000 C 
ENDBRANCH  16  18
ENDBRANCH  13  16
ENDBRANCH   9  10
BRANCH   1  20
ATOM     20  C   UNL     1       0.190  13.338  20.874  0.00  0.00    +0.000 C 
ATOM     21  O   UNL     1       0.617  12.864  21.916  0.00  0.00    +0.000 OA
BRANCH  20  23
ATOM     22  C   UNL     1       2.268  13.897  19.925  0.00  0.00    +0.000 C 
ATOM     23  O   UNL     1       0.876  14.200  20.077  0.00  0.00    +0.000 OA
ENDBRANCH  20  23
ENDBRANCH   1  20
BRANCH   8  24
ATOM     24  C   UNL     1      -2.629  10.686  17.502  0.00  0.00    +0.000 C 
ATOM     25  O   UNL     1      -2.861   9.501  17.692  0.00  0.00    +0.000 OA
BRANCH  24  26
ATOM     26  O   UNL     1      -2.421  11.237  16.279  0.00  0.00    +0.000 OA
ATOM     27  C   UNL     1      -3.038  10.513  15.208  0.00  0.00    +0.000 C 
ENDBRANCH  24  26
ENDBRANCH   8  24
TORSDOF 7
ENDMDL
MODEL 2
REMARK VINA RESULT:      -5.5      0.927      1.348
REMARK  Name = 
REMARK  13 active torsions:
REMARK  status: ('A' for Active; 'I' for Inactive)
REMARK    1  A    between atoms: C_1  and  O_2
REMARK    2  A    between atoms: O_2  and  C_3
REMARK    3  A    between atoms: C_3  and  C_5
REMARK    4  A    between atoms: C_6  and  C_7
REMARK    5  A    between atoms: N_8  and  C_9
REMARK    6  A    between atoms: C_10  and  C_11
REMARK    7  A    between atoms: C_12  and  C_13
REMARK    8  A    between atoms: C_13  and  O_15
REMARK    9  A    between atoms: O_15  and  C_16
REMARK   10  A    between atoms: C_17  and  C_18
REMARK   11  A    between atoms: C_21  and  C_22
REMARK   12  A    between atoms: C_22  and  O_24
REMARK   13  A    between atoms: O_24  and  C_25
REMARK                            x       y       z     vdW  Elec       q    Type
REMARK                         _______ _______ _______ _____ _____    ______ ____
ROOT
ATOM      1  C   UNL     1      -0.022  12.848  20.020  0.00  0.00    +0.000 C 
ATOM      2  C   UNL     1      -0.956  13.535  20.729  0.00  0.00    +0.000 C 
ATOM      3  C   UNL     1      -0.612  14.410  21.925  0.00  0.00    +0.000 C 
ATOM      4  N   UNL     1      -2.340  13.449  20.387  0.00  0.00    +0.000 N 
ATOM      5  C   UNL     1      -3.324  14.387  20.973  0.00  0.00    +0.000 C 
ATOM      6  C   UNL     1      -2.792  12.464  19.466  0.00  0.00    +0.000 C 
ATOM      7  C   UNL     1      -4.290  12.203  19.365  0.00  0.00    +0.000 C 
ATOM      8  C   UNL     1      -1.918  11.761  18.705  0.00  0.00    +0.000 C 
ATOM      9  C   UNL     1      -0.409  11.955  18.841  0.00  0.00    +0.000 C 
ENDROOT
BRANCH   9  10
ATOM     10  C   UNL     1       0.321  10.602  18.881  0.00  0.00    +0.000 A 
ATOM     11  C   UNL     1       0.214   9.788  20.023  0.00  0.00    +0.000 A 
ATOM     12  C   UNL     1       0.941   8.603  20.125  0.00  0.00    +0.000 A 
ATOM     13  C   UNL     1       1.795   8.214  19.089  0.00  0.00    +0.000 A 
ATOM     14  C   UNL     1       1.884   9.003  17.933  0.00  0.00    +0.000 A 
ATOM     15  C   UNL     1       1.144  10.184  17.824  0.00  0.00    +0.000 A 
BRANCH  13  16
ATOM     16  C   UNL     1       2.600   6.978  19.276  0.00  0.00    +0.000 C 
ATOM     17  O   UNL     1       3.500   6.636  18.524  0.00  0.00    +0.000 OA
BRANCH  16  18
ATOM     18  O   UNL     1       2.176   6.299  20.369  0.00  0.00    +0.000 OA
ATOM     19  C   UNL     1       1.897   4.921  20.122  0.00  0.00    +0.000 C 
ENDBRANCH  16  18
ENDBRANCH  13  16
ENDBRANCH   9  10
BRANCH   1  20
ATOM     20  C   UNL     1       1.431  12.909  20.356  0.00  0.00    +0.000 C 
ATOM     21  O   UNL     1       1.949  12.361  21.317  0.00  0.00    +0.000 OA
BRANCH  20  23
ATOM     22  C   UNL     1       3.289  14.277  19.907  0.00  0.00    +0.000 C 
ATOM     23  O   UNL     1       2.102  13.637  19.424  0.00  0.00    +0.000 OA
ENDBRANCH  20  23
ENDBRANCH   1  20
BRANCH   8  24
ATOM     24  C   UNL     1      -2.412  10.722  17.747  0.00  0.00    +0.000 C 
ATOM     25  O   UNL     1      -2.734   9.587  18.064  0.00  0.00    +0.000 OA
BRANCH  24  26
ATOM     26  O   UNL     1      -2.448  11.199  16.477  0.00  0.00    +0.000 OA
ATOM     27  C   UNL     1      -2.778  10.207  15.498  0.00  0.00    +0.000 C 
ENDBRANCH  24  26
ENDBRANCH   8  24
TORSDOF 7
ENDMDL
MODEL 3
REMARK VINA RESULT:      -5.5      0.934      1.006
REMARK  Name = 
REMARK  13 active torsions:
REMARK  status: ('A' for Active; 'I' for Inactive)
REMARK    1  A    between atoms: C_1  and  O_2
REMARK    2  A    between atoms: O_2  and  C_3
REMARK    3  A    between atoms: C_3  and  C_5
REMARK    4  A    between atoms: C_6  and  C_7
REMARK    5  A    between atoms: N_8  and  C_9
REMARK    6  A    between atoms: C_10  and  C_11
REMARK    7  A    between atoms: C_12  and  C_13
REMARK    8  A    between atoms: C_13  and  O_15
REMARK    9  A    between atoms: O_15  and  C_16
REMARK   10  A    between atoms: C_17  and  C_18
REMARK   11  A    between atoms: C_21  and  C_22
REMARK   12  A    between atoms: C_22  and  O_24
REMARK   13  A    between atoms: O_24  and  C_25
REMARK                            x       y       z     vdW  Elec       q    Type
REMARK                         _______ _______ _______ _____ _____    ______ ____
ROOT
ATOM      1  C   UNL     1       0.021  13.128  20.067  0.00  0.00    +0.000 C 
ATOM      2  C   UNL     1      -0.956  13.773  20.756  0.00  0.00    +0.000 C 
ATOM      3  C   UNL     1      -0.671  14.708  21.923  0.00  0.00    +0.000 C 
ATOM      4  N   UNL     1      -2.331  13.584  20.422  0.00  0.00    +0.000 N 
ATOM      5  C   UNL     1      -3.376  14.472  20.981  0.00  0.00    +0.000 C 
ATOM      6  C   UNL     1      -2.717  12.542  19.535  0.00  0.00    +0.000 C 
ATOM      7  C   UNL     1      -4.195  12.178  19.447  0.00  0.00    +0.000 C 
ATOM      8  C   UNL     1      -1.799  11.875  18.793  0.00  0.00    +0.000 C 
ATOM      9  C   UNL     1      -0.306  12.173  18.919  0.00  0.00    +0.000 C 
ENDROOT
BRANCH   9  10
ATOM     10  C   UNL     1       0.513  10.875  19.000  0.00  0.00    +0.000 A 
ATOM     11  C   UNL     1       1.331  10.501  17.918  0.00  0.00    +0.000 A 
ATOM     12  C   UNL     1       2.009   9.283  17.923  0.00  0.00    +0.000 A 
ATOM     13  C   UNL     1       1.877   8.413  19.010  0.00  0.00    +0.000 A 
ATOM     14  C   UNL     1       1.090   8.792  20.107  0.00  0.00    +0.000 A 
ATOM     15  C   UNL     1       0.421  10.018  20.107  0.00  0.00    +0.000 A 
BRANCH  13  16
ATOM     16  C   UNL     1       2.566   7.098  18.936  0.00  0.00    +0.000 C 
ATOM     17  O   UNL     1       3.288   6.763  18.010  0.00  0.00    +0.000 OA
BRANCH  16  18
ATOM     18  O   UNL     1       2.256   6.340  20.016  0.00  0.00    +0.000 OA
ATOM     19  C   UNL     1       2.710   4.990  19.927  0.00  0.00    +0.000 C 
ENDBRANCH  16  18
ENDBRANCH  13  16
ENDBRANCH   9  10
BRANCH   1  20
ATOM     20  C   UNL     1       1.467  13.297  20.396  0.00  0.00    +0.000 C 
ATOM     21  O   UNL     1       2.061  12.681  21.268  0.00  0.00    +0.000 OA
BRANCH  20  23
ATOM     22  C   UNL     1       3.072  13.694  18.725  0.00  0.00    +0.000 C 
ATOM     23  O   UNL     1       2.037  14.213  19.569  0.00  0.00    +0.000 OA
ENDBRANCH  20  23
ENDBRANCH   1  20
BRANCH   8  24
ATOM     24  C   UNL     1      -2.223  10.775  17.871  0.00  0.00    +0.000 C 
ATOM     25  O   UNL     1      -2.471   9.633  18.226  0.00  0.00    +0.000 OA
BRANCH  24  26
ATOM     26  O   UNL     1      -2.287  11.206  16.586  0.00  0.00    +0.000 OA
ATOM     27  C   UNL     1      -2.738  10.206  15.665  0.00  0.00    +0.000 C 
ENDBRANCH  24  26
ENDBRANCH   8  24
TORSDOF 7
ENDMDL
MODEL 4
REMARK VINA RESULT:      -5.5      2.837      5.285
REMARK  Name = 
REMARK  13 active torsions:
REMARK  status: ('A' for Active; 'I' for Inactive)
REMARK    1  A    between atoms: C_1  and  O_2
REMARK    2  A    between atoms: O_2  and  C_3
REMARK    3  A    between atoms: C_3  and  C_5
REMARK    4  A    between atoms: C_6  and  C_7
REMARK    5  A    between atoms: N_8  and  C_9
REMARK    6  A    between atoms: C_10  and  C_11
REMARK    7  A    between atoms: C_12  and  C_13
REMARK    8  A    between atoms: C_13  and  O_15
REMARK    9  A    between atoms: O_15  and  C_16
REMARK   10  A    between atoms: C_17  and  C_18
REMARK   11  A    between atoms: C_21  and  C_22
REMARK   12  A    between atoms: C_22  and  O_24
REMARK   13  A    between atoms: O_24  and  C_25
REMARK                            x       y       z     vdW  Elec       q    Type
REMARK                         _______ _______ _______ _____ _____    ______ ____
ROOT
ATOM      1  C   UNL     1      -0.621  13.235  22.548  0.00  0.00    +0.000 C 
ATOM      2  C   UNL     1      -0.761  14.417  23.204  0.00  0.00    +0.000 C 
ATOM      3  C   UNL     1      -1.660  14.591  24.419  0.00  0.00    +0.000 C 
ATOM      4  N   UNL     1      -0.069  15.584  22.760  0.00  0.00    +0.000 N 
ATOM      5  C   UNL     1      -0.003  16.795  23.609  0.00  0.00    +0.000 C 
ATOM      6  C   UNL     1       0.581  15.596  21.495  0.00  0.00    +0.000 C 
ATOM      7  C   UNL     1       1.035  16.936  20.928  0.00  0.00    +0.000 C 
ATOM      8  C   UNL     1       0.781  14.451  20.798  0.00  0.00    +0.000 C 
ATOM      9  C   UNL     1       0.269  13.106  21.312  0.00  0.00    +0.000 C 
ENDROOT
BRANCH   9  10
ATOM     10  C   UNL     1      -0.415  12.308  20.191  0.00  0.00    +0.000 A 
ATOM     11  C   UNL     1      -1.656  12.740  19.688  0.00  0.00    +0.000 A 
ATOM     12  C   UNL     1      -2.345  11.985  18.741  0.00  0.00    +0.000 A 
ATOM     13  C   UNL     1      -1.807  10.779  18.282  0.00  0.00    +0.000 A 
ATOM     14  C   UNL     1      -0.556  10.356  18.753  0.00  0.00    +0.000 A 
ATOM     15  C   UNL     1       0.141  11.120  19.693  0.00  0.00    +0.000 A 
BRANCH  13  16
ATOM     16  C   UNL     1      -2.612   9.977  17.323  0.00  0.00    +0.000 C 
ATOM     17  O   UNL     1      -3.536   9.250  17.658  0.00  0.00    +0.000 OA
BRANCH  16  18
ATOM     18  O   UNL     1      -2.158  10.155  16.059  0.00  0.00    +0.000 OA
ATOM     19  C   UNL     1      -3.192  10.217  15.076  0.00  0.00    +0.000 C 
ENDBRANCH  16  18
ENDBRANCH  13  16
ENDBRANCH   9  10
BRANCH   1  20
ATOM     20  C   UNL     1      -1.337  11.999  22.980  0.00  0.00    +0.000 C 
ATOM     21  O   UNL     1      -2.546  11.833  22.915  0.00  0.00    +0.000 OA
BRANCH  20  23
ATOM     22  C   UNL     1      -0.705   9.735  22.981  0.00  0.00    +0.000 C 
ATOM     23  O   UNL     1      -0.451  11.072  23.430  0.00  0.00    +0.000 OA
ENDBRANCH  20  23
ENDBRANCH   1  20
BRANCH   8  24
ATOM     24  C   UNL     1       1.458  14.483  19.464  0.00  0.00    +0.000 C 
ATOM     25  O   UNL     1       0.935  14.879  18.432  0.00  0.00    +0.000 OA
BRANCH  24  26
ATOM     26  O   UNL     1       2.727  14.008  19.543  0.00  0.00    +0.000 OA
ATOM     27  C   UNL     1       3.483  14.181  18.338  0.00  0.00    +0.000 C 
ENDBRANCH  24  26
ENDBRANCH   8  24
TORSDOF 7
ENDMDL
MODEL 5
REMARK VINA RESULT:      -5.4      0.709      1.333
REMARK  Name = 
REMARK  13 active torsions:
REMARK  status: ('A' for Active; 'I' for Inactive)
REMARK    1  A    between atoms: C_1  and  O_2
REMARK    2  A    between atoms: O_2  and  C_3
REMARK    3  A    between atoms: C_3  and  C_5
REMARK    4  A    between atoms: C_6  and  C_7
REMARK    5  A    between atoms: N_8  and  C_9
REMARK    6  A    between atoms: C_10  and  C_11
REMARK    7  A    between atoms: C_12  and  C_13
REMARK    8  A    between atoms: C_13  and  O_15
REMARK    9  A    between atoms: O_15  and  C_16
REMARK   10  A    between atoms: C_17  and  C_18
REMARK   11  A    between atoms: C_21  and  C_22
REMARK   12  A    between atoms: C_22  and  O_24
REMARK   13  A    between atoms: O_24  and  C_25
REMARK                            x       y       z     vdW  Elec       q    Type
REMARK                         _______ _______ _______ _____ _____    ______ ____
ROOT
ATOM      1  C   UNL     1      -0.639  12.753  20.128  0.00  0.00    +0.000 C 
ATOM      2  C   UNL     1      -1.695  13.289  20.796  0.00  0.00    +0.000 C 
ATOM      3  C   UNL     1      -1.545  14.075  22.090  0.00  0.00    +0.000 C 
ATOM      4  N   UNL     1      -3.027  13.117  20.314  0.00  0.00    +0.000 N 
ATOM      5  C   UNL     1      -4.145  13.908  20.876  0.00  0.00    +0.000 C 
ATOM      6  C   UNL     1      -3.299  12.187  19.272  0.00  0.00    +0.000 C 
ATOM      7  C   UNL     1      -4.750  11.809  19.002  0.00  0.00    +0.000 C 
ATOM      8  C   UNL     1      -2.297  11.635  18.544  0.00  0.00    +0.000 C 
ATOM      9  C   UNL     1      -0.832  11.943  18.846  0.00  0.00    +0.000 C 
ENDROOT
BRANCH   9  10
ATOM     10  C   UNL     1       0.016  10.661  18.844  0.00  0.00    +0.000 A 
ATOM     11  C   UNL     1      -0.075   9.765  19.925  0.00  0.00    +0.000 A 
ATOM     12  C   UNL     1       0.750   8.645  19.995  0.00  0.00    +0.000 A 
ATOM     13  C   UNL     1       1.689   8.403  18.987  0.00  0.00    +0.000 A 
ATOM     14  C   UNL     1       1.765   9.272  17.890  0.00  0.00    +0.000 A 
ATOM     15  C   UNL     1       0.928  10.388  17.812  0.00  0.00    +0.000 A 
BRANCH  13  16
ATOM     16  C   UNL     1       2.593   7.232  19.144  0.00  0.00    +0.000 C 
ATOM     17  O   UNL     1       2.556   6.472  20.100  0.00  0.00    +0.000 OA
BRANCH  16  18
ATOM     18  O   UNL     1       3.455   7.157  18.102  0.00  0.00    +0.000 OA
ATOM     19  C   UNL     1       3.980   5.849  17.877  0.00  0.00    +0.000 C 
ENDBRANCH  16  18
ENDBRANCH  13  16
ENDBRANCH   9  10
BRANCH   1  20
ATOM     20  C   UNL     1       0.764  12.907  20.611  0.00  0.00    +0.000 C 
ATOM     21  O   UNL     1       1.252  12.294  21.548  0.00  0.00    +0.000 OA
BRANCH  20  23
ATOM     22  C   UNL     1       2.852  13.827  20.043  0.00  0.00    +0.000 C 
ATOM     23  O   UNL     1       1.434  13.805  19.841  0.00  0.00    +0.000 OA
ENDBRANCH  20  23
ENDBRANCH   1  20
BRANCH   8  24
ATOM     24  C   UNL     1      -2.601  10.652  17.459  0.00  0.00    +0.000 C 
ATOM     25  O   UNL     1      -2.977   9.504  17.650  0.00  0.00    +0.000 OA
BRANCH  24  26
ATOM     26  O   UNL     1      -2.397  11.193  16.231  0.00  0.00    +0.000 OA
ATOM     27  C   UNL     1      -3.284  10.690  15.224  0.00  0.00    +0.000 C 
ENDBRANCH  24  26
ENDBRANCH   8  24
TORSDOF 7
ENDMDL
MODEL 6
REMARK VINA RESULT:      -5.2      3.079      6.178
REMARK  Name = 
REMARK  13 active torsions:
REMARK  status: ('A' for Active; 'I' for Inactive)
REMARK    1  A    between atoms: C_1  and  O_2
REMARK    2  A    between atoms: O_2  and  C_3
REMARK    3  A    between atoms: C_3  and  C_5
REMARK    4  A    between atoms: C_6  and  C_7
REMARK    5  A    between atoms: N_8  and  C_9
REMARK    6  A    between atoms: C_10  and  C_11
REMARK    7  A    between atoms: C_12  and  C_13
REMARK    8  A    between atoms: C_13  and  O_15
REMARK    9  A    between atoms: O_15  and  C_16
REMARK   10  A    between atoms: C_17  and  C_18
REMARK   11  A    between atoms: C_21  and  C_22
REMARK   12  A    between atoms: C_22  and  O_24
REMARK   13  A    between atoms: O_24  and  C_25
REMARK                            x       y       z     vdW  Elec       q    Type
REMARK                         _______ _______ _______ _____ _____    ______ ____
ROOT
ATOM      1  C   UNL     1      -5.381  11.915  19.412  0.00  0.00    +0.000 C 
ATOM      2  C   UNL     1      -5.655  13.039  20.125  0.00  0.00    +0.000 C 
ATOM      3  C   UNL     1      -7.065  13.580  20.311  0.00  0.00    +0.000 C 
ATOM      4  N   UNL     1      -4.606  13.793  20.732  0.00  0.00    +0.000 N 
ATOM      5  C   UNL     1      -4.908  14.853  21.720  0.00  0.00    +0.000 C 
ATOM      6  C   UNL     1      -3.248  13.527  20.402  0.00  0.00    +0.000 C 
ATOM      7  C   UNL     1      -2.190  14.540  20.824  0.00  0.00    +0.000 C 
ATOM      8  C   UNL     1      -2.897  12.410  19.718  0.00  0.00    +0.000 C 
ATOM      9  C   UNL     1      -3.948  11.418  19.222  0.00  0.00    +0.000 C 
ENDROOT
BRANCH   9  10
ATOM     10  C   UNL     1      -3.672  10.999  17.769  0.00  0.00    +0.000 A 
ATOM     11  C   UNL     1      -4.132  11.807  16.714  0.00  0.00    +0.000 A 
ATOM     12  C   UNL     1      -3.981  11.404  15.388  0.00  0.00    +0.000 A 
ATOM     13  C   UNL     1      -3.372  10.181  15.094  0.00  0.00    +0.000 A 
ATOM     14  C   UNL     1      -2.881   9.384  16.137  0.00  0.00    +0.000 A 
ATOM     15  C   UNL     1      -3.020   9.794  17.466  0.00  0.00    +0.000 A 
BRANCH  13  16
ATOM     16  C   UNL     1      -3.297   9.766  13.668  0.00  0.00    +0.000 C 
ATOM     17  O   UNL     1      -2.247   9.578  13.072  0.00  0.00    +0.000 OA
BRANCH  16  18
ATOM     18  O   UNL     1      -4.540   9.654  13.142  0.00  0.00    +0.000 OA
ATOM     19  C   UNL     1      -4.580   9.771  11.719  0.00  0.00    +0.000 C 
ENDBRANCH  16  18
ENDBRANCH  13  16
ENDBRANCH   9  10
BRANCH   1  20
ATOM     20  C   UNL     1      -6.454  11.110  18.758  0.00  0.00    +0.000 C 
ATOM     21  O   UNL     1      -7.138  11.489  17.820  0.00  0.00    +0.000 OA
BRANCH  20  23
ATOM     22  C   UNL     1      -7.535   9.775  20.364  0.00  0.00    +0.000 C 
ATOM     23  O   UNL     1      -6.542   9.882  19.336  0.00  0.00    +0.000 OA
ENDBRANCH  20  23
ENDBRANCH   1  20
BRANCH   8  24
ATOM     24  C   UNL     1      -1.465  12.151  19.372  0.00  0.00    +0.000 C 
ATOM     25  O   UNL     1      -0.866  12.694  18.456  0.00  0.00    +0.000 OA
BRANCH  24  26
ATOM     26  O   UNL     1      -0.917  11.226  20.201  0.00  0.00    +0.000 OA
ATOM     27  C   UNL     1       0.148  11.738  21.011  0.00  0.00    +0.000 C 
ENDBRANCH  24  26
ENDBRANCH   8  24
TORSDOF 7
ENDMDL
MODEL 7
REMARK VINA RESULT:      -5.1      2.885      5.411
REMARK  Name = 
REMARK  13 active torsions:
REMARK  status: ('A' for Active; 'I' for Inactive)
REMARK    1  A    between atoms: C_1  and  O_2
REMARK    2  A    between atoms: O_2  and  C_3
REMARK    3  A    between atoms: C_3  and  C_5
REMARK    4  A    between atoms: C_6  and  C_7
REMARK    5  A    between atoms: N_8  and  C_9
REMARK    6  A    between atoms: C_10  and  C_11
REMARK    7  A    between atoms: C_12  and  C_13
REMARK    8  A    between atoms: C_13  and  O_15
REMARK    9  A    between atoms: O_15  and  C_16
REMARK   10  A    between atoms: C_17  and  C_18
REMARK   11  A    between atoms: C_21  and  C_22
REMARK   12  A    between atoms: C_22  and  O_24
REMARK   13  A    between atoms: O_24  and  C_25
REMARK                            x       y       z     vdW  Elec       q    Type
REMARK                         _______ _______ _______ _____ _____    ______ ____
ROOT
ATOM      1  C   UNL     1      -0.543  13.336  22.466  0.00  0.00    +0.000 C 
ATOM      2  C   UNL     1      -0.601  14.561  23.050  0.00  0.00    +0.000 C 
ATOM      3  C   UNL     1      -1.524  14.882  24.216  0.00  0.00    +0.000 C 
ATOM      4  N   UNL     1       0.208  15.636  22.572  0.00  0.00    +0.000 N 
ATOM      5  C   UNL     1       0.350  16.884  23.356  0.00  0.00    +0.000 C 
ATOM      6  C   UNL     1       0.900  15.519  21.335  0.00  0.00    +0.000 C 
ATOM      7  C   UNL     1       1.491  16.779  20.715  0.00  0.00    +0.000 C 
ATOM      8  C   UNL     1       1.023  14.322  20.710  0.00  0.00    +0.000 C 
ATOM      9  C   UNL     1       0.376  13.059  21.276  0.00  0.00    +0.000 C 
ENDROOT
BRANCH   9  10
ATOM     10  C   UNL     1      -0.336  12.259  20.173  0.00  0.00    +0.000 A 
ATOM     11  C   UNL     1      -1.499  12.781  19.577  0.00  0.00    +0.000 A 
ATOM     12  C   UNL     1      -2.219  12.037  18.645  0.00  0.00    +0.000 A 
ATOM     13  C   UNL     1      -1.791  10.752  18.294  0.00  0.00    +0.000 A 
ATOM     14  C   UNL     1      -0.616  10.237  18.858  0.00  0.00    +0.000 A 
ATOM     15  C   UNL     1       0.114  10.989  19.783  0.00  0.00    +0.000 A 
BRANCH  13  16
ATOM     16  C   UNL     1      -2.632   9.973  17.347  0.00  0.00    +0.000 C 
ATOM     17  O   UNL     1      -3.575   9.278  17.693  0.00  0.00    +0.000 OA
BRANCH  16  18
ATOM     18  O   UNL     1      -2.185  10.131  16.078  0.00  0.00    +0.000 OA
ATOM     19  C   UNL     1      -3.175  10.615  15.171  0.00  0.00    +0.000 C 
ENDBRANCH  16  18
ENDBRANCH  13  16
ENDBRANCH   9  10
BRANCH   1  20
ATOM     20  C   UNL     1      -1.380  12.193  22.935  0.00  0.00    +0.000 C 
ATOM     21  O   UNL     1      -0.946  11.177  23.457  0.00  0.00    +0.000 OA
BRANCH  20  23
ATOM     22  C   UNL     1      -3.554  12.123  23.828  0.00  0.00    +0.000 C 
ATOM     23  O   UNL     1      -2.698  12.456  22.729  0.00  0.00    +0.000 OA
ENDBRANCH  20  23
ENDBRANCH   1  20
BRANCH   8  24
ATOM     24  C   UNL     1       1.747  14.219  19.405  0.00  0.00    +0.000 C 
ATOM     25  O   UNL     1       1.257  14.490  18.319  0.00  0.00    +0.000 OA
BRANCH  24  26
ATOM     26  O   UNL     1       3.018  13.776  19.579  0.00  0.00    +0.000 OA
ATOM     27  C   UNL     1       4.007  14.598  18.949  0.00  0.00    +0.000 C 
ENDBRANCH  24  26
ENDBRANCH   8  24
TORSDOF 7
ENDMDL
MODEL 8
REMARK VINA RESULT:      -5.0      2.789      5.178
REMARK  Name = 
REMARK  13 active torsions:
REMARK  status: ('A' for Active; 'I' for Inactive)
REMARK    1  A    between atoms: C_1  and  O_2
REMARK    2  A    between atoms: O_2  and  C_3
REMARK    3  A    between atoms: C_3  and  C_5
REMARK    4  A    between atoms: C_6  and  C_7
REMARK    5  A    between atoms: N_8  and  C_9
REMARK    6  A    between atoms: C_10  and  C_11
REMARK    7  A    between atoms: C_12  and  C_13
REMARK    8  A    between atoms: C_13  and  O_15
REMARK    9  A    between atoms: O_15  and  C_16
REMARK   10  A    between atoms: C_17  and  C_18
REMARK   11  A    between atoms: C_21  and  C_22
REMARK   12  A    between atoms: C_22  and  O_24
REMARK   13  A    between atoms: O_24  and  C_25
REMARK                            x       y       z     vdW  Elec       q    Type
REMARK                         _______ _______ _______ _____ _____    ______ ____
ROOT
ATOM      1  C   UNL     1      -0.798  13.247  22.649  0.00  0.00    +0.000 C 
ATOM      2  C   UNL     1      -0.978  14.418  23.315  0.00  0.00    +0.000 C 
ATOM      3  C   UNL     1      -1.808  14.531  24.586  0.00  0.00    +0.000 C 
ATOM      4  N   UNL     1      -0.398  15.629  22.832  0.00  0.00    +0.000 N 
ATOM      5  C   UNL     1      -0.363  16.844  23.678  0.00  0.00    +0.000 C 
ATOM      6  C   UNL     1       0.168  15.684  21.528  0.00  0.00    +0.000 C 
ATOM      7  C   UNL     1       0.490  17.051  20.937  0.00  0.00    +0.000 C 
ATOM      8  C   UNL     1       0.402  14.554  20.817  0.00  0.00    +0.000 C 
ATOM      9  C   UNL     1       0.019  13.178  21.359  0.00  0.00    +0.000 C 
ENDROOT
BRANCH   9  10
ATOM     10  C   UNL     1      -0.678  12.332  20.282  0.00  0.00    +0.000 A 
ATOM     11  C   UNL     1      -0.007  11.229  19.723  0.00  0.00    +0.000 A 
ATOM     12  C   UNL     1      -0.575  10.503  18.678  0.00  0.00    +0.000 A 
ATOM     13  C   UNL     1      -1.824  10.871  18.167  0.00  0.00    +0.000 A 
ATOM     14  C   UNL     1      -2.514  11.949  18.739  0.00  0.00    +0.000 A 
ATOM     15  C   UNL     1      -1.950  12.668  19.796  0.00  0.00    +0.000 A 
BRANCH  13  16
ATOM     16  C   UNL     1      -2.355  10.107  17.008  0.00  0.00    +0.000 C 
ATOM     17  O   UNL     1      -1.703   9.281  16.386  0.00  0.00    +0.000 OA
BRANCH  16  18
ATOM     18  O   UNL     1      -3.630  10.477  16.741  0.00  0.00    +0.000 OA
ATOM     19  C   UNL     1      -3.871  10.780  15.367  0.00  0.00    +0.000 C 
ENDBRANCH  16  18
ENDBRANCH  13  16
ENDBRANCH   9  10
BRANCH   1  20
ATOM     20  C   UNL     1      -1.397  11.966  23.123  0.00  0.00    +0.000 C 
ATOM     21  O   UNL     1      -2.596  11.739  23.194  0.00  0.00    +0.000 OA
BRANCH  20  23
ATOM     22  C   UNL     1      -0.677   9.730  23.012  0.00  0.00    +0.000 C 
ATOM     23  O   UNL     1      -0.420  11.074  23.438  0.00  0.00    +0.000 OA
ENDBRANCH  20  23
ENDBRANCH   1  20
BRANCH   8  24
ATOM     24  C   UNL     1       0.990  14.631  19.443  0.00  0.00    +0.000 C 
ATOM     25  O   UNL     1       0.386  15.017  18.453  0.00  0.00    +0.000 OA
BRANCH  24  26
ATOM     26  O   UNL     1       2.279  14.207  19.433  0.00  0.00    +0.000 OA
ATOM     27  C   UNL     1       2.667  13.569  18.210  0.00  0.00    +0.000 C 
ENDBRANCH  24  26
ENDBRANCH   8  24
TORSDOF 7
ENDMDL
MODEL 9
REMARK VINA RESULT:      -5.0      2.893      6.917
REMARK  Name = 
REMARK  13 active torsions:
REMARK  status: ('A' for Active; 'I' for Inactive)
REMARK    1  A    between atoms: C_1  and  O_2
REMARK    2  A    between atoms: O_2  and  C_3
REMARK    3  A    between atoms: C_3  and  C_5
REMARK    4  A    between atoms: C_6  and  C_7
REMARK    5  A    between atoms: N_8  and  C_9
REMARK    6  A    between atoms: C_10  and  C_11
REMARK    7  A    between atoms: C_12  and  C_13
REMARK    8  A    between atoms: C_13  and  O_15
REMARK    9  A    between atoms: O_15  and  C_16
REMARK   10  A    between atoms: C_17  and  C_18
REMARK   11  A    between atoms: C_21  and  C_22
REMARK   12  A    between atoms: C_22  and  O_24
REMARK   13  A    between atoms: O_24  and  C_25
REMARK                            x       y       z     vdW  Elec       q    Type
REMARK                         _______ _______ _______ _____ _____    ______ ____
ROOT
ATOM      1  C   UNL     1      -0.351  12.183  19.083  0.00  0.00    +0.000 C 
ATOM      2  C   UNL     1       0.979  12.242  18.811  0.00  0.00    +0.000 C 
ATOM      3  C   UNL     1       1.798  11.025  18.404  0.00  0.00    +0.000 C 
ATOM      4  N   UNL     1       1.691  13.475  18.914  0.00  0.00    +0.000 N 
ATOM      5  C   UNL     1       3.062  13.606  18.370  0.00  0.00    +0.000 C 
ATOM      6  C   UNL     1       1.086  14.603  19.534  0.00  0.00    +0.000 C 
ATOM      7  C   UNL     1       1.972  15.788  19.900  0.00  0.00    +0.000 C 
ATOM      8  C   UNL     1      -0.242  14.626  19.808  0.00  0.00    +0.000 C 
ATOM      9  C   UNL     1      -1.135  13.422  19.516  0.00  0.00    +0.000 C 
ENDROOT
BRANCH   9  10
ATOM     10  C   UNL     1      -2.070  13.126  20.701  0.00  0.00    +0.000 A 
ATOM     11  C   UNL     1      -3.455  13.321  20.558  0.00  0.00    +0.000 A 
ATOM     12  C   UNL     1      -4.315  13.153  21.641  0.00  0.00    +0.000 A 
ATOM     13  C   UNL     1      -3.803  12.792  22.892  0.00  0.00    +0.000 A 
ATOM     14  C   UNL     1      -2.428  12.564  23.036  0.00  0.00    +0.000 A 
ATOM     15  C   UNL     1      -1.567  12.719  21.946  0.00  0.00    +0.000 A 
BRANCH  13  16
ATOM     16  C   UNL     1      -4.754  12.693  24.031  0.00  0.00    +0.000 C 
ATOM     17  O   UNL     1      -4.600  11.935  24.977  0.00  0.00    +0.000 OA
BRANCH  16  18
ATOM     18  O   UNL     1      -5.800  13.534  23.849  0.00  0.00    +0.000 OA
ATOM     19  C   UNL     1      -7.071  12.945  24.118  0.00  0.00    +0.000 C 
ENDBRANCH  16  18
ENDBRANCH  13  16
ENDBRANCH   9  10
BRANCH   1  20
ATOM     20  C   UNL     1      -1.123  10.909  18.992  0.00  0.00    +0.000 C 
ATOM     21  O   UNL     1      -0.982   9.953  19.740  0.00  0.00    +0.000 OA
BRANCH  20  23
ATOM     22  C   UNL     1      -1.919   9.919  17.014  0.00  0.00    +0.000 C 
ATOM     23  O   UNL     1      -2.026  10.973  17.978  0.00  0.00    +0.000 OA
ENDBRANCH  20  23
ENDBRANCH   1  20
BRANCH   8  24
ATOM     24  C   UNL     1      -0.859  15.818  20.469  0.00  0.00    +0.000 C 
ATOM     25  O   UNL     1      -0.768  16.073  21.661  0.00  0.00    +0.000 OA
BRANCH  24  26
ATOM     26  O   UNL     1      -1.543  16.578  19.576  0.00  0.00    +0.000 OA
ATOM     27  C   UNL     1      -2.748  17.145  20.105  0.00  0.00    +0.000 C 
ENDBRANCH  24  26
ENDBRANCH   8  24
TORSDOF 7
ENDMDL
