MODEL 1
REMARK VINA RESULT:      -7.4      0.000      0.000
REMARK  Name = 
REMARK  10 active torsions:
REMARK  status: ('A' for Active; 'I' for Inactive)
REMARK    1  A    between atoms: C_1  and  O_2
REMARK    2  A    between atoms: O_2  and  C_3
REMARK    3  A    between atoms: C_6  and  C_7
REMARK    4  A    between atoms: C_7  and  C_8
REMARK    5  A    between atoms: C_8  and  N_9
REMARK    6  A    between atoms: N_9  and  C_10
REMARK    7  A    between atoms: C_12  and  C_13
REMARK    8  A    between atoms: C_20  and  C_21
REMARK    9  A    between atoms: C_24  and  O_25
REMARK   10  A    between atoms: O_25  and  C_26
REMARK                            x       y       z     vdW  Elec       q    Type
REMARK                         _______ _______ _______ _____ _____    ______ ____
ROOT
ATOM      1  N   UNL     1       3.982   2.973  19.465  0.00  0.00    +0.000 N 
ATOM      2  H   UNL     1       4.924   2.957  19.850  0.00  0.00    +0.000 HD
ENDROOT
BRANCH   1   3
ATOM      3  C   UNL     1       3.142   3.967  19.849  0.00  0.00    +0.000 A 
ATOM      4  O   UNL     1       3.229   5.198  19.243  0.00  0.00    +0.000 OA
ATOM      5  C   UNL     1       2.233   5.941  19.835  0.00  0.00    +0.000 A 
ATOM      6  N   UNL     1       1.559   5.299  20.770  0.00  0.00    +0.000 NA
ATOM      7  C   UNL     1       2.114   4.045  20.768  0.00  0.00    +0.000 A 
BRANCH   5   8
ATOM      8  C   UNL     1       2.007   7.303  19.374  0.00  0.00    +0.000 A 
ATOM      9  C   UNL     1       2.370   7.658  18.067  0.00  0.00    +0.000 A 
ATOM     10  C   UNL     1       2.222   8.968  17.618  0.00  0.00    +0.000 A 
ATOM     11  C   UNL     1       1.702   9.899  18.498  0.00  0.00    +0.000 A 
ATOM     12  N   UNL     1       1.320   9.605  19.758  0.00  0.00    +0.000 NA
ATOM     13  C   UNL     1       1.483   8.317  20.169  0.00  0.00    +0.000 A 
ENDBRANCH   5   8
BRANCH   7  14
ATOM     14  C   UNL     1       1.656   3.029  21.647  0.00  0.00    +0.000 C 
ATOM     15  N   UNL     1       1.293   2.206  22.383  0.00  0.00    +0.000 NA
ENDBRANCH   7  14
ENDBRANCH   1   3
BRANCH   1  16
ATOM     16  C   UNL     1       3.877   2.403  18.124  0.00  0.00    +0.000 C 
BRANCH  16  17
ATOM     17  C   UNL     1       3.586   3.475  17.053  0.00  0.00    +0.000 C 
BRANCH  17  21
ATOM     18  C   UNL     1       6.997   5.050  14.886  0.00  0.00    +0.000 A 
ATOM     19  C   UNL     1       5.964   4.380  14.212  0.00  0.00    +0.000 A 
ATOM     20  C   UNL     1       4.863   3.870  14.905  0.00  0.00    +0.000 A 
ATOM     21  C   UNL     1       4.786   3.991  16.294  0.00  0.00    +0.000 A 
ATOM     22  C   UNL     1       5.878   4.550  16.968  0.00  0.00    +0.000 A 
ATOM     23  C   UNL     1       6.985   5.083  16.286  0.00  0.00    +0.000 A 
BRANCH  18  25
ATOM     24  C   UNL     1       8.061   5.345  12.795  0.00  0.00    +0.000 C 
ATOM     25  O   UNL     1       8.020   5.642  14.193  0.00  0.00    +0.000 OA
ENDBRANCH  18  25
BRANCH  23  26
ATOM     26  O   UNL     1       7.913   5.593  17.153  0.00  0.00    +0.000 OA
ATOM     27  C   UNL     1       7.531   6.606  18.068  0.00  0.00    +0.000 C 
ENDBRANCH  23  26
ENDBRANCH  17  21
ENDBRANCH  16  17
ENDBRANCH   1  16
TORSDOF 8
ENDMDL
MODEL 2
REMARK VINA RESULT:      -7.3      3.704      8.283
REMARK  Name = 
REMARK  10 active torsions:
REMARK  status: ('A' for Active; 'I' for Inactive)
REMARK    1  A    between atoms: C_1  and  O_2
REMARK    2  A    between atoms: O_2  and  C_3
REMARK    3  A    between atoms: C_6  and  C_7
REMARK    4  A    between atoms: C_7  and  C_8
REMARK    5  A    between atoms: C_8  and  N_9
REMARK    6  A    between atoms: N_9  and  C_10
REMARK    7  A    between atoms: C_12  and  C_13
REMARK    8  A    between atoms: C_20  and  C_21
REMARK    9  A    between atoms: C_24  and  O_25
REMARK   10  A    between atoms: O_25  and  C_26
REMARK                            x       y       z     vdW  Elec       q    Type
REMARK                         _______ _______ _______ _____ _____    ______ ____
ROOT
ATOM      1  N   UNL     1       1.654   6.549  21.082  0.00  0.00    +0.000 N 
ATOM      2  H   UNL     1       0.888   6.203  21.656  0.00  0.00    +0.000 HD
ENDROOT
BRANCH   1   3
ATOM      3  C   UNL     1       2.284   5.682  20.250  0.00  0.00    +0.000 A 
ATOM      4  O   UNL     1       2.886   6.155  19.108  0.00  0.00    +0.000 OA
ATOM      5  C   UNL     1       3.445   5.039  18.528  0.00  0.00    +0.000 A 
ATOM      6  N   UNL     1       3.221   3.916  19.185  0.00  0.00    +0.000 NA
ATOM      7  C   UNL     1       2.507   4.320  20.284  0.00  0.00    +0.000 A 
BRANCH   5   8
ATOM      8  C   UNL     1       4.223   5.199  17.308  0.00  0.00    +0.000 A 
ATOM      9  C   UNL     1       4.605   4.064  16.580  0.00  0.00    +0.000 A 
ATOM     10  C   UNL     1       5.400   4.183  15.442  0.00  0.00    +0.000 A 
ATOM     11  C   UNL     1       5.791   5.451  15.055  0.00  0.00    +0.000 A 
ATOM     12  N   UNL     1       5.433   6.575  15.709  0.00  0.00    +0.000 NA
ATOM     13  C   UNL     1       4.661   6.425  16.821  0.00  0.00    +0.000 A 
ENDBRANCH   5   8
BRANCH   7  14
ATOM     14  C   UNL     1       2.066   3.392  21.264  0.00  0.00    +0.000 C 
ATOM     15  N   UNL     1       1.722   2.638  22.079  0.00  0.00    +0.000 NA
ENDBRANCH   7  14
ENDBRANCH   1   3
BRANCH   1  16
ATOM     16  C   UNL     1       1.534   7.958  20.715  0.00  0.00    +0.000 C 
BRANCH  16  17
ATOM     17  C   UNL     1       1.187   8.851  21.925  0.00  0.00    +0.000 C 
BRANCH  17  21
ATOM     18  C   UNL     1      -1.696  12.006  21.181  0.00  0.00    +0.000 A 
ATOM     19  C   UNL     1      -1.392  11.604  22.490  0.00  0.00    +0.000 A 
ATOM     20  C   UNL     1      -0.464  10.588  22.736  0.00  0.00    +0.000 A 
ATOM     21  C   UNL     1       0.157   9.928  21.674  0.00  0.00    +0.000 A 
ATOM     22  C   UNL     1      -0.244  10.251  20.372  0.00  0.00    +0.000 A 
ATOM     23  C   UNL     1      -1.162  11.282  20.107  0.00  0.00    +0.000 A 
BRANCH  18  25
ATOM     24  C   UNL     1      -3.897  12.863  21.280  0.00  0.00    +0.000 C 
ATOM     25  O   UNL     1      -2.522  13.073  20.946  0.00  0.00    +0.000 OA
ENDBRANCH  18  25
BRANCH  23  26
ATOM     26  O   UNL     1      -1.381  11.428  18.764  0.00  0.00    +0.000 OA
ATOM     27  C   UNL     1      -1.228  10.310  17.906  0.00  0.00    +0.000 C 
ENDBRANCH  23  26
ENDBRANCH  17  21
ENDBRANCH  16  17
ENDBRANCH   1  16
TORSDOF 8
ENDMDL
MODEL 3
REMARK VINA RESULT:      -7.3      3.887      8.391
REMARK  Name = 
REMARK  10 active torsions:
REMARK  status: ('A' for Active; 'I' for Inactive)
REMARK    1  A    between atoms: C_1  and  O_2
REMARK    2  A    between atoms: O_2  and  C_3
REMARK    3  A    between atoms: C_6  and  C_7
REMARK    4  A    between atoms: C_7  and  C_8
REMARK    5  A    between atoms: C_8  and  N_9
REMARK    6  A    between atoms: N_9  and  C_10
REMARK    7  A    between atoms: C_12  and  C_13
REMARK    8  A    between atoms: C_20  and  C_21
REMARK    9  A    between atoms: C_24  and  O_25
REMARK   10  A    between atoms: O_25  and  C_26
REMARK                            x       y       z     vdW  Elec       q    Type
REMARK                         _______ _______ _______ _____ _____    ______ ____
ROOT
ATOM      1  N   UNL     1       1.993   7.876  19.075  0.00  0.00    +0.000 N 
ATOM      2  H   UNL     1       1.284   7.763  19.796  0.00  0.00    +0.000 HD
ENDROOT
BRANCH   1   3
ATOM      3  C   UNL     1       2.655   6.776  18.638  0.00  0.00    +0.000 A 
ATOM      4  O   UNL     1       3.582   6.899  17.630  0.00  0.00    +0.000 OA
ATOM      5  C   UNL     1       4.076   5.625  17.462  0.00  0.00    +0.000 A 
ATOM      6  N   UNL     1       3.520   4.720  18.245  0.00  0.00    +0.000 NA
ATOM      7  C   UNL     1       2.639   5.445  19.005  0.00  0.00    +0.000 A 
BRANCH   5   8
ATOM      8  C   UNL     1       5.140   5.408  16.492  0.00  0.00    +0.000 A 
ATOM      9  C   UNL     1       4.950   4.486  15.455  0.00  0.00    +0.000 A 
ATOM     10  C   UNL     1       5.972   4.214  14.548  0.00  0.00    +0.000 A 
ATOM     11  C   UNL     1       7.170   4.887  14.702  0.00  0.00    +0.000 A 
ATOM     12  N   UNL     1       7.396   5.798  15.671  0.00  0.00    +0.000 NA
ATOM     13  C   UNL     1       6.379   6.036  16.545  0.00  0.00    +0.000 A 
ENDBRANCH   5   8
BRANCH   7  14
ATOM     14  C   UNL     1       1.830   4.827  19.996  0.00  0.00    +0.000 C 
ATOM     15  N   UNL     1       1.184   4.308  20.810  0.00  0.00    +0.000 NA
ENDBRANCH   7  14
ENDBRANCH   1   3
BRANCH   1  16
ATOM     16  C   UNL     1       1.742   8.989  18.162  0.00  0.00    +0.000 C 
BRANCH  16  17
ATOM     17  C   UNL     1       1.213  10.240  18.895  0.00  0.00    +0.000 C 
BRANCH  17  21
ATOM     18  C   UNL     1      -2.875  11.371  17.990  0.00  0.00    +0.000 A 
ATOM     19  C   UNL     1      -2.207  11.916  19.097  0.00  0.00    +0.000 A 
ATOM     20  C   UNL     1      -0.889  11.556  19.394  0.00  0.00    +0.000 A 
ATOM     21  C   UNL     1      -0.222  10.615  18.607  0.00  0.00    +0.000 A 
ATOM     22  C   UNL     1      -0.938   9.986  17.581  0.00  0.00    +0.000 A 
ATOM     23  C   UNL     1      -2.257  10.349  17.259  0.00  0.00    +0.000 A 
BRANCH  18  25
ATOM     24  C   UNL     1      -5.161  11.502  18.577  0.00  0.00    +0.000 C 
ATOM     25  O   UNL     1      -4.126  11.807  17.640  0.00  0.00    +0.000 OA
ENDBRANCH  18  25
BRANCH  23  26
ATOM     26  O   UNL     1      -2.739   9.615  16.210  0.00  0.00    +0.000 OA
ATOM     27  C   UNL     1      -2.815  10.202  14.923  0.00  0.00    +0.000 C 
ENDBRANCH  23  26
ENDBRANCH  17  21
ENDBRANCH  16  17
ENDBRANCH   1  16
TORSDOF 8
ENDMDL
MODEL 4
REMARK VINA RESULT:      -7.3      1.150      1.484
REMARK  Name = 
REMARK  10 active torsions:
REMARK  status: ('A' for Active; 'I' for Inactive)
REMARK    1  A    between atoms: C_1  and  O_2
REMARK    2  A    between atoms: O_2  and  C_3
REMARK    3  A    between atoms: C_6  and  C_7
REMARK    4  A    between atoms: C_7  and  C_8
REMARK    5  A    between atoms: C_8  and  N_9
REMARK    6  A    between atoms: N_9  and  C_10
REMARK    7  A    between atoms: C_12  and  C_13
REMARK    8  A    between atoms: C_20  and  C_21
REMARK    9  A    between atoms: C_24  and  O_25
REMARK   10  A    between atoms: O_25  and  C_26
REMARK                            x       y       z     vdW  Elec       q    Type
REMARK                         _______ _______ _______ _____ _____    ______ ____
ROOT
ATOM      1  N   UNL     1       2.307   3.580  18.112  0.00  0.00    +0.000 N 
ATOM      2  H   UNL     1       1.470   3.055  17.866  0.00  0.00    +0.000 HD
ENDROOT
BRANCH   1   3
ATOM      3  C   UNL     1       2.177   4.672  18.907  0.00  0.00    +0.000 A 
ATOM      4  O   UNL     1       2.135   5.922  18.336  0.00  0.00    +0.000 OA
ATOM      5  C   UNL     1       1.966   6.779  19.401  0.00  0.00    +0.000 A 
ATOM      6  N   UNL     1       1.932   6.182  20.577  0.00  0.00    +0.000 NA
ATOM      7  C   UNL     1       2.042   4.850  20.269  0.00  0.00    +0.000 A 
BRANCH   5   8
ATOM      8  C   UNL     1       1.821   8.203  19.138  0.00  0.00    +0.000 A 
ATOM      9  C   UNL     1       1.147   9.011  20.064  0.00  0.00    +0.000 A 
ATOM     10  C   UNL     1       0.941  10.365  19.810  0.00  0.00    +0.000 A 
ATOM     11  C   UNL     1       1.426  10.883  18.624  0.00  0.00    +0.000 A 
ATOM     12  N   UNL     1       2.098  10.153  17.709  0.00  0.00    +0.000 NA
ATOM     13  C   UNL     1       2.278   8.831  17.984  0.00  0.00    +0.000 A 
ENDBRANCH   5   8
BRANCH   7  14
ATOM     14  C   UNL     1       2.042   3.852  21.279  0.00  0.00    +0.000 C 
ATOM     15  N   UNL     1       2.026   3.025  22.095  0.00  0.00    +0.000 NA
ENDBRANCH   7  14
ENDBRANCH   1   3
BRANCH   1  16
ATOM     16  C   UNL     1       3.521   2.770  18.176  0.00  0.00    +0.000 C 
BRANCH  16  17
ATOM     17  C   UNL     1       4.774   3.614  18.492  0.00  0.00    +0.000 C 
BRANCH  17  21
ATOM     18  C   UNL     1       6.969   5.074  15.048  0.00  0.00    +0.000 A 
ATOM     19  C   UNL     1       6.204   3.900  14.968  0.00  0.00    +0.000 A 
ATOM     20  C   UNL     1       5.495   3.424  16.075  0.00  0.00    +0.000 A 
ATOM     21  C   UNL     1       5.562   4.097  17.297  0.00  0.00    +0.000 A 
ATOM     22  C   UNL     1       6.424   5.195  17.399  0.00  0.00    +0.000 A 
ATOM     23  C   UNL     1       7.130   5.697  16.292  0.00  0.00    +0.000 A 
BRANCH  18  25
ATOM     24  C   UNL     1       7.512   4.774  12.767  0.00  0.00    +0.000 C 
ATOM     25  O   UNL     1       7.574   5.596  13.935  0.00  0.00    +0.000 OA
ENDBRANCH  18  25
BRANCH  23  26
ATOM     26  O   UNL     1       7.887   6.785  16.629  0.00  0.00    +0.000 OA
ATOM     27  C   UNL     1       7.345   7.774  17.488  0.00  0.00    +0.000 C 
ENDBRANCH  23  26
ENDBRANCH  17  21
ENDBRANCH  16  17
ENDBRANCH   1  16
TORSDOF 8
ENDMDL
MODEL 5
REMARK VINA RESULT:      -7.3      3.455      5.951
REMARK  Name = 
REMARK  10 active torsions:
REMARK  status: ('A' for Active; 'I' for Inactive)
REMARK    1  A    between atoms: C_1  and  O_2
REMARK    2  A    between atoms: O_2  and  C_3
REMARK    3  A    between atoms: C_6  and  C_7
REMARK    4  A    between atoms: C_7  and  C_8
REMARK    5  A    between atoms: C_8  and  N_9
REMARK    6  A    between atoms: N_9  and  C_10
REMARK    7  A    between atoms: C_12  and  C_13
REMARK    8  A    between atoms: C_20  and  C_21
REMARK    9  A    between atoms: C_24  and  O_25
REMARK   10  A    between atoms: O_25  and  C_26
REMARK                            x       y       z     vdW  Elec       q    Type
REMARK                         _______ _______ _______ _____ _____    ______ ____
ROOT
ATOM      1  N   UNL     1       1.989   8.862  19.034  0.00  0.00    +0.000 N 
ATOM      2  H   UNL     1       2.785   9.141  19.605  0.00  0.00    +0.000 HD
ENDROOT
BRANCH   1   3
ATOM      3  C   UNL     1       0.797   9.476  19.240  0.00  0.00    +0.000 A 
ATOM      4  O   UNL     1      -0.034   9.716  18.171  0.00  0.00    +0.000 OA
ATOM      5  C   UNL     1      -1.145  10.307  18.729  0.00  0.00    +0.000 A 
ATOM      6  N   UNL     1      -1.068  10.485  20.034  0.00  0.00    +0.000 NA
ATOM      7  C   UNL     1       0.147   9.942  20.365  0.00  0.00    +0.000 A 
BRANCH   5   8
ATOM      8  C   UNL     1      -2.267  10.644  17.864  0.00  0.00    +0.000 A 
ATOM      9  C   UNL     1      -2.228  10.283  16.511  0.00  0.00    +0.000 A 
ATOM     10  C   UNL     1      -3.259  10.644  15.647  0.00  0.00    +0.000 A 
ATOM     11  C   UNL     1      -4.320  11.360  16.170  0.00  0.00    +0.000 A 
ATOM     12  N   UNL     1      -4.415  11.715  17.468  0.00  0.00    +0.000 NA
ATOM     13  C   UNL     1      -3.387  11.352  18.285  0.00  0.00    +0.000 A 
ENDBRANCH   5   8
BRANCH   7  14
ATOM     14  C   UNL     1       0.614   9.930  21.706  0.00  0.00    +0.000 C 
ATOM     15  N   UNL     1       1.010   9.904  22.798  0.00  0.00    +0.000 NA
ENDBRANCH   7  14
ENDBRANCH   1   3
BRANCH   1  16
ATOM     16  C   UNL     1       2.350   8.394  17.698  0.00  0.00    +0.000 C 
BRANCH  16  17
ATOM     17  C   UNL     1       3.648   7.559  17.700  0.00  0.00    +0.000 C 
BRANCH  17  21
ATOM     18  C   UNL     1       3.165   3.251  17.567  0.00  0.00    +0.000 A 
ATOM     19  C   UNL     1       4.217   3.878  16.881  0.00  0.00    +0.000 A 
ATOM     20  C   UNL     1       4.377   5.266  16.920  0.00  0.00    +0.000 A 
ATOM     21  C   UNL     1       3.468   6.061  17.620  0.00  0.00    +0.000 A 
ATOM     22  C   UNL     1       2.355   5.438  18.196  0.00  0.00    +0.000 A 
ATOM     23  C   UNL     1       2.187   4.044  18.182  0.00  0.00    +0.000 A 
BRANCH  18  25
ATOM     24  C   UNL     1       3.681   1.274  18.756  0.00  0.00    +0.000 C 
ATOM     25  O   UNL     1       3.073   1.885  17.615  0.00  0.00    +0.000 OA
ENDBRANCH  18  25
BRANCH  23  26
ATOM     26  O   UNL     1       1.039   3.667  18.825  0.00  0.00    +0.000 OA
ATOM     27  C   UNL     1       0.947   3.814  20.231  0.00  0.00    +0.000 C 
ENDBRANCH  23  26
ENDBRANCH  17  21
ENDBRANCH  16  17
ENDBRANCH   1  16
TORSDOF 8
ENDMDL
MODEL 6
REMARK VINA RESULT:      -7.3      3.030      7.478
REMARK  Name = 
REMARK  10 active torsions:
REMARK  status: ('A' for Active; 'I' for Inactive)
REMARK    1  A    between atoms: C_1  and  O_2
REMARK    2  A    between atoms: O_2  and  C_3
REMARK    3  A    between atoms: C_6  and  C_7
REMARK    4  A    between atoms: C_7  and  C_8
REMARK    5  A    between atoms: C_8  and  N_9
REMARK    6  A    between atoms: N_9  and  C_10
REMARK    7  A    between atoms: C_12  and  C_13
REMARK    8  A    between atoms: C_20  and  C_21
REMARK    9  A    between atoms: C_24  and  O_25
REMARK   10  A    between atoms: O_25  and  C_26
REMARK                            x       y       z     vdW  Elec       q    Type
REMARK                         _______ _______ _______ _____ _____    ______ ____
ROOT
ATOM      1  N   UNL     1       2.803   5.110  20.335  0.00  0.00    +0.000 N 
ATOM      2  H   UNL     1       2.829   4.469  21.126  0.00  0.00    +0.000 HD
ENDROOT
BRANCH   1   3
ATOM      3  C   UNL     1       3.071   4.622  19.098  0.00  0.00    +0.000 A 
ATOM      4  O   UNL     1       4.153   5.106  18.400  0.00  0.00    +0.000 OA
ATOM      5  C   UNL     1       4.151   4.387  17.225  0.00  0.00    +0.000 A 
ATOM      6  N   UNL     1       3.155   3.529  17.116  0.00  0.00    +0.000 NA
ATOM      7  C   UNL     1       2.483   3.657  18.305  0.00  0.00    +0.000 A 
BRANCH   5   8
ATOM      8  C   UNL     1       5.220   4.614  16.264  0.00  0.00    +0.000 A 
ATOM      9  C   UNL     1       5.197   3.941  15.035  0.00  0.00    +0.000 A 
ATOM     10  C   UNL     1       6.238   4.093  14.121  0.00  0.00    +0.000 A 
ATOM     11  C   UNL     1       7.284   4.929  14.463  0.00  0.00    +0.000 A 
ATOM     12  N   UNL     1       7.343   5.614  15.624  0.00  0.00    +0.000 NA
ATOM     13  C   UNL     1       6.314   5.440  16.499  0.00  0.00    +0.000 A 
ENDBRANCH   5   8
BRANCH   7  14
ATOM     14  C   UNL     1       1.326   2.885  18.591  0.00  0.00    +0.000 C 
ATOM     15  N   UNL     1       0.376   2.251  18.804  0.00  0.00    +0.000 NA
ENDBRANCH   7  14
ENDBRANCH   1   3
BRANCH   1  16
ATOM     16  C   UNL     1       1.867   6.219  20.498  0.00  0.00    +0.000 C 
BRANCH  16  17
ATOM     17  C   UNL     1       2.277   7.458  19.675  0.00  0.00    +0.000 C 
BRANCH  17  21
ATOM     18  C   UNL     1      -0.564  10.734  19.785  0.00  0.00    +0.000 A 
ATOM     19  C   UNL     1       0.124  10.418  18.603  0.00  0.00    +0.000 A 
ATOM     20  C   UNL     1       1.041   9.363  18.561  0.00  0.00    +0.000 A 
ATOM     21  C   UNL     1       1.314   8.622  19.712  0.00  0.00    +0.000 A 
ATOM     22  C   UNL     1       0.717   9.024  20.913  0.00  0.00    +0.000 A 
ATOM     23  C   UNL     1      -0.220  10.069  20.969  0.00  0.00    +0.000 A 
BRANCH  18  25
ATOM     24  C   UNL     1      -1.076  13.030  20.018  0.00  0.00    +0.000 C 
ATOM     25  O   UNL     1      -1.539  11.696  19.795  0.00  0.00    +0.000 OA
ENDBRANCH  18  25
BRANCH  23  26
ATOM     26  O   UNL     1      -0.682  10.264  22.242  0.00  0.00    +0.000 OA
ATOM     27  C   UNL     1      -0.100   9.543  23.314  0.00  0.00    +0.000 C 
ENDBRANCH  23  26
ENDBRANCH  17  21
ENDBRANCH  16  17
ENDBRANCH   1  16
TORSDOF 8
ENDMDL
MODEL 7
REMARK VINA RESULT:      -7.3      2.632      6.850
REMARK  Name = 
REMARK  10 active torsions:
REMARK  status: ('A' for Active; 'I' for Inactive)
REMARK    1  A    between atoms: C_1  and  O_2
REMARK    2  A    between atoms: O_2  and  C_3
REMARK    3  A    between atoms: C_6  and  C_7
REMARK    4  A    between atoms: C_7  and  C_8
REMARK    5  A    between atoms: C_8  and  N_9
REMARK    6  A    between atoms: N_9  and  C_10
REMARK    7  A    between atoms: C_12  and  C_13
REMARK    8  A    between atoms: C_20  and  C_21
REMARK    9  A    between atoms: C_24  and  O_25
REMARK   10  A    between atoms: O_25  and  C_26
REMARK                            x       y       z     vdW  Elec       q    Type
REMARK                         _______ _______ _______ _____ _____    ______ ____
ROOT
ATOM      1  N   UNL     1       4.687   3.428  18.578  0.00  0.00    +0.000 N 
ATOM      2  H   UNL     1       4.916   3.259  19.556  0.00  0.00    +0.000 HD
ENDROOT
BRANCH   1   3
ATOM      3  C   UNL     1       5.640   3.961  17.773  0.00  0.00    +0.000 A 
ATOM      4  O   UNL     1       5.559   3.775  16.413  0.00  0.00    +0.000 OA
ATOM      5  C   UNL     1       6.641   4.461  15.909  0.00  0.00    +0.000 A 
ATOM      6  N   UNL     1       7.401   5.026  16.827  0.00  0.00    +0.000 NA
ATOM      7  C   UNL     1       6.761   4.733  18.004  0.00  0.00    +0.000 A 
BRANCH   5   8
ATOM      8  C   UNL     1       6.823   4.518  14.465  0.00  0.00    +0.000 A 
ATOM      9  C   UNL     1       6.162   3.590  13.650  0.00  0.00    +0.000 A 
ATOM     10  C   UNL     1       6.364   3.583  12.271  0.00  0.00    +0.000 A 
ATOM     11  C   UNL     1       7.229   4.521  11.739  0.00  0.00    +0.000 A 
ATOM     12  N   UNL     1       7.874   5.447  12.478  0.00  0.00    +0.000 NA
ATOM     13  C   UNL     1       7.660   5.424  13.823  0.00  0.00    +0.000 A 
ENDBRANCH   5   8
BRANCH   7  14
ATOM     14  C   UNL     1       7.268   5.174  19.255  0.00  0.00    +0.000 C 
ATOM     15  N   UNL     1       7.697   5.549  20.268  0.00  0.00    +0.000 NA
ENDBRANCH   7  14
ENDBRANCH   1   3
BRANCH   1  16
ATOM     16  C   UNL     1       3.699   2.502  18.029  0.00  0.00    +0.000 C 
BRANCH  16  17
ATOM     17  C   UNL     1       2.251   2.973  18.280  0.00  0.00    +0.000 C 
BRANCH  17  21
ATOM     18  C   UNL     1       1.923   6.908  20.074  0.00  0.00    +0.000 A 
ATOM     19  C   UNL     1       1.493   5.765  20.765  0.00  0.00    +0.000 A 
ATOM     20  C   UNL     1       1.597   4.494  20.192  0.00  0.00    +0.000 A 
ATOM     21  C   UNL     1       2.102   4.343  18.900  0.00  0.00    +0.000 A 
ATOM     22  C   UNL     1       2.412   5.499  18.173  0.00  0.00    +0.000 A 
ATOM     23  C   UNL     1       2.331   6.782  18.740  0.00  0.00    +0.000 A 
BRANCH  18  25
ATOM     24  C   UNL     1       0.710   8.480  21.357  0.00  0.00    +0.000 C 
ATOM     25  O   UNL     1       1.921   8.138  20.679  0.00  0.00    +0.000 OA
ENDBRANCH  18  25
BRANCH  23  26
ATOM     26  O   UNL     1       2.704   7.751  17.848  0.00  0.00    +0.000 OA
ATOM     27  C   UNL     1       3.964   7.661  17.207  0.00  0.00    +0.000 C 
ENDBRANCH  23  26
ENDBRANCH  17  21
ENDBRANCH  16  17
ENDBRANCH   1  16
TORSDOF 8
ENDMDL
MODEL 8
REMARK VINA RESULT:      -7.3      4.562      7.266
REMARK  Name = 
REMARK  10 active torsions:
REMARK  status: ('A' for Active; 'I' for Inactive)
REMARK    1  A    between atoms: C_1  and  O_2
REMARK    2  A    between atoms: O_2  and  C_3
REMARK    3  A    between atoms: C_6  and  C_7
REMARK    4  A    between atoms: C_7  and  C_8
REMARK    5  A    between atoms: C_8  and  N_9
REMARK    6  A    between atoms: N_9  and  C_10
REMARK    7  A    between atoms: C_12  and  C_13
REMARK    8  A    between atoms: C_20  and  C_21
REMARK    9  A    between atoms: C_24  and  O_25
REMARK   10  A    between atoms: O_25  and  C_26
REMARK                            x       y       z     vdW  Elec       q    Type
REMARK                         _______ _______ _______ _____ _____    ______ ____
ROOT
ATOM      1  N   UNL     1       7.670   6.585  16.804  0.00  0.00    +0.000 N 
ATOM      2  H   UNL     1       8.613   6.241  16.976  0.00  0.00    +0.000 HD
ENDROOT
BRANCH   1   3
ATOM      3  C   UNL     1       6.673   5.681  16.631  0.00  0.00    +0.000 A 
ATOM      4  O   UNL     1       5.824   5.403  17.676  0.00  0.00    +0.000 OA
ATOM      5  C   UNL     1       4.932   4.491  17.159  0.00  0.00    +0.000 A 
ATOM      6  N   UNL     1       5.167   4.154  15.905  0.00  0.00    +0.000 NA
ATOM      7  C   UNL     1       6.251   4.920  15.560  0.00  0.00    +0.000 A 
BRANCH   5   8
ATOM      8  C   UNL     1       3.842   4.022  18.002  0.00  0.00    +0.000 A 
ATOM      9  C   UNL     1       2.519   4.166  17.563  0.00  0.00    +0.000 A 
ATOM     10  C   UNL     1       1.454   3.781  18.374  0.00  0.00    +0.000 A 
ATOM     11  C   UNL     1       1.745   3.250  19.616  0.00  0.00    +0.000 A 
ATOM     12  N   UNL     1       3.001   3.072  20.077  0.00  0.00    +0.000 NA
ATOM     13  C   UNL     1       4.020   3.464  19.263  0.00  0.00    +0.000 A 
ENDBRANCH   5   8
BRANCH   7  14
ATOM     14  C   UNL     1       6.823   4.854  14.262  0.00  0.00    +0.000 C 
ATOM     15  N   UNL     1       7.302   4.819  13.204  0.00  0.00    +0.000 NA
ENDBRANCH   7  14
ENDBRANCH   1   3
BRANCH   1  16
ATOM     16  C   UNL     1       7.387   7.880  17.418  0.00  0.00    +0.000 C 
BRANCH  16  17
ATOM     17  C   UNL     1       8.451   8.279  18.462  0.00  0.00    +0.000 C 
BRANCH  17  21
ATOM     18  C   UNL     1       9.152  12.538  18.891  0.00  0.00    +0.000 A 
ATOM     19  C   UNL     1       8.659  12.008  17.689  0.00  0.00    +0.000 A 
ATOM     20  C   UNL     1       8.431  10.637  17.545  0.00  0.00    +0.000 A 
ATOM     21  C   UNL     1       8.724   9.760  18.591  0.00  0.00    +0.000 A 
ATOM     22  C   UNL     1       9.331  10.282  19.739  0.00  0.00    +0.000 A 
ATOM     23  C   UNL     1       9.550  11.660  19.908  0.00  0.00    +0.000 A 
BRANCH  18  25
ATOM     24  C   UNL     1      10.551  14.437  18.733  0.00  0.00    +0.000 C 
ATOM     25  O   UNL     1       9.272  13.891  19.067  0.00  0.00    +0.000 OA
ENDBRANCH  18  25
BRANCH  23  26
ATOM     26  O   UNL     1      10.133  11.933  21.115  0.00  0.00    +0.000 OA
ATOM     27  C   UNL     1       9.362  12.530  22.143  0.00  0.00    +0.000 C 
ENDBRANCH  23  26
ENDBRANCH  17  21
ENDBRANCH  16  17
ENDBRANCH   1  16
TORSDOF 8
ENDMDL
MODEL 9
REMARK VINA RESULT:      -7.3      4.813      7.286
REMARK  Name = 
REMARK  10 active torsions:
REMARK  status: ('A' for Active; 'I' for Inactive)
REMARK    1  A    between atoms: C_1  and  O_2
REMARK    2  A    between atoms: O_2  and  C_3
REMARK    3  A    between atoms: C_6  and  C_7
REMARK    4  A    between atoms: C_7  and  C_8
REMARK    5  A    between atoms: C_8  and  N_9
REMARK    6  A    between atoms: N_9  and  C_10
REMARK    7  A    between atoms: C_12  and  C_13
REMARK    8  A    between atoms: C_20  and  C_21
REMARK    9  A    between atoms: C_24  and  O_25
REMARK   10  A    between atoms: O_25  and  C_26
REMARK                            x       y       z     vdW  Elec       q    Type
REMARK                         _______ _______ _______ _____ _____    ______ ____
ROOT
ATOM      1  N   UNL     1       7.747   7.090  17.152  0.00  0.00    +0.000 N 
ATOM      2  H   UNL     1       8.646   6.712  17.446  0.00  0.00    +0.000 HD
ENDROOT
BRANCH   1   3
ATOM      3  C   UNL     1       6.703   6.236  17.002  0.00  0.00    +0.000 A 
ATOM      4  O   UNL     1       5.789   6.100  18.020  0.00  0.00    +0.000 OA
ATOM      5  C   UNL     1       4.866   5.202  17.533  0.00  0.00    +0.000 A 
ATOM      6  N   UNL     1       5.139   4.745  16.325  0.00  0.00    +0.000 NA
ATOM      7  C   UNL     1       6.286   5.412  15.977  0.00  0.00    +0.000 A 
BRANCH   5   8
ATOM      8  C   UNL     1       3.709   4.873  18.352  0.00  0.00    +0.000 A 
ATOM      9  C   UNL     1       2.617   4.214  17.771  0.00  0.00    +0.000 A 
ATOM     10  C   UNL     1       1.472   3.940  18.516  0.00  0.00    +0.000 A 
ATOM     11  C   UNL     1       1.452   4.334  19.841  0.00  0.00    +0.000 A 
ATOM     12  N   UNL     1       2.483   4.953  20.452  0.00  0.00    +0.000 NA
ATOM     13  C   UNL     1       3.586   5.212  19.695  0.00  0.00    +0.000 A 
ENDBRANCH   5   8
BRANCH   7  14
ATOM     14  C   UNL     1       6.915   5.200  14.722  0.00  0.00    +0.000 C 
ATOM     15  N   UNL     1       7.423   5.047  13.688  0.00  0.00    +0.000 NA
ENDBRANCH   7  14
ENDBRANCH   1   3
BRANCH   1  16
ATOM     16  C   UNL     1       7.510   8.467  17.581  0.00  0.00    +0.000 C 
BRANCH  16  17
ATOM     17  C   UNL     1       8.621   8.988  18.517  0.00  0.00    +0.000 C 
BRANCH  17  21
ATOM     18  C   UNL     1       9.807  13.104  17.832  0.00  0.00    +0.000 A 
ATOM     19  C   UNL     1      10.697  12.186  18.412  0.00  0.00    +0.000 A 
ATOM     20  C   UNL     1      10.320  10.859  18.635  0.00  0.00    +0.000 A 
ATOM     21  C   UNL     1       9.032  10.428  18.313  0.00  0.00    +0.000 A 
ATOM     22  C   UNL     1       8.115  11.379  17.851  0.00  0.00    +0.000 A 
ATOM     23  C   UNL     1       8.482  12.713  17.604  0.00  0.00    +0.000 A 
BRANCH  18  25
ATOM     24  C   UNL     1      11.608  14.629  17.700  0.00  0.00    +0.000 C 
ATOM     25  O   UNL     1      10.214  14.373  17.516  0.00  0.00    +0.000 OA
ENDBRANCH  18  25
BRANCH  23  26
ATOM     26  O   UNL     1       7.426  13.448  17.137  0.00  0.00    +0.000 OA
ATOM     27  C   UNL     1       6.875  14.471  17.948  0.00  0.00    +0.000 C 
ENDBRANCH  23  26
ENDBRANCH  17  21
ENDBRANCH  16  17
ENDBRANCH   1  16
TORSDOF 8
ENDMDL
