MODEL 1
REMARK VINA RESULT:      -9.7      0.000      0.000
REMARK  Name = 
REMARK  4 active torsions:
REMARK  status: ('A' for Active; 'I' for Inactive)
REMARK    1  A    between atoms: C_1  and  C_2
REMARK    2  A    between atoms: C_2  and  C_4
REMARK    3  A    between atoms: C_13  and  N_14
REMARK    4  A    between atoms: N_14  and  C_15
REMARK                            x       y       z     vdW  Elec       q    Type
REMARK                         _______ _______ _______ _____ _____    ______ ____
ROOT
ATOM      1  C   UNL     1       5.901   3.522  12.599  0.00  0.00    +0.000 A 
ATOM      2  C   UNL     1       7.002   4.255  12.151  0.00  0.00    +0.000 A 
ATOM      3  C   UNL     1       7.713   5.081  13.022  0.00  0.00    +0.000 A 
ATOM      4  C   UNL     1       7.300   5.130  14.356  0.00  0.00    +0.000 A 
ATOM      5  N   UNL     1       7.819   5.861  15.393  0.00  0.00    +0.000 N 
ATOM      6  C   UNL     1       7.156   5.592  16.548  0.00  0.00    +0.000 A 
ATOM      7  N   UNL     1       7.482   6.170  17.716  0.00  0.00    +0.000 NA
ATOM      8  C   UNL     1       6.717   5.757  18.738  0.00  0.00    +0.000 A 
ATOM      9  C   UNL     1       5.714   4.808  18.645  0.00  0.00    +0.000 A 
ATOM     10  C   UNL     1       5.433   4.175  17.417  0.00  0.00    +0.000 A 
ATOM     11  C   UNL     1       6.166   4.644  16.291  0.00  0.00    +0.000 A 
ATOM     12  C   UNL     1       6.226   4.391  14.868  0.00  0.00    +0.000 A 
ATOM     13  C   UNL     1       5.496   3.598  13.951  0.00  0.00    +0.000 A 
ATOM     14  H   UNL     1       8.597   6.499  15.337  0.00  0.00    +0.000 HD
ENDROOT
BRANCH   1  16
ATOM     15  C   UNL     1       3.831   3.131  11.096  0.00  0.00    +0.000 C 
ATOM     16  C   UNL     1       5.138   2.638  11.670  0.00  0.00    +0.000 C 
ATOM     17  O   UNL     1       5.585   1.529  11.382  0.00  0.00    +0.000 OA
ENDBRANCH   1  16
BRANCH  10  18
ATOM     18  N   UNL     1       4.466   3.136  17.383  0.00  0.00    +0.000 N 
ATOM     19  H   UNL     1       4.884   2.212  17.336  0.00  0.00    +0.000 HD
BRANCH  18  20
ATOM     20  C   UNL     1       3.243   3.096  18.105  0.00  0.00    +0.000 A 
ATOM     21  C   UNL     1       2.007   3.410  17.515  0.00  0.00    +0.000 A 
ATOM     22  C   UNL     1       0.818   3.361  18.248  0.00  0.00    +0.000 A 
ATOM     23  C   UNL     1       0.849   3.007  19.593  0.00  0.00    +0.000 A 
ATOM     24  C   UNL     1       2.070   2.707  20.195  0.00  0.00    +0.000 A 
ATOM     25 CL   UNL     1       2.105   2.271  21.861  0.00  0.00    +0.000 Cl
ATOM     26  C   UNL     1       3.260   2.753  19.463  0.00  0.00    +0.000 A 
ENDBRANCH  18  20
ENDBRANCH  10  18
TORSDOF 3
ENDMDL
MODEL 2
REMARK VINA RESULT:      -9.4      4.044      6.026
REMARK  Name = 
REMARK  4 active torsions:
REMARK  status: ('A' for Active; 'I' for Inactive)
REMARK    1  A    between atoms: C_1  and  C_2
REMARK    2  A    between atoms: C_2  and  C_4
REMARK    3  A    between atoms: C_13  and  N_14
REMARK    4  A    between atoms: N_14  and  C_15
REMARK                            x       y       z     vdW  Elec       q    Type
REMARK                         _______ _______ _______ _____ _____    ______ ____
ROOT
ATOM      1  C   UNL     1       6.288   5.688  17.486  0.00  0.00    +0.000 A 
ATOM      2  C   UNL     1       6.415   4.733  16.475  0.00  0.00    +0.000 A 
ATOM      3  C   UNL     1       5.485   3.700  16.346  0.00  0.00    +0.000 A 
ATOM      4  C   UNL     1       4.417   3.669  17.246  0.00  0.00    +0.000 A 
ATOM      5  N   UNL     1       3.392   2.765  17.335  0.00  0.00    +0.000 N 
ATOM      6  C   UNL     1       2.528   3.115  18.324  0.00  0.00    +0.000 A 
ATOM      7  N   UNL     1       1.427   2.399  18.606  0.00  0.00    +0.000 NA
ATOM      8  C   UNL     1       0.701   2.923  19.605  0.00  0.00    +0.000 A 
ATOM      9  C   UNL     1       1.001   4.098  20.273  0.00  0.00    +0.000 A 
ATOM     10  C   UNL     1       2.133   4.860  19.916  0.00  0.00    +0.000 A 
ATOM     11  C   UNL     1       2.975   4.297  18.917  0.00  0.00    +0.000 A 
ATOM     12  C   UNL     1       4.221   4.619  18.257  0.00  0.00    +0.000 A 
ATOM     13  C   UNL     1       5.204   5.628  18.391  0.00  0.00    +0.000 A 
ATOM     14  H   UNL     1       3.260   1.957  16.747  0.00  0.00    +0.000 HD
ENDROOT
BRANCH   1  16
ATOM     15  C   UNL     1       8.192   6.812  18.828  0.00  0.00    +0.000 C 
ATOM     16  C   UNL     1       7.280   6.794  17.626  0.00  0.00    +0.000 C 
ATOM     17  O   UNL     1       7.343   7.667  16.762  0.00  0.00    +0.000 OA
ENDBRANCH   1  16
BRANCH  10  18
ATOM     18  N   UNL     1       2.352   6.108  20.555  0.00  0.00    +0.000 N 
ATOM     19  H   UNL     1       3.267   6.171  20.991  0.00  0.00    +0.000 HD
BRANCH  18  20
ATOM     20  C   UNL     1       1.931   7.382  20.088  0.00  0.00    +0.000 A 
ATOM     21  C   UNL     1       2.202   7.836  18.785  0.00  0.00    +0.000 A 
ATOM     22  C   UNL     1       1.774   9.093  18.351  0.00  0.00    +0.000 A 
ATOM     23  C   UNL     1       1.078   9.926  19.220  0.00  0.00    +0.000 A 
ATOM     24  C   UNL     1       0.816   9.496  20.519  0.00  0.00    +0.000 A 
ATOM     25 CL   UNL     1      -0.045  10.530  21.594  0.00  0.00    +0.000 Cl
ATOM     26  C   UNL     1       1.240   8.237  20.956  0.00  0.00    +0.000 A 
ENDBRANCH  18  20
ENDBRANCH  10  18
TORSDOF 3
ENDMDL
MODEL 3
REMARK VINA RESULT:      -9.2      4.032      6.040
REMARK  Name = 
REMARK  4 active torsions:
REMARK  status: ('A' for Active; 'I' for Inactive)
REMARK    1  A    between atoms: C_1  and  C_2
REMARK    2  A    between atoms: C_2  and  C_4
REMARK    3  A    between atoms: C_13  and  N_14
REMARK    4  A    between atoms: N_14  and  C_15
REMARK                            x       y       z     vdW  Elec       q    Type
REMARK                         _______ _______ _______ _____ _____    ______ ____
ROOT
ATOM      1  C   UNL     1       6.162   5.683  17.368  0.00  0.00    +0.000 A 
ATOM      2  C   UNL     1       6.208   4.855  16.246  0.00  0.00    +0.000 A 
ATOM      3  C   UNL     1       5.234   3.878  16.038  0.00  0.00    +0.000 A 
ATOM      4  C   UNL     1       4.205   3.774  16.977  0.00  0.00    +0.000 A 
ATOM      5  N   UNL     1       3.150   2.900  17.005  0.00  0.00    +0.000 N 
ATOM      6  C   UNL     1       2.344   3.157  18.069  0.00  0.00    +0.000 A 
ATOM      7  N   UNL     1       1.229   2.450  18.314  0.00  0.00    +0.000 NA
ATOM      8  C   UNL     1       0.566   2.873  19.403  0.00  0.00    +0.000 A 
ATOM      9  C   UNL     1       0.942   3.947  20.191  0.00  0.00    +0.000 A 
ATOM     10  C   UNL     1       2.086   4.708  19.875  0.00  0.00    +0.000 A 
ATOM     11  C   UNL     1       2.861   4.242  18.777  0.00  0.00    +0.000 A 
ATOM     12  C   UNL     1       4.090   4.599  18.103  0.00  0.00    +0.000 A 
ATOM     13  C   UNL     1       5.117   5.551  18.310  0.00  0.00    +0.000 A 
ATOM     14  H   UNL     1       2.961   2.175  16.331  0.00  0.00    +0.000 HD
ENDROOT
BRANCH   1  16
ATOM     15  C   UNL     1       8.047   6.668  18.843  0.00  0.00    +0.000 C 
ATOM     16  C   UNL     1       7.202   6.731  17.593  0.00  0.00    +0.000 C 
ATOM     17  O   UNL     1       7.358   7.621  16.760  0.00  0.00    +0.000 OA
ENDBRANCH   1  16
BRANCH  10  18
ATOM     18  N   UNL     1       2.381   5.861  20.649  0.00  0.00    +0.000 N 
ATOM     19  H   UNL     1       3.362   5.922  20.905  0.00  0.00    +0.000 HD
BRANCH  18  20
ATOM     20  C   UNL     1       1.827   7.158  20.477  0.00  0.00    +0.000 A 
ATOM     21  C   UNL     1       0.990   7.755  21.435  0.00  0.00    +0.000 A 
ATOM     22  C   UNL     1       0.461   9.034  21.242  0.00  0.00    +0.000 A 
ATOM     23  C   UNL     1       0.751   9.733  20.075  0.00  0.00    +0.000 A 
ATOM     24  C   UNL     1       1.568   9.148  19.110  0.00  0.00    +0.000 A 
ATOM     25 CL   UNL     1       1.924  10.017  17.665  0.00  0.00    +0.000 Cl
ATOM     26  C   UNL     1       2.101   7.870  19.302  0.00  0.00    +0.000 A 
ENDBRANCH  18  20
ENDBRANCH  10  18
TORSDOF 3
ENDMDL
MODEL 4
REMARK VINA RESULT:      -8.4      3.521      5.515
REMARK  Name = 
REMARK  4 active torsions:
REMARK  status: ('A' for Active; 'I' for Inactive)
REMARK    1  A    between atoms: C_1  and  C_2
REMARK    2  A    between atoms: C_2  and  C_4
REMARK    3  A    between atoms: C_13  and  N_14
REMARK    4  A    between atoms: N_14  and  C_15
REMARK                            x       y       z     vdW  Elec       q    Type
REMARK                         _______ _______ _______ _____ _____    ______ ____
ROOT
ATOM      1  C   UNL     1       2.332   7.178  19.425  0.00  0.00    +0.000 A 
ATOM      2  C   UNL     1       2.242   8.348  18.668  0.00  0.00    +0.000 A 
ATOM      3  C   UNL     1       2.979   8.498  17.494  0.00  0.00    +0.000 A 
ATOM      4  C   UNL     1       3.790   7.433  17.093  0.00  0.00    +0.000 A 
ATOM      5  N   UNL     1       4.610   7.339  15.999  0.00  0.00    +0.000 N 
ATOM      6  C   UNL     1       5.197   6.114  15.944  0.00  0.00    +0.000 A 
ATOM      7  N   UNL     1       6.036   5.762  14.956  0.00  0.00    +0.000 NA
ATOM      8  C   UNL     1       6.493   4.506  15.078  0.00  0.00    +0.000 A 
ATOM      9  C   UNL     1       6.129   3.623  16.080  0.00  0.00    +0.000 A 
ATOM     10  C   UNL     1       5.201   4.002  17.072  0.00  0.00    +0.000 A 
ATOM     11  C   UNL     1       4.755   5.352  17.026  0.00  0.00    +0.000 A 
ATOM     12  C   UNL     1       3.894   6.225  17.794  0.00  0.00    +0.000 A 
ATOM     13  C   UNL     1       3.168   6.119  19.004  0.00  0.00    +0.000 A 
ATOM     14  H   UNL     1       4.757   8.054  15.304  0.00  0.00    +0.000 HD
ENDROOT
BRANCH   1  16
ATOM     15  C   UNL     1       1.052   8.244  21.406  0.00  0.00    +0.000 C 
ATOM     16  C   UNL     1       1.543   7.013  20.682  0.00  0.00    +0.000 C 
ATOM     17  O   UNL     1       1.301   5.884  21.103  0.00  0.00    +0.000 OA
ENDBRANCH   1  16
BRANCH  10  18
ATOM     18  N   UNL     1       4.778   3.037  18.023  0.00  0.00    +0.000 N 
ATOM     19  H   UNL     1       5.461   2.885  18.759  0.00  0.00    +0.000 HD
BRANCH  18  20
ATOM     20  C   UNL     1       3.459   2.865  18.522  0.00  0.00    +0.000 A 
ATOM     21  C   UNL     1       2.335   2.801  17.681  0.00  0.00    +0.000 A 
ATOM     22  C   UNL     1       1.048   2.629  18.198  0.00  0.00    +0.000 A 
ATOM     23  C   UNL     1       0.863   2.529  19.573  0.00  0.00    +0.000 A 
ATOM     24  C   UNL     1       1.967   2.605  20.420  0.00  0.00    +0.000 A 
ATOM     25 CL   UNL     1       1.734   2.483  22.123  0.00  0.00    +0.000 Cl
ATOM     26  C   UNL     1       3.255   2.775  19.905  0.00  0.00    +0.000 A 
ENDBRANCH  18  20
ENDBRANCH  10  18
TORSDOF 3
ENDMDL
MODEL 5
REMARK VINA RESULT:      -8.4      4.017      6.853
REMARK  Name = 
REMARK  4 active torsions:
REMARK  status: ('A' for Active; 'I' for Inactive)
REMARK    1  A    between atoms: C_1  and  C_2
REMARK    2  A    between atoms: C_2  and  C_4
REMARK    3  A    between atoms: C_13  and  N_14
REMARK    4  A    between atoms: N_14  and  C_15
REMARK                            x       y       z     vdW  Elec       q    Type
REMARK                         _______ _______ _______ _____ _____    ______ ____
ROOT
ATOM      1  C   UNL     1       3.463   3.129  20.002  0.00  0.00    +0.000 A 
ATOM      2  C   UNL     1       2.637   3.095  21.127  0.00  0.00    +0.000 A 
ATOM      3  C   UNL     1       1.924   4.226  21.526  0.00  0.00    +0.000 A 
ATOM      4  C   UNL     1       2.049   5.381  20.749  0.00  0.00    +0.000 A 
ATOM      5  N   UNL     1       1.469   6.609  20.933  0.00  0.00    +0.000 N 
ATOM      6  C   UNL     1       1.813   7.456  19.927  0.00  0.00    +0.000 A 
ATOM      7  N   UNL     1       1.362   8.720  19.865  0.00  0.00    +0.000 NA
ATOM      8  C   UNL     1       1.804   9.383  18.785  0.00  0.00    +0.000 A 
ATOM      9  C   UNL     1       2.610   8.843  17.797  0.00  0.00    +0.000 A 
ATOM     10  C   UNL     1       3.020   7.495  17.860  0.00  0.00    +0.000 A 
ATOM     11  C   UNL     1       2.641   6.781  19.030  0.00  0.00    +0.000 A 
ATOM     12  C   UNL     1       2.835   5.463  19.593  0.00  0.00    +0.000 A 
ATOM     13  C   UNL     1       3.581   4.313  19.240  0.00  0.00    +0.000 A 
ATOM     14  H   UNL     1       0.853   6.868  21.687  0.00  0.00    +0.000 HD
ENDROOT
BRANCH   1  16
ATOM     15  C   UNL     1       3.846   1.234  18.282  0.00  0.00    +0.000 C 
ATOM     16  C   UNL     1       4.226   1.920  19.573  0.00  0.00    +0.000 C 
ATOM     17  O   UNL     1       5.151   1.506  20.269  0.00  0.00    +0.000 OA
ENDBRANCH   1  16
BRANCH  10  18
ATOM     18  N   UNL     1       3.761   6.951  16.778  0.00  0.00    +0.000 N 
ATOM     19  H   UNL     1       3.806   7.575  15.979  0.00  0.00    +0.000 HD
BRANCH  18  20
ATOM     20  C   UNL     1       4.947   6.174  16.873  0.00  0.00    +0.000 A 
ATOM     21  C   UNL     1       5.178   5.047  16.067  0.00  0.00    +0.000 A 
ATOM     22  C   UNL     1       6.355   4.301  16.179  0.00  0.00    +0.000 A 
ATOM     23  C   UNL     1       7.318   4.665  17.115  0.00  0.00    +0.000 A 
ATOM     24  C   UNL     1       7.096   5.772  17.931  0.00  0.00    +0.000 A 
ATOM     25 CL   UNL     1       8.290   6.220  19.090  0.00  0.00    +0.000 Cl
ATOM     26  C   UNL     1       5.920   6.521  17.819  0.00  0.00    +0.000 A 
ENDBRANCH  18  20
ENDBRANCH  10  18
TORSDOF 3
ENDMDL
MODEL 6
REMARK VINA RESULT:      -8.4      0.919      1.005
REMARK  Name = 
REMARK  4 active torsions:
REMARK  status: ('A' for Active; 'I' for Inactive)
REMARK    1  A    between atoms: C_1  and  C_2
REMARK    2  A    between atoms: C_2  and  C_4
REMARK    3  A    between atoms: C_13  and  N_14
REMARK    4  A    between atoms: N_14  and  C_15
REMARK                            x       y       z     vdW  Elec       q    Type
REMARK                         _______ _______ _______ _____ _____    ______ ____
ROOT
ATOM      1  C   UNL     1       5.688   3.393  12.206  0.00  0.00    +0.000 A 
ATOM      2  C   UNL     1       6.976   3.756  11.806  0.00  0.00    +0.000 A 
ATOM      3  C   UNL     1       7.781   4.550  12.623  0.00  0.00    +0.000 A 
ATOM      4  C   UNL     1       7.263   4.948  13.858  0.00  0.00    +0.000 A 
ATOM      5  N   UNL     1       7.843   5.729  14.824  0.00  0.00    +0.000 N 
ATOM      6  C   UNL     1       7.022   5.847  15.901  0.00  0.00    +0.000 A 
ATOM      7  N   UNL     1       7.365   6.550  16.993  0.00  0.00    +0.000 NA
ATOM      8  C   UNL     1       6.423   6.527  17.949  0.00  0.00    +0.000 A 
ATOM      9  C   UNL     1       5.229   5.831  17.870  0.00  0.00    +0.000 A 
ATOM     10  C   UNL     1       4.923   5.054  16.735  0.00  0.00    +0.000 A 
ATOM     11  C   UNL     1       5.857   5.117  15.664  0.00  0.00    +0.000 A 
ATOM     12  C   UNL     1       5.993   4.587  14.325  0.00  0.00    +0.000 A 
ATOM     13  C   UNL     1       5.183   3.818  13.455  0.00  0.00    +0.000 A 
ATOM     14  H   UNL     1       8.757   6.150  14.777  0.00  0.00    +0.000 HD
ENDROOT
BRANCH   1  16
ATOM     15  C   UNL     1       3.534   3.115  10.800  0.00  0.00    +0.000 C 
ATOM     16  C   UNL     1       4.824   2.543  11.335  0.00  0.00    +0.000 C 
ATOM     17  O   UNL     1       5.178   1.397  11.062  0.00  0.00    +0.000 OA
ENDBRANCH   1  16
BRANCH  10  18
ATOM     18  N   UNL     1       3.736   4.276  16.734  0.00  0.00    +0.000 N 
ATOM     19  H   UNL     1       3.661   3.674  15.919  0.00  0.00    +0.000 HD
BRANCH  18  20
ATOM     20  C   UNL     1       3.123   3.667  17.862  0.00  0.00    +0.000 A 
ATOM     21  C   UNL     1       1.731   3.660  18.053  0.00  0.00    +0.000 A 
ATOM     22  C   UNL     1       1.154   3.053  19.171  0.00  0.00    +0.000 A 
ATOM     23  C   UNL     1       1.965   2.451  20.128  0.00  0.00    +0.000 A 
ATOM     24  C   UNL     1       3.348   2.463  19.958  0.00  0.00    +0.000 A 
ATOM     25 CL   UNL     1       4.351   1.718  21.145  0.00  0.00    +0.000 Cl
ATOM     26  C   UNL     1       3.927   3.068  18.839  0.00  0.00    +0.000 A 
ENDBRANCH  18  20
ENDBRANCH  10  18
TORSDOF 3
ENDMDL
MODEL 7
REMARK VINA RESULT:      -8.4      0.954      1.408
REMARK  Name = 
REMARK  4 active torsions:
REMARK  status: ('A' for Active; 'I' for Inactive)
REMARK    1  A    between atoms: C_1  and  C_2
REMARK    2  A    between atoms: C_2  and  C_4
REMARK    3  A    between atoms: C_13  and  N_14
REMARK    4  A    between atoms: N_14  and  C_15
REMARK                            x       y       z     vdW  Elec       q    Type
REMARK                         _______ _______ _______ _____ _____    ______ ____
ROOT
ATOM      1  C   UNL     1       5.976   3.491  12.458  0.00  0.00    +0.000 A 
ATOM      2  C   UNL     1       7.014   4.253  11.919  0.00  0.00    +0.000 A 
ATOM      3  C   UNL     1       7.737   5.141  12.715  0.00  0.00    +0.000 A 
ATOM      4  C   UNL     1       7.402   5.223  14.069  0.00  0.00    +0.000 A 
ATOM      5  N   UNL     1       7.946   6.016  15.046  0.00  0.00    +0.000 N 
ATOM      6  C   UNL     1       7.366   5.762  16.248  0.00  0.00    +0.000 A 
ATOM      7  N   UNL     1       7.734   6.398  17.373  0.00  0.00    +0.000 NA
ATOM      8  C   UNL     1       7.050   5.991  18.454  0.00  0.00    +0.000 A 
ATOM      9  C   UNL     1       6.088   4.996  18.455  0.00  0.00    +0.000 A 
ATOM     10  C   UNL     1       5.764   4.305  17.269  0.00  0.00    +0.000 A 
ATOM     11  C   UNL     1       6.407   4.762  16.085  0.00  0.00    +0.000 A 
ATOM     12  C   UNL     1       6.394   4.458  14.671  0.00  0.00    +0.000 A 
ATOM     13  C   UNL     1       5.649   3.599  13.829  0.00  0.00    +0.000 A 
ATOM     14  H   UNL     1       8.690   6.685  14.921  0.00  0.00    +0.000 HD
ENDROOT
BRANCH   1  16
ATOM     15  C   UNL     1       3.863   2.971  11.057  0.00  0.00    +0.000 C 
ATOM     16  C   UNL     1       5.201   2.539  11.609  0.00  0.00    +0.000 C 
ATOM     17  O   UNL     1       5.663   1.426  11.367  0.00  0.00    +0.000 OA
ENDBRANCH   1  16
BRANCH  10  18
ATOM     18  N   UNL     1       4.846   3.224  17.331  0.00  0.00    +0.000 N 
ATOM     19  H   UNL     1       5.225   2.364  16.949  0.00  0.00    +0.000 HD
BRANCH  18  20
ATOM     20  C   UNL     1       3.940   2.944  18.389  0.00  0.00    +0.000 A 
ATOM     21  C   UNL     1       4.370   2.684  19.702  0.00  0.00    +0.000 A 
ATOM     22  C   UNL     1       3.457   2.413  20.725  0.00  0.00    +0.000 A 
ATOM     23  C   UNL     1       2.094   2.386  20.447  0.00  0.00    +0.000 A 
ATOM     24  C   UNL     1       1.655   2.628  19.148  0.00  0.00    +0.000 A 
ATOM     25 CL   UNL     1      -0.033   2.593  18.806  0.00  0.00    +0.000 Cl
ATOM     26  C   UNL     1       2.566   2.902  18.123  0.00  0.00    +0.000 A 
ENDBRANCH  18  20
ENDBRANCH  10  18
TORSDOF 3
ENDMDL
MODEL 8
REMARK VINA RESULT:      -8.3      1.084      1.336
REMARK  Name = 
REMARK  4 active torsions:
REMARK  status: ('A' for Active; 'I' for Inactive)
REMARK    1  A    between atoms: C_1  and  C_2
REMARK    2  A    between atoms: C_2  and  C_4
REMARK    3  A    between atoms: C_13  and  N_14
REMARK    4  A    between atoms: N_14  and  C_15
REMARK                            x       y       z     vdW  Elec       q    Type
REMARK                         _______ _______ _______ _____ _____    ______ ____
ROOT
ATOM      1  C   UNL     1       5.698   3.436  12.196  0.00  0.00    +0.000 A 
ATOM      2  C   UNL     1       7.008   3.721  11.806  0.00  0.00    +0.000 A 
ATOM      3  C   UNL     1       7.842   4.497  12.612  0.00  0.00    +0.000 A 
ATOM      4  C   UNL     1       7.328   4.957  13.827  0.00  0.00    +0.000 A 
ATOM      5  N   UNL     1       7.933   5.735  14.779  0.00  0.00    +0.000 N 
ATOM      6  C   UNL     1       7.106   5.925  15.840  0.00  0.00    +0.000 A 
ATOM      7  N   UNL     1       7.469   6.641  16.917  0.00  0.00    +0.000 NA
ATOM      8  C   UNL     1       6.514   6.694  17.859  0.00  0.00    +0.000 A 
ATOM      9  C   UNL     1       5.288   6.057  17.782  0.00  0.00    +0.000 A 
ATOM     10  C   UNL     1       4.957   5.264  16.664  0.00  0.00    +0.000 A 
ATOM     11  C   UNL     1       5.908   5.248  15.606  0.00  0.00    +0.000 A 
ATOM     12  C   UNL     1       6.035   4.674  14.285  0.00  0.00    +0.000 A 
ATOM     13  C   UNL     1       5.198   3.922  13.425  0.00  0.00    +0.000 A 
ATOM     14  H   UNL     1       8.869   6.108  14.734  0.00  0.00    +0.000 HD
ENDROOT
BRANCH   1  16
ATOM     15  C   UNL     1       3.528   3.212  10.805  0.00  0.00    +0.000 C 
ATOM     16  C   UNL     1       4.804   2.605  11.336  0.00  0.00    +0.000 C 
ATOM     17  O   UNL     1       5.121   1.448  11.070  0.00  0.00    +0.000 OA
ENDBRANCH   1  16
BRANCH  10  18
ATOM     18  N   UNL     1       3.732   4.547  16.667  0.00  0.00    +0.000 N 
ATOM     19  H   UNL     1       3.446   4.253  15.738  0.00  0.00    +0.000 HD
BRANCH  18  20
ATOM     20  C   UNL     1       3.306   3.605  17.642  0.00  0.00    +0.000 A 
ATOM     21  C   UNL     1       3.783   2.284  17.675  0.00  0.00    +0.000 A 
ATOM     22  C   UNL     1       3.349   1.378  18.647  0.00  0.00    +0.000 A 
ATOM     23  C   UNL     1       2.417   1.779  19.598  0.00  0.00    +0.000 A 
ATOM     24  C   UNL     1       1.924   3.081  19.569  0.00  0.00    +0.000 A 
ATOM     25 CL   UNL     1       0.768   3.574  20.748  0.00  0.00    +0.000 Cl
ATOM     26  C   UNL     1       2.359   3.990  18.599  0.00  0.00    +0.000 A 
ENDBRANCH  18  20
ENDBRANCH  10  18
TORSDOF 3
ENDMDL
MODEL 9
REMARK VINA RESULT:      -8.2      4.162      7.273
REMARK  Name = 
REMARK  4 active torsions:
REMARK  status: ('A' for Active; 'I' for Inactive)
REMARK    1  A    between atoms: C_1  and  C_2
REMARK    2  A    between atoms: C_2  and  C_4
REMARK    3  A    between atoms: C_13  and  N_14
REMARK    4  A    between atoms: N_14  and  C_15
REMARK                            x       y       z     vdW  Elec       q    Type
REMARK                         _______ _______ _______ _____ _____    ______ ____
ROOT
ATOM      1  C   UNL     1       1.840   8.158  18.983  0.00  0.00    +0.000 A 
ATOM      2  C   UNL     1       1.519   8.193  20.341  0.00  0.00    +0.000 A 
ATOM      3  C   UNL     1       1.517   7.027  21.106  0.00  0.00    +0.000 A 
ATOM      4  C   UNL     1       1.867   5.832  20.472  0.00  0.00    +0.000 A 
ATOM      5  N   UNL     1       1.929   4.566  20.994  0.00  0.00    +0.000 N 
ATOM      6  C   UNL     1       2.357   3.682  20.054  0.00  0.00    +0.000 A 
ATOM      7  N   UNL     1       2.518   2.374  20.318  0.00  0.00    +0.000 NA
ATOM      8  C   UNL     1       2.963   1.676  19.262  0.00  0.00    +0.000 A 
ATOM      9  C   UNL     1       3.272   2.219  18.026  0.00  0.00    +0.000 A 
ATOM     10  C   UNL     1       3.148   3.604  17.796  0.00  0.00    +0.000 A 
ATOM     11  C   UNL     1       2.601   4.368  18.865  0.00  0.00    +0.000 A 
ATOM     12  C   UNL     1       2.231   5.742  19.123  0.00  0.00    +0.000 A 
ATOM     13  C   UNL     1       2.180   6.935  18.362  0.00  0.00    +0.000 A 
ATOM     14  H   UNL     1       1.715   4.304  21.943  0.00  0.00    +0.000 HD
ENDROOT
BRANCH   1  16
ATOM     15  C   UNL     1       1.049  10.597  18.636  0.00  0.00    +0.000 C 
ATOM     16  C   UNL     1       1.845   9.405  18.162  0.00  0.00    +0.000 C 
ATOM     17  O   UNL     1       2.498   9.444  17.121  0.00  0.00    +0.000 OA
ENDBRANCH   1  16
BRANCH  10  18
ATOM     18  N   UNL     1       3.569   4.136  16.549  0.00  0.00    +0.000 N 
ATOM     19  H   UNL     1       2.876   4.747  16.129  0.00  0.00    +0.000 HD
BRANCH  18  20
ATOM     20  C   UNL     1       4.882   4.561  16.212  0.00  0.00    +0.000 A 
ATOM     21  C   UNL     1       5.572   4.065  15.092  0.00  0.00    +0.000 A 
ATOM     22  C   UNL     1       6.862   4.502  14.782  0.00  0.00    +0.000 A 
ATOM     23  C   UNL     1       7.491   5.437  15.598  0.00  0.00    +0.000 A 
ATOM     24  C   UNL     1       6.825   5.926  16.719  0.00  0.00    +0.000 A 
ATOM     25 CL   UNL     1       7.606   7.083  17.729  0.00  0.00    +0.000 Cl
ATOM     26  C   UNL     1       5.532   5.492  17.030  0.00  0.00    +0.000 A 
ENDBRANCH  18  20
ENDBRANCH  10  18
TORSDOF 3
ENDMDL
