MODEL 1
REMARK VINA RESULT:      -8.6      0.000      0.000
REMARK  Name = 
REMARK  4 active torsions:
REMARK  status: ('A' for Active; 'I' for Inactive)
REMARK    1  A    between atoms: C_2  and  C_3
REMARK    2  A    between atoms: C_5  and  C_6
REMARK    3  A    between atoms: C_16  and  C_17
REMARK    4  A    between atoms: C_17  and  N_18
REMARK                            x       y       z     vdW  Elec       q    Type
REMARK                         _______ _______ _______ _____ _____    ______ ____
ROOT
ATOM      1  C   UNL     1       2.542   4.872  20.489  0.00  0.00    +0.000 A 
ATOM      2  C   UNL     1       3.490   4.662  19.501  0.00  0.00    +0.000 A 
ATOM      3  C   UNL     1       3.725   5.659  18.538  0.00  0.00    +0.000 A 
ATOM      4  C   UNL     1       2.936   6.854  18.620  0.00  0.00    +0.000 A 
ATOM      5  C   UNL     1       2.959   7.913  17.677  0.00  0.00    +0.000 A 
ATOM      6  C   UNL     1       2.221   9.082  17.852  0.00  0.00    +0.000 A 
ATOM      7  C   UNL     1       1.394   9.217  18.959  0.00  0.00    +0.000 A 
ATOM      8  C   UNL     1       1.312   8.153  19.868  0.00  0.00    +0.000 A 
ATOM      9  C   UNL     1       2.043   6.983  19.713  0.00  0.00    +0.000 A 
ATOM     10  N   UNL     1       1.845   6.017  20.617  0.00  0.00    +0.000 NA
ENDROOT
BRANCH   3  11
ATOM     11  C   UNL     1       4.779   5.427  17.504  0.00  0.00    +0.000 A 
ATOM     12  C   UNL     1       4.563   4.551  16.419  0.00  0.00    +0.000 A 
ATOM     13  C   UNL     1       5.539   4.347  15.437  0.00  0.00    +0.000 A 
ATOM     14  C   UNL     1       6.737   5.043  15.503  0.00  0.00    +0.000 A 
ATOM     15  F   UNL     1       7.653   4.882  14.541  0.00  0.00    +0.000 F 
ATOM     16  C   UNL     1       6.996   5.898  16.560  0.00  0.00    +0.000 A 
ATOM     17  C   UNL     1       6.043   6.050  17.572  0.00  0.00    +0.000 A 
ENDBRANCH   3  11
BRANCH   1  19
ATOM     18  N   UNL     1       2.053   2.997  22.222  0.00  0.00    +0.000 NA
ATOM     19  C   UNL     1       2.242   3.843  21.448  0.00  0.00    +0.000 C 
ENDBRANCH   1  19
BRANCH   7  20
ATOM     20  C   UNL     1       0.547  10.454  19.117  0.00  0.00    +0.000 C 
BRANCH  20  21
ATOM     21  N   UNL     1       1.339  11.610  19.492  0.00  0.00    +0.000 N 
ATOM     22  C   UNL     1       1.826  12.564  18.527  0.00  0.00    +0.000 C 
ATOM     23  C   UNL     1       2.605  13.548  19.373  0.00  0.00    +0.000 C 
ATOM     24  C   UNL     1       1.852  13.555  20.695  0.00  0.00    +0.000 C 
ATOM     25  C   UNL     1       1.275  12.163  20.767  0.00  0.00    +0.000 C 
ATOM     26  O   UNL     1       0.779  11.654  21.759  0.00  0.00    +0.000 OA
ENDBRANCH  20  21
ENDBRANCH   7  20
TORSDOF 4
ENDMDL
MODEL 2
REMARK VINA RESULT:      -8.5      1.479      2.180
REMARK  Name = 
REMARK  4 active torsions:
REMARK  status: ('A' for Active; 'I' for Inactive)
REMARK    1  A    between atoms: C_2  and  C_3
REMARK    2  A    between atoms: C_5  and  C_6
REMARK    3  A    between atoms: C_16  and  C_17
REMARK    4  A    between atoms: C_17  and  N_18
REMARK                            x       y       z     vdW  Elec       q    Type
REMARK                         _______ _______ _______ _____ _____    ______ ____
ROOT
ATOM      1  C   UNL     1       2.459   4.850  20.499  0.00  0.00    +0.000 A 
ATOM      2  C   UNL     1       3.385   4.653  19.488  0.00  0.00    +0.000 A 
ATOM      3  C   UNL     1       3.631   5.679  18.560  0.00  0.00    +0.000 A 
ATOM      4  C   UNL     1       2.876   6.890  18.699  0.00  0.00    +0.000 A 
ATOM      5  C   UNL     1       2.913   7.984  17.796  0.00  0.00    +0.000 A 
ATOM      6  C   UNL     1       2.210   9.164  18.027  0.00  0.00    +0.000 A 
ATOM      7  C   UNL     1       1.405   9.279  19.153  0.00  0.00    +0.000 A 
ATOM      8  C   UNL     1       1.309   8.184  20.022  0.00  0.00    +0.000 A 
ATOM      9  C   UNL     1       2.005   7.002  19.811  0.00  0.00    +0.000 A 
ATOM     10  N   UNL     1       1.795   6.009  20.682  0.00  0.00    +0.000 NA
ENDROOT
BRANCH   3  11
ATOM     11  C   UNL     1       4.662   5.458  17.500  0.00  0.00    +0.000 A 
ATOM     12  C   UNL     1       4.453   4.534  16.455  0.00  0.00    +0.000 A 
ATOM     13  C   UNL     1       5.407   4.339  15.448  0.00  0.00    +0.000 A 
ATOM     14  C   UNL     1       6.572   5.092  15.450  0.00  0.00    +0.000 A 
ATOM     15  F   UNL     1       7.464   4.938  14.464  0.00  0.00    +0.000 F 
ATOM     16  C   UNL     1       6.823   5.996  16.467  0.00  0.00    +0.000 A 
ATOM     17  C   UNL     1       5.897   6.141  17.504  0.00  0.00    +0.000 A 
ENDBRANCH   3  11
BRANCH   1  19
ATOM     18  N   UNL     1       1.877   2.910  22.128  0.00  0.00    +0.000 NA
ATOM     19  C   UNL     1       2.146   3.794  21.425  0.00  0.00    +0.000 C 
ENDBRANCH   1  19
BRANCH   7  20
ATOM     20  C   UNL     1       0.595  10.532  19.370  0.00  0.00    +0.000 C 
BRANCH  20  21
ATOM     21  N   UNL     1      -0.452  10.681  18.378  0.00  0.00    +0.000 N 
ATOM     22  C   UNL     1      -1.218   9.564  17.882  0.00  0.00    +0.000 C 
ATOM     23  C   UNL     1      -2.143  10.199  16.868  0.00  0.00    +0.000 C 
ATOM     24  C   UNL     1      -2.399  11.586  17.439  0.00  0.00    +0.000 C 
ATOM     25  C   UNL     1      -1.131  11.882  18.199  0.00  0.00    +0.000 C 
ATOM     26  O   UNL     1      -0.807  12.975  18.635  0.00  0.00    +0.000 OA
ENDBRANCH  20  21
ENDBRANCH   7  20
TORSDOF 4
ENDMDL
MODEL 3
REMARK VINA RESULT:      -8.5      3.982      7.416
REMARK  Name = 
REMARK  4 active torsions:
REMARK  status: ('A' for Active; 'I' for Inactive)
REMARK    1  A    between atoms: C_2  and  C_3
REMARK    2  A    between atoms: C_5  and  C_6
REMARK    3  A    between atoms: C_16  and  C_17
REMARK    4  A    between atoms: C_17  and  N_18
REMARK                            x       y       z     vdW  Elec       q    Type
REMARK                         _______ _______ _______ _____ _____    ______ ____
ROOT
ATOM      1  C   UNL     1       2.747   4.272  20.295  0.00  0.00    +0.000 A 
ATOM      2  C   UNL     1       2.159   5.522  20.191  0.00  0.00    +0.000 A 
ATOM      3  C   UNL     1       2.690   6.468  19.296  0.00  0.00    +0.000 A 
ATOM      4  C   UNL     1       3.850   6.087  18.544  0.00  0.00    +0.000 A 
ATOM      5  C   UNL     1       4.581   6.944  17.681  0.00  0.00    +0.000 A 
ATOM      6  C   UNL     1       5.657   6.492  16.921  0.00  0.00    +0.000 A 
ATOM      7  C   UNL     1       6.073   5.172  17.029  0.00  0.00    +0.000 A 
ATOM      8  C   UNL     1       5.401   4.329  17.924  0.00  0.00    +0.000 A 
ATOM      9  C   UNL     1       4.324   4.759  18.686  0.00  0.00    +0.000 A 
ATOM     10  N   UNL     1       3.793   3.879  19.543  0.00  0.00    +0.000 NA
ENDROOT
BRANCH   3  11
ATOM     11  C   UNL     1       2.017   7.797  19.172  0.00  0.00    +0.000 A 
ATOM     12  C   UNL     1       1.894   8.444  17.924  0.00  0.00    +0.000 A 
ATOM     13  C   UNL     1       1.247   9.678  17.799  0.00  0.00    +0.000 A 
ATOM     14  C   UNL     1       0.678  10.273  18.916  0.00  0.00    +0.000 A 
ATOM     15  F   UNL     1       0.020  11.432  18.789  0.00  0.00    +0.000 F 
ATOM     16  C   UNL     1       0.792   9.680  20.162  0.00  0.00    +0.000 A 
ATOM     17  C   UNL     1       1.495   8.479  20.291  0.00  0.00    +0.000 A 
ENDBRANCH   3  11
BRANCH   1  19
ATOM     18  N   UNL     1       1.914   2.534  22.039  0.00  0.00    +0.000 NA
ATOM     19  C   UNL     1       2.259   3.309  21.245  0.00  0.00    +0.000 C 
ENDBRANCH   1  19
BRANCH   7  20
ATOM     20  C   UNL     1       7.277   4.698  16.255  0.00  0.00    +0.000 C 
BRANCH  20  21
ATOM     21  N   UNL     1       6.942   4.353  14.887  0.00  0.00    +0.000 N 
ATOM     22  C   UNL     1       5.702   3.708  14.530  0.00  0.00    +0.000 C 
ATOM     23  C   UNL     1       5.822   3.529  13.032  0.00  0.00    +0.000 C 
ATOM     24  C   UNL     1       6.642   4.734  12.594  0.00  0.00    +0.000 C 
ATOM     25  C   UNL     1       7.499   5.021  13.801  0.00  0.00    +0.000 C 
ATOM     26  O   UNL     1       8.464   5.767  13.821  0.00  0.00    +0.000 OA
ENDBRANCH  20  21
ENDBRANCH   7  20
TORSDOF 4
ENDMDL
MODEL 4
REMARK VINA RESULT:      -8.2      1.491      1.951
REMARK  Name = 
REMARK  4 active torsions:
REMARK  status: ('A' for Active; 'I' for Inactive)
REMARK    1  A    between atoms: C_2  and  C_3
REMARK    2  A    between atoms: C_5  and  C_6
REMARK    3  A    between atoms: C_16  and  C_17
REMARK    4  A    between atoms: C_17  and  N_18
REMARK                            x       y       z     vdW  Elec       q    Type
REMARK                         _______ _______ _______ _____ _____    ______ ____
ROOT
ATOM      1  C   UNL     1       2.580   4.468  20.450  0.00  0.00    +0.000 A 
ATOM      2  C   UNL     1       3.503   4.322  19.427  0.00  0.00    +0.000 A 
ATOM      3  C   UNL     1       3.742   5.392  18.547  0.00  0.00    +0.000 A 
ATOM      4  C   UNL     1       2.983   6.592  18.745  0.00  0.00    +0.000 A 
ATOM      5  C   UNL     1       3.012   7.726  17.894  0.00  0.00    +0.000 A 
ATOM      6  C   UNL     1       2.305   8.892  18.182  0.00  0.00    +0.000 A 
ATOM      7  C   UNL     1       1.504   8.951  19.315  0.00  0.00    +0.000 A 
ATOM      8  C   UNL     1       1.415   7.816  20.132  0.00  0.00    +0.000 A 
ATOM      9  C   UNL     1       2.115   6.648  19.864  0.00  0.00    +0.000 A 
ATOM     10  N   UNL     1       1.913   5.614  20.689  0.00  0.00    +0.000 NA
ENDROOT
BRANCH   3  11
ATOM     11  C   UNL     1       4.770   5.225  17.475  0.00  0.00    +0.000 A 
ATOM     12  C   UNL     1       4.541   4.386  16.363  0.00  0.00    +0.000 A 
ATOM     13  C   UNL     1       5.492   4.243  15.346  0.00  0.00    +0.000 A 
ATOM     14  C   UNL     1       6.675   4.964  15.403  0.00  0.00    +0.000 A 
ATOM     15  F   UNL     1       7.565   4.862  14.409  0.00  0.00    +0.000 F 
ATOM     16  C   UNL     1       6.946   5.784  16.485  0.00  0.00    +0.000 A 
ATOM     17  C   UNL     1       6.021   5.875  17.530  0.00  0.00    +0.000 A 
ENDBRANCH   3  11
BRANCH   1  19
ATOM     18  N   UNL     1       1.990   2.514  22.058  0.00  0.00    +0.000 NA
ATOM     19  C   UNL     1       2.275   3.369  21.326  0.00  0.00    +0.000 C 
ENDBRANCH   1  19
BRANCH   7  20
ATOM     20  C   UNL     1       0.690  10.189  19.594  0.00  0.00    +0.000 C 
BRANCH  20  21
ATOM     21  N   UNL     1       0.098  10.163  20.917  0.00  0.00    +0.000 N 
ATOM     22  C   UNL     1       0.797   9.652  22.071  0.00  0.00    +0.000 C 
ATOM     23  C   UNL     1      -0.216   9.803  23.185  0.00  0.00    +0.000 C 
ATOM     24  C   UNL     1      -0.998  11.047  22.791  0.00  0.00    +0.000 C 
ATOM     25  C   UNL     1      -0.922  11.035  21.285  0.00  0.00    +0.000 C 
ATOM     26  O   UNL     1      -1.594  11.727  20.538  0.00  0.00    +0.000 OA
ENDBRANCH  20  21
ENDBRANCH   7  20
TORSDOF 4
ENDMDL
MODEL 5
REMARK VINA RESULT:      -8.2      4.225      7.695
REMARK  Name = 
REMARK  4 active torsions:
REMARK  status: ('A' for Active; 'I' for Inactive)
REMARK    1  A    between atoms: C_2  and  C_3
REMARK    2  A    between atoms: C_5  and  C_6
REMARK    3  A    between atoms: C_16  and  C_17
REMARK    4  A    between atoms: C_17  and  N_18
REMARK                            x       y       z     vdW  Elec       q    Type
REMARK                         _______ _______ _______ _____ _____    ______ ____
ROOT
ATOM      1  C   UNL     1       2.131   3.820  18.230  0.00  0.00    +0.000 A 
ATOM      2  C   UNL     1       1.724   5.091  18.601  0.00  0.00    +0.000 A 
ATOM      3  C   UNL     1       2.550   6.195  18.323  0.00  0.00    +0.000 A 
ATOM      4  C   UNL     1       3.805   5.934  17.681  0.00  0.00    +0.000 A 
ATOM      5  C   UNL     1       4.806   6.906  17.423  0.00  0.00    +0.000 A 
ATOM      6  C   UNL     1       5.975   6.603  16.728  0.00  0.00    +0.000 A 
ATOM      7  C   UNL     1       6.208   5.302  16.301  0.00  0.00    +0.000 A 
ATOM      8  C   UNL     1       5.257   4.319  16.603  0.00  0.00    +0.000 A 
ATOM      9  C   UNL     1       4.084   4.601  17.290  0.00  0.00    +0.000 A 
ATOM     10  N   UNL     1       3.275   3.572  17.564  0.00  0.00    +0.000 NA
ENDROOT
BRANCH   3  11
ATOM     11  C   UNL     1       2.074   7.561  18.698  0.00  0.00    +0.000 A 
ATOM     12  C   UNL     1       1.971   8.591  17.738  0.00  0.00    +0.000 A 
ATOM     13  C   UNL     1       1.506   9.866  18.080  0.00  0.00    +0.000 A 
ATOM     14  C   UNL     1       1.101  10.125  19.381  0.00  0.00    +0.000 A 
ATOM     15  F   UNL     1       0.615  11.331  19.698  0.00  0.00    +0.000 F 
ATOM     16  C   UNL     1       1.203   9.148  20.356  0.00  0.00    +0.000 A 
ATOM     17  C   UNL     1       1.728   7.895  20.024  0.00  0.00    +0.000 A 
ENDBRANCH   3  11
BRANCH   1  19
ATOM     18  N   UNL     1       0.690   1.755  18.874  0.00  0.00    +0.000 NA
ATOM     19  C   UNL     1       1.332   2.669  18.557  0.00  0.00    +0.000 C 
ENDBRANCH   1  19
BRANCH   7  20
ATOM     20  C   UNL     1       7.500   4.961  15.604  0.00  0.00    +0.000 C 
BRANCH  20  21
ATOM     21  N   UNL     1       7.285   4.548  14.231  0.00  0.00    +0.000 N 
ATOM     22  C   UNL     1       6.091   3.861  13.804  0.00  0.00    +0.000 C 
ATOM     23  C   UNL     1       6.337   3.618  12.331  0.00  0.00    +0.000 C 
ATOM     24  C   UNL     1       7.169   4.820  11.906  0.00  0.00    +0.000 C 
ATOM     25  C   UNL     1       7.918   5.179  13.165  0.00  0.00    +0.000 C 
ATOM     26  O   UNL     1       8.865   5.946  13.229  0.00  0.00    +0.000 OA
ENDBRANCH  20  21
ENDBRANCH   7  20
TORSDOF 4
ENDMDL
MODEL 6
REMARK VINA RESULT:      -8.1      1.371      1.825
REMARK  Name = 
REMARK  4 active torsions:
REMARK  status: ('A' for Active; 'I' for Inactive)
REMARK    1  A    between atoms: C_2  and  C_3
REMARK    2  A    between atoms: C_5  and  C_6
REMARK    3  A    between atoms: C_16  and  C_17
REMARK    4  A    between atoms: C_17  and  N_18
REMARK                            x       y       z     vdW  Elec       q    Type
REMARK                         _______ _______ _______ _____ _____    ______ ____
ROOT
ATOM      1  C   UNL     1       2.347   4.462  20.574  0.00  0.00    +0.000 A 
ATOM      2  C   UNL     1       3.113   4.359  19.425  0.00  0.00    +0.000 A 
ATOM      3  C   UNL     1       3.273   5.480  18.592  0.00  0.00    +0.000 A 
ATOM      4  C   UNL     1       2.598   6.687  18.974  0.00  0.00    +0.000 A 
ATOM      5  C   UNL     1       2.557   7.878  18.203  0.00  0.00    +0.000 A 
ATOM      6  C   UNL     1       1.945   9.042  18.664  0.00  0.00    +0.000 A 
ATOM      7  C   UNL     1       1.312   9.046  19.900  0.00  0.00    +0.000 A 
ATOM      8  C   UNL     1       1.290   7.860  20.645  0.00  0.00    +0.000 A 
ATOM      9  C   UNL     1       1.897   6.692  20.205  0.00  0.00    +0.000 A 
ATOM     10  N   UNL     1       1.767   5.609  20.980  0.00  0.00    +0.000 NA
ENDROOT
BRANCH   3  11
ATOM     11  C   UNL     1       4.134   5.357  17.377  0.00  0.00    +0.000 A 
ATOM     12  C   UNL     1       4.397   4.102  16.787  0.00  0.00    +0.000 A 
ATOM     13  C   UNL     1       5.186   3.984  15.637  0.00  0.00    +0.000 A 
ATOM     14  C   UNL     1       5.698   5.124  15.034  0.00  0.00    +0.000 A 
ATOM     15  F   UNL     1       6.416   5.016  13.910  0.00  0.00    +0.000 F 
ATOM     16  C   UNL     1       5.479   6.372  15.591  0.00  0.00    +0.000 A 
ATOM     17  C   UNL     1       4.743   6.479  16.775  0.00  0.00    +0.000 A 
ENDBRANCH   3  11
BRANCH   1  19
ATOM     18  N   UNL     1       1.975   2.407  22.122  0.00  0.00    +0.000 NA
ATOM     19  C   UNL     1       2.120   3.314  21.410  0.00  0.00    +0.000 C 
ENDBRANCH   1  19
BRANCH   7  20
ATOM     20  C   UNL     1       0.596  10.286  20.371  0.00  0.00    +0.000 C 
BRANCH  20  21
ATOM     21  N   UNL     1      -0.088  10.964  19.287  0.00  0.00    +0.000 N 
ATOM     22  C   UNL     1      -1.411  10.593  18.850  0.00  0.00    +0.000 C 
ATOM     23  C   UNL     1      -1.678  11.543  17.703  0.00  0.00    +0.000 C 
ATOM     24  C   UNL     1      -0.926  12.805  18.103  0.00  0.00    +0.000 C 
ATOM     25  C   UNL     1       0.218  12.273  18.928  0.00  0.00    +0.000 C 
ATOM     26  O   UNL     1       1.198  12.913  19.272  0.00  0.00    +0.000 OA
ENDBRANCH  20  21
ENDBRANCH   7  20
TORSDOF 4
ENDMDL
MODEL 7
REMARK VINA RESULT:      -7.9      4.235      7.973
REMARK  Name = 
REMARK  4 active torsions:
REMARK  status: ('A' for Active; 'I' for Inactive)
REMARK    1  A    between atoms: C_2  and  C_3
REMARK    2  A    between atoms: C_5  and  C_6
REMARK    3  A    between atoms: C_16  and  C_17
REMARK    4  A    between atoms: C_17  and  N_18
REMARK                            x       y       z     vdW  Elec       q    Type
REMARK                         _______ _______ _______ _____ _____    ______ ____
ROOT
ATOM      1  C   UNL     1       2.641   8.014  17.997  0.00  0.00    +0.000 A 
ATOM      2  C   UNL     1       2.150   7.008  18.812  0.00  0.00    +0.000 A 
ATOM      3  C   UNL     1       2.811   5.768  18.862  0.00  0.00    +0.000 A 
ATOM      4  C   UNL     1       3.967   5.602  18.028  0.00  0.00    +0.000 A 
ATOM      5  C   UNL     1       4.691   4.393  17.868  0.00  0.00    +0.000 A 
ATOM      6  C   UNL     1       5.850   4.316  17.099  0.00  0.00    +0.000 A 
ATOM      7  C   UNL     1       6.306   5.440  16.423  0.00  0.00    +0.000 A 
ATOM      8  C   UNL     1       5.567   6.626  16.522  0.00  0.00    +0.000 A 
ATOM      9  C   UNL     1       4.413   6.724  17.286  0.00  0.00    +0.000 A 
ATOM     10  N   UNL     1       3.765   7.894  17.264  0.00  0.00    +0.000 NA
ENDROOT
BRANCH   3  11
ATOM     11  C   UNL     1       2.287   4.709  19.777  0.00  0.00    +0.000 A 
ATOM     12  C   UNL     1       2.816   4.532  21.074  0.00  0.00    +0.000 A 
ATOM     13  C   UNL     1       2.314   3.556  21.942  0.00  0.00    +0.000 A 
ATOM     14  C   UNL     1       1.250   2.761  21.542  0.00  0.00    +0.000 A 
ATOM     15  F   UNL     1       0.740   1.858  22.388  0.00  0.00    +0.000 F 
ATOM     16  C   UNL     1       0.714   2.890  20.272  0.00  0.00    +0.000 A 
ATOM     17  C   UNL     1       1.261   3.824  19.386  0.00  0.00    +0.000 A 
ENDBRANCH   3  11
BRANCH   1  19
ATOM     18  N   UNL     1       1.433  10.309  17.819  0.00  0.00    +0.000 NA
ATOM     19  C   UNL     1       1.949   9.270  17.884  0.00  0.00    +0.000 C 
ENDBRANCH   1  19
BRANCH   7  20
ATOM     20  C   UNL     1       7.525   5.342  15.541  0.00  0.00    +0.000 C 
BRANCH  20  21
ATOM     21  N   UNL     1       7.226   4.709  14.271  0.00  0.00    +0.000 N 
ATOM     22  C   UNL     1       5.988   4.012  14.022  0.00  0.00    +0.000 C 
ATOM     23  C   UNL     1       6.151   3.510  12.604  0.00  0.00    +0.000 C 
ATOM     24  C   UNL     1       7.003   4.583  11.941  0.00  0.00    +0.000 C 
ATOM     25  C   UNL     1       7.827   5.119  13.085  0.00  0.00    +0.000 C 
ATOM     26  O   UNL     1       8.802   5.843  12.974  0.00  0.00    +0.000 OA
ENDBRANCH  20  21
ENDBRANCH   7  20
TORSDOF 4
ENDMDL
MODEL 8
REMARK VINA RESULT:      -7.8      1.107      1.498
REMARK  Name = 
REMARK  4 active torsions:
REMARK  status: ('A' for Active; 'I' for Inactive)
REMARK    1  A    between atoms: C_2  and  C_3
REMARK    2  A    between atoms: C_5  and  C_6
REMARK    3  A    between atoms: C_16  and  C_17
REMARK    4  A    between atoms: C_17  and  N_18
REMARK                            x       y       z     vdW  Elec       q    Type
REMARK                         _______ _______ _______ _____ _____    ______ ____
ROOT
ATOM      1  C   UNL     1       2.205   4.536  20.725  0.00  0.00    +0.000 A 
ATOM      2  C   UNL     1       2.967   4.481  19.568  0.00  0.00    +0.000 A 
ATOM      3  C   UNL     1       3.097   5.628  18.765  0.00  0.00    +0.000 A 
ATOM      4  C   UNL     1       2.398   6.809  19.183  0.00  0.00    +0.000 A 
ATOM      5  C   UNL     1       2.326   8.018  18.446  0.00  0.00    +0.000 A 
ATOM      6  C   UNL     1       1.692   9.156  18.941  0.00  0.00    +0.000 A 
ATOM      7  C   UNL     1       1.065   9.113  20.179  0.00  0.00    +0.000 A 
ATOM      8  C   UNL     1       1.074   7.906  20.892  0.00  0.00    +0.000 A 
ATOM      9  C   UNL     1       1.704   6.765  20.418  0.00  0.00    +0.000 A 
ATOM     10  N   UNL     1       1.603   5.658  21.164  0.00  0.00    +0.000 NA
ENDROOT
BRANCH   3  11
ATOM     11  C   UNL     1       3.954   5.557  17.543  0.00  0.00    +0.000 A 
ATOM     12  C   UNL     1       4.516   6.719  16.972  0.00  0.00    +0.000 A 
ATOM     13  C   UNL     1       5.336   6.655  15.840  0.00  0.00    +0.000 A 
ATOM     14  C   UNL     1       5.639   5.424  15.278  0.00  0.00    +0.000 A 
ATOM     15  F   UNL     1       6.459   5.358  14.222  0.00  0.00    +0.000 F 
ATOM     16  C   UNL     1       5.093   4.262  15.797  0.00  0.00    +0.000 A 
ATOM     17  C   UNL     1       4.224   4.337  16.889  0.00  0.00    +0.000 A 
ENDBRANCH   3  11
BRANCH   1  19
ATOM     18  N   UNL     1       1.906   2.405  22.181  0.00  0.00    +0.000 NA
ATOM     19  C   UNL     1       2.009   3.361  21.531  0.00  0.00    +0.000 C 
ENDBRANCH   1  19
BRANCH   7  20
ATOM     20  C   UNL     1       0.325  10.323  20.688  0.00  0.00    +0.000 C 
BRANCH  20  21
ATOM     21  N   UNL     1       0.541  11.485  19.847  0.00  0.00    +0.000 N 
ATOM     22  C   UNL     1      -0.392  11.888  18.824  0.00  0.00    +0.000 C 
ATOM     23  C   UNL     1       0.268  13.105  18.212  0.00  0.00    +0.000 C 
ATOM     24  C   UNL     1       1.012  13.733  19.381  0.00  0.00    +0.000 C 
ATOM     25  C   UNL     1       1.342  12.548  20.253  0.00  0.00    +0.000 C 
ATOM     26  O   UNL     1       2.125  12.555  21.189  0.00  0.00    +0.000 OA
ENDBRANCH  20  21
ENDBRANCH   7  20
TORSDOF 4
ENDMDL
MODEL 9
REMARK VINA RESULT:      -7.6      4.062      7.434
REMARK  Name = 
REMARK  4 active torsions:
REMARK  status: ('A' for Active; 'I' for Inactive)
REMARK    1  A    between atoms: C_2  and  C_3
REMARK    2  A    between atoms: C_5  and  C_6
REMARK    3  A    between atoms: C_16  and  C_17
REMARK    4  A    between atoms: C_17  and  N_18
REMARK                            x       y       z     vdW  Elec       q    Type
REMARK                         _______ _______ _______ _____ _____    ______ ____
ROOT
ATOM      1  C   UNL     1       2.338   3.958  20.325  0.00  0.00    +0.000 A 
ATOM      2  C   UNL     1       2.011   5.302  20.242  0.00  0.00    +0.000 A 
ATOM      3  C   UNL     1       2.526   6.080  19.190  0.00  0.00    +0.000 A 
ATOM      4  C   UNL     1       3.400   5.431  18.256  0.00  0.00    +0.000 A 
ATOM      5  C   UNL     1       4.094   6.080  17.203  0.00  0.00    +0.000 A 
ATOM      6  C   UNL     1       4.873   5.380  16.283  0.00  0.00    +0.000 A 
ATOM      7  C   UNL     1       5.022   4.006  16.409  0.00  0.00    +0.000 A 
ATOM      8  C   UNL     1       4.393   3.359  17.481  0.00  0.00    +0.000 A 
ATOM      9  C   UNL     1       3.610   4.038  18.405  0.00  0.00    +0.000 A 
ATOM     10  N   UNL     1       3.101   3.323  19.414  0.00  0.00    +0.000 NA
ENDROOT
BRANCH   3  11
ATOM     11  C   UNL     1       2.129   7.518  19.098  0.00  0.00    +0.000 A 
ATOM     12  C   UNL     1       2.294   8.250  17.902  0.00  0.00    +0.000 A 
ATOM     13  C   UNL     1       1.905   9.591  17.805  0.00  0.00    +0.000 A 
ATOM     14  C   UNL     1       1.310  10.215  18.891  0.00  0.00    +0.000 A 
ATOM     15  F   UNL     1       0.897  11.483  18.785  0.00  0.00    +0.000 F 
ATOM     16  C   UNL     1       1.146   9.538  20.088  0.00  0.00    +0.000 A 
ATOM     17  C   UNL     1       1.595   8.218  20.199  0.00  0.00    +0.000 A 
ENDBRANCH   3  11
BRANCH   1  19
ATOM     18  N   UNL     1       1.448   2.537  22.310  0.00  0.00    +0.000 NA
ATOM     19  C   UNL     1       1.872   3.156  21.424  0.00  0.00    +0.000 C 
ENDBRANCH   1  19
BRANCH   7  20
ATOM     20  C   UNL     1       5.915   3.257  15.452  0.00  0.00    +0.000 C 
BRANCH  20  21
ATOM     21  N   UNL     1       6.457   4.124  14.424  0.00  0.00    +0.000 N 
ATOM     22  C   UNL     1       7.635   4.931  14.629  0.00  0.00    +0.000 C 
ATOM     23  C   UNL     1       7.785   5.667  13.316  0.00  0.00    +0.000 C 
ATOM     24  C   UNL     1       7.252   4.678  12.290  0.00  0.00    +0.000 C 
ATOM     25  C   UNL     1       6.227   3.895  13.071  0.00  0.00    +0.000 C 
ATOM     26  O   UNL     1       5.396   3.142  12.590  0.00  0.00    +0.000 OA
ENDBRANCH  20  21
ENDBRANCH   7  20
TORSDOF 4
ENDMDL
