MODEL 1
REMARK VINA RESULT:      -6.4      0.000      0.000
REMARK  Name = 
REMARK  4 active torsions:
REMARK  status: ('A' for Active; 'I' for Inactive)
REMARK    1  A    between atoms: C_1  and  C_2
REMARK    2  A    between atoms: N_6  and  C_7
REMARK    3  A    between atoms: C_7  and  C_8
REMARK    4  A    between atoms: C_8  and  C_9
REMARK                            x       y       z     vdW  Elec       q    Type
REMARK                         _______ _______ _______ _____ _____    ______ ____
ROOT
ATOM      1  C   UNL     1       4.566   3.199  19.416  0.00  0.00    +0.000 C 
ENDROOT
BRANCH   1   7
ATOM      2  C   UNL     1       2.265   2.287  17.926  0.00  0.00    +0.000 C 
ATOM      3  C   UNL     1       2.226   2.352  19.459  0.00  0.00    +0.000 C 
ATOM      4  C   UNL     1       0.935   3.011  19.938  0.00  0.00    +0.000 C 
ATOM      5  C   UNL     1       1.300   4.479  19.991  0.00  0.00    +0.000 C 
ATOM      6  C   UNL     1       2.739   4.465  20.471  0.00  0.00    +0.000 C 
ATOM      7  N   UNL     1       3.283   3.149  20.118  0.00  0.00    +0.000 NA
ENDBRANCH   1   7
BRANCH   1   8
ATOM      8  C   UNL     1       4.962   4.617  18.963  0.00  0.00    +0.000 C 
BRANCH   8   9
ATOM      9  C   UNL     1       5.641   4.565  17.620  0.00  0.00    +0.000 A 
ATOM     10  C   UNL     1       4.907   4.542  16.434  0.00  0.00    +0.000 A 
ATOM     11  C   UNL     1       5.577   4.569  15.212  0.00  0.00    +0.000 A 
ATOM     12  C   UNL     1       6.959   4.623  15.222  0.00  0.00    +0.000 A 
ATOM     13  N   UNL     1       7.703   4.640  16.348  0.00  0.00    +0.000 NA
ATOM     14  C   UNL     1       7.030   4.610  17.518  0.00  0.00    +0.000 A 
ENDBRANCH   8   9
ENDBRANCH   1   8
TORSDOF 3
ENDMDL
MODEL 2
REMARK VINA RESULT:      -6.4      0.807      1.494
REMARK  Name = 
REMARK  4 active torsions:
REMARK  status: ('A' for Active; 'I' for Inactive)
REMARK    1  A    between atoms: C_1  and  C_2
REMARK    2  A    between atoms: N_6  and  C_7
REMARK    3  A    between atoms: C_7  and  C_8
REMARK    4  A    between atoms: C_8  and  C_9
REMARK                            x       y       z     vdW  Elec       q    Type
REMARK                         _______ _______ _______ _____ _____    ______ ____
ROOT
ATOM      1  C   UNL     1       4.265   3.295  19.123  0.00  0.00    +0.000 C 
ENDROOT
BRANCH   1   7
ATOM      2  C   UNL     1       2.699   2.716  21.481  0.00  0.00    +0.000 C 
ATOM      3  C   UNL     1       2.213   3.749  20.456  0.00  0.00    +0.000 C 
ATOM      4  C   UNL     1       0.739   3.528  20.125  0.00  0.00    +0.000 C 
ATOM      5  C   UNL     1       0.791   2.558  18.965  0.00  0.00    +0.000 C 
ATOM      6  C   UNL     1       2.009   3.013  18.183  0.00  0.00    +0.000 C 
ATOM      7  N   UNL     1       2.868   3.731  19.132  0.00  0.00    +0.000 NA
ENDBRANCH   1   7
BRANCH   1   8
ATOM      8  C   UNL     1       5.267   4.450  18.941  0.00  0.00    +0.000 C 
BRANCH   8   9
ATOM      9  C   UNL     1       5.809   4.453  17.536  0.00  0.00    +0.000 A 
ATOM     10  C   UNL     1       4.962   4.396  16.429  0.00  0.00    +0.000 A 
ATOM     11  C   UNL     1       5.503   4.477  15.147  0.00  0.00    +0.000 A 
ATOM     12  C   UNL     1       6.873   4.615  15.019  0.00  0.00    +0.000 A 
ATOM     13  N   UNL     1       7.724   4.666  16.065  0.00  0.00    +0.000 NA
ATOM     14  C   UNL     1       7.176   4.583  17.296  0.00  0.00    +0.000 A 
ENDBRANCH   8   9
ENDBRANCH   1   8
TORSDOF 3
ENDMDL
MODEL 3
REMARK VINA RESULT:      -6.4      2.081      2.871
REMARK  Name = 
REMARK  4 active torsions:
REMARK  status: ('A' for Active; 'I' for Inactive)
REMARK    1  A    between atoms: C_1  and  C_2
REMARK    2  A    between atoms: N_6  and  C_7
REMARK    3  A    between atoms: C_7  and  C_8
REMARK    4  A    between atoms: C_8  and  C_9
REMARK                            x       y       z     vdW  Elec       q    Type
REMARK                         _______ _______ _______ _____ _____    ______ ____
ROOT
ATOM      1  C   UNL     1       2.847   5.685  18.770  0.00  0.00    +0.000 C 
ENDROOT
BRANCH   1   7
ATOM      2  C   UNL     1       2.143   3.849  20.886  0.00  0.00    +0.000 C 
ATOM      3  C   UNL     1       1.268   3.965  19.631  0.00  0.00    +0.000 C 
ATOM      4  C   UNL     1       0.909   2.582  19.094  0.00  0.00    +0.000 C 
ATOM      5  C   UNL     1       2.047   2.278  18.143  0.00  0.00    +0.000 C 
ATOM      6  C   UNL     1       2.349   3.627  17.517  0.00  0.00    +0.000 C 
ATOM      7  N   UNL     1       1.869   4.642  18.462  0.00  0.00    +0.000 NA
ENDBRANCH   1   7
BRANCH   1   8
ATOM      8  C   UNL     1       3.786   6.011  17.594  0.00  0.00    +0.000 C 
BRANCH   8   9
ATOM      9  C   UNL     1       5.222   5.975  18.047  0.00  0.00    +0.000 A 
ATOM     10  C   UNL     1       6.210   6.713  17.394  0.00  0.00    +0.000 A 
ATOM     11  C   UNL     1       7.511   6.709  17.893  0.00  0.00    +0.000 A 
ATOM     12  C   UNL     1       7.776   5.968  19.030  0.00  0.00    +0.000 A 
ATOM     13  N   UNL     1       6.850   5.237  19.684  0.00  0.00    +0.000 NA
ATOM     14  C   UNL     1       5.598   5.255  19.179  0.00  0.00    +0.000 A 
ENDBRANCH   8   9
ENDBRANCH   1   8
TORSDOF 3
ENDMDL
MODEL 4
REMARK VINA RESULT:      -6.3      1.179      1.225
REMARK  Name = 
REMARK  4 active torsions:
REMARK  status: ('A' for Active; 'I' for Inactive)
REMARK    1  A    between atoms: C_1  and  C_2
REMARK    2  A    between atoms: N_6  and  C_7
REMARK    3  A    between atoms: C_7  and  C_8
REMARK    4  A    between atoms: C_8  and  C_9
REMARK                            x       y       z     vdW  Elec       q    Type
REMARK                         _______ _______ _______ _____ _____    ______ ____
ROOT
ATOM      1  C   UNL     1       4.811   4.086  19.027  0.00  0.00    +0.000 C 
ENDROOT
BRANCH   1   7
ATOM      2  C   UNL     1       3.527   1.687  18.055  0.00  0.00    +0.000 C 
ATOM      3  C   UNL     1       2.857   2.549  19.134  0.00  0.00    +0.000 C 
ATOM      4  C   UNL     1       1.385   2.781  18.801  0.00  0.00    +0.000 C 
ATOM      5  C   UNL     1       1.419   4.042  17.965  0.00  0.00    +0.000 C 
ATOM      6  C   UNL     1       2.514   4.865  18.618  0.00  0.00    +0.000 C 
ATOM      7  N   UNL     1       3.387   3.916  19.317  0.00  0.00    +0.000 NA
ENDBRANCH   1   7
BRANCH   1   8
ATOM      8  C   UNL     1       5.135   5.404  18.300  0.00  0.00    +0.000 C 
BRANCH   8   9
ATOM      9  C   UNL     1       5.749   5.120  16.954  0.00  0.00    +0.000 A 
ATOM     10  C   UNL     1       5.080   4.359  15.995  0.00  0.00    +0.000 A 
ATOM     11  C   UNL     1       5.653   4.184  14.737  0.00  0.00    +0.000 A 
ATOM     12  C   UNL     1       6.874   4.782  14.482  0.00  0.00    +0.000 A 
ATOM     13  N   UNL     1       7.553   5.518  15.385  0.00  0.00    +0.000 NA
ATOM     14  C   UNL     1       6.979   5.670  16.598  0.00  0.00    +0.000 A 
ENDBRANCH   8   9
ENDBRANCH   1   8
TORSDOF 3
ENDMDL
MODEL 5
REMARK VINA RESULT:      -6.3      0.952      1.153
REMARK  Name = 
REMARK  4 active torsions:
REMARK  status: ('A' for Active; 'I' for Inactive)
REMARK    1  A    between atoms: C_1  and  C_2
REMARK    2  A    between atoms: N_6  and  C_7
REMARK    3  A    between atoms: C_7  and  C_8
REMARK    4  A    between atoms: C_8  and  C_9
REMARK                            x       y       z     vdW  Elec       q    Type
REMARK                         _______ _______ _______ _____ _____    ______ ____
ROOT
ATOM      1  C   UNL     1       3.939   5.101  19.196  0.00  0.00    +0.000 C 
ENDROOT
BRANCH   1   7
ATOM      2  C   UNL     1       1.549   4.450  17.708  0.00  0.00    +0.000 C 
ATOM      3  C   UNL     1       2.366   3.347  18.393  0.00  0.00    +0.000 C 
ATOM      4  C   UNL     1       1.451   2.398  19.164  0.00  0.00    +0.000 C 
ATOM      5  C   UNL     1       1.370   3.039  20.532  0.00  0.00    +0.000 C 
ATOM      6  C   UNL     1       2.767   3.591  20.745  0.00  0.00    +0.000 C 
ATOM      7  N   UNL     1       3.347   3.780  19.410  0.00  0.00    +0.000 NA
ENDBRANCH   1   7
BRANCH   1   8
ATOM      8  C   UNL     1       5.478   5.084  19.156  0.00  0.00    +0.000 C 
BRANCH   8   9
ATOM      9  C   UNL     1       5.962   4.954  17.735  0.00  0.00    +0.000 A 
ATOM     10  C   UNL     1       5.114   5.191  16.654  0.00  0.00    +0.000 A 
ATOM     11  C   UNL     1       5.623   5.132  15.357  0.00  0.00    +0.000 A 
ATOM     12  C   UNL     1       6.965   4.841  15.192  0.00  0.00    +0.000 A 
ATOM     13  N   UNL     1       7.813   4.599  16.212  0.00  0.00    +0.000 NA
ATOM     14  C   UNL     1       7.295   4.659  17.458  0.00  0.00    +0.000 A 
ENDBRANCH   8   9
ENDBRANCH   1   8
TORSDOF 3
ENDMDL
MODEL 6
REMARK VINA RESULT:      -6.2      1.061      1.078
REMARK  Name = 
REMARK  4 active torsions:
REMARK  status: ('A' for Active; 'I' for Inactive)
REMARK    1  A    between atoms: C_1  and  C_2
REMARK    2  A    between atoms: N_6  and  C_7
REMARK    3  A    between atoms: C_7  and  C_8
REMARK    4  A    between atoms: C_8  and  C_9
REMARK                            x       y       z     vdW  Elec       q    Type
REMARK                         _______ _______ _______ _____ _____    ______ ____
ROOT
ATOM      1  C   UNL     1       3.725   3.764  18.218  0.00  0.00    +0.000 C 
ENDROOT
BRANCH   1   7
ATOM      2  C   UNL     1       1.228   2.368  18.624  0.00  0.00    +0.000 C 
ATOM      3  C   UNL     1       2.138   2.700  19.814  0.00  0.00    +0.000 C 
ATOM      4  C   UNL     1       1.328   3.297  20.962  0.00  0.00    +0.000 C 
ATOM      5  C   UNL     1       1.354   4.781  20.664  0.00  0.00    +0.000 C 
ATOM      6  C   UNL     1       2.748   5.001  20.107  0.00  0.00    +0.000 C 
ATOM      7  N   UNL     1       3.196   3.706  19.581  0.00  0.00    +0.000 NA
ENDBRANCH   1   7
BRANCH   1   8
ATOM      8  C   UNL     1       4.330   5.132  17.853  0.00  0.00    +0.000 C 
BRANCH   8   9
ATOM      9  C   UNL     1       5.327   4.979  16.734  0.00  0.00    +0.000 A 
ATOM     10  C   UNL     1       5.106   4.094  15.679  0.00  0.00    +0.000 A 
ATOM     11  C   UNL     1       6.019   4.039  14.627  0.00  0.00    +0.000 A 
ATOM     12  C   UNL     1       7.118   4.877  14.667  0.00  0.00    +0.000 A 
ATOM     13  N   UNL     1       7.369   5.741  15.673  0.00  0.00    +0.000 NA
ATOM     14  C   UNL     1       6.471   5.772  16.682  0.00  0.00    +0.000 A 
ENDBRANCH   8   9
ENDBRANCH   1   8
TORSDOF 3
ENDMDL
MODEL 7
REMARK VINA RESULT:      -6.2      1.398      1.546
REMARK  Name = 
REMARK  4 active torsions:
REMARK  status: ('A' for Active; 'I' for Inactive)
REMARK    1  A    between atoms: C_1  and  C_2
REMARK    2  A    between atoms: N_6  and  C_7
REMARK    3  A    between atoms: C_7  and  C_8
REMARK    4  A    between atoms: C_8  and  C_9
REMARK                            x       y       z     vdW  Elec       q    Type
REMARK                         _______ _______ _______ _____ _____    ______ ____
ROOT
ATOM      1  C   UNL     1       2.857   5.002  18.078  0.00  0.00    +0.000 C 
ENDROOT
BRANCH   1   7
ATOM      2  C   UNL     1       2.913   2.153  18.552  0.00  0.00    +0.000 C 
ATOM      3  C   UNL     1       3.302   3.136  19.664  0.00  0.00    +0.000 C 
ATOM      4  C   UNL     1       2.623   2.760  20.978  0.00  0.00    +0.000 C 
ATOM      5  C   UNL     1       1.314   3.516  20.915  0.00  0.00    +0.000 C 
ATOM      6  C   UNL     1       1.695   4.820  20.239  0.00  0.00    +0.000 C 
ATOM      7  N   UNL     1       2.914   4.549  19.468  0.00  0.00    +0.000 NA
ENDBRANCH   1   7
BRANCH   1   8
ATOM      8  C   UNL     1       3.875   6.111  17.753  0.00  0.00    +0.000 C 
BRANCH   8   9
ATOM      9  C   UNL     1       5.008   5.555  16.932  0.00  0.00    +0.000 A 
ATOM     10  C   UNL     1       4.885   4.347  16.246  0.00  0.00    +0.000 A 
ATOM     11  C   UNL     1       5.931   3.907  15.438  0.00  0.00    +0.000 A 
ATOM     12  C   UNL     1       7.063   4.695  15.343  0.00  0.00    +0.000 A 
ATOM     13  N   UNL     1       7.222   5.865  15.996  0.00  0.00    +0.000 NA
ATOM     14  C   UNL     1       6.195   6.268  16.774  0.00  0.00    +0.000 A 
ENDBRANCH   8   9
ENDBRANCH   1   8
TORSDOF 3
ENDMDL
MODEL 8
REMARK VINA RESULT:      -6.0      1.322      2.476
REMARK  Name = 
REMARK  4 active torsions:
REMARK  status: ('A' for Active; 'I' for Inactive)
REMARK    1  A    between atoms: C_1  and  C_2
REMARK    2  A    between atoms: N_6  and  C_7
REMARK    3  A    between atoms: C_7  and  C_8
REMARK    4  A    between atoms: C_8  and  C_9
REMARK                            x       y       z     vdW  Elec       q    Type
REMARK                         _______ _______ _______ _____ _____    ______ ____
ROOT
ATOM      1  C   UNL     1       2.700   4.523  18.068  0.00  0.00    +0.000 C 
ENDROOT
BRANCH   1   7
ATOM      2  C   UNL     1       1.776   5.564  20.600  0.00  0.00    +0.000 C 
ATOM      3  C   UNL     1       1.256   4.219  20.073  0.00  0.00    +0.000 C 
ATOM      4  C   UNL     1       1.287   3.161  21.173  0.00  0.00    +0.000 C 
ATOM      5  C   UNL     1       2.669   2.561  21.033  0.00  0.00    +0.000 C 
ATOM      6  C   UNL     1       2.897   2.556  19.533  0.00  0.00    +0.000 C 
ATOM      7  N   UNL     1       2.023   3.595  18.975  0.00  0.00    +0.000 NA
ENDBRANCH   1   7
BRANCH   1   8
ATOM      8  C   UNL     1       3.790   3.856  17.210  0.00  0.00    +0.000 C 
BRANCH   8   9
ATOM      9  C   UNL     1       5.145   4.414  17.562  0.00  0.00    +0.000 A 
ATOM     10  C   UNL     1       5.371   5.064  18.775  0.00  0.00    +0.000 A 
ATOM     11  C   UNL     1       6.657   5.498  19.091  0.00  0.00    +0.000 A 
ATOM     12  C   UNL     1       7.671   5.262  18.182  0.00  0.00    +0.000 A 
ATOM     13  N   UNL     1       7.490   4.644  16.997  0.00  0.00    +0.000 NA
ATOM     14  C   UNL     1       6.235   4.235  16.713  0.00  0.00    +0.000 A 
ENDBRANCH   8   9
ENDBRANCH   1   8
TORSDOF 3
ENDMDL
MODEL 9
REMARK VINA RESULT:      -6.0      1.861      2.310
REMARK  Name = 
REMARK  4 active torsions:
REMARK  status: ('A' for Active; 'I' for Inactive)
REMARK    1  A    between atoms: C_1  and  C_2
REMARK    2  A    between atoms: N_6  and  C_7
REMARK    3  A    between atoms: C_7  and  C_8
REMARK    4  A    between atoms: C_8  and  C_9
REMARK                            x       y       z     vdW  Elec       q    Type
REMARK                         _______ _______ _______ _____ _____    ______ ____
ROOT
ATOM      1  C   UNL     1       4.190   3.473  18.506  0.00  0.00    +0.000 C 
ENDROOT
BRANCH   1   7
ATOM      2  C   UNL     1       1.583   4.360  17.631  0.00  0.00    +0.000 C 
ATOM      3  C   UNL     1       1.770   2.960  18.231  0.00  0.00    +0.000 C 
ATOM      4  C   UNL     1       0.687   2.669  19.268  0.00  0.00    +0.000 C 
ATOM      5  C   UNL     1       1.297   3.185  20.553  0.00  0.00    +0.000 C 
ATOM      6  C   UNL     1       2.766   2.834  20.409  0.00  0.00    +0.000 C 
ATOM      7  N   UNL     1       3.027   2.715  18.969  0.00  0.00    +0.000 NA
ENDBRANCH   1   7
BRANCH   1   8
ATOM      8  C   UNL     1       4.567   4.644  19.432  0.00  0.00    +0.000 C 
BRANCH   8   9
ATOM      9  C   UNL     1       5.597   5.521  18.771  0.00  0.00    +0.000 A 
ATOM     10  C   UNL     1       6.902   5.604  19.257  0.00  0.00    +0.000 A 
ATOM     11  C   UNL     1       7.842   6.370  18.571  0.00  0.00    +0.000 A 
ATOM     12  C   UNL     1       7.443   7.022  17.419  0.00  0.00    +0.000 A 
ATOM     13  N   UNL     1       6.189   6.972  16.922  0.00  0.00    +0.000 NA
ATOM     14  C   UNL     1       5.296   6.226  17.607  0.00  0.00    +0.000 A 
ENDBRANCH   8   9
ENDBRANCH   1   8
TORSDOF 3
ENDMDL
