MODEL 1
REMARK VINA RESULT:      -6.9      0.000      0.000
REMARK  Name = 
REMARK  3 active torsions:
REMARK  status: ('A' for Active; 'I' for Inactive)
REMARK    1  A    between atoms: C_1  and  C_2
REMARK    2  A    between atoms: N_16  and  C_17
REMARK    3  A    between atoms: C_17  and  C_18
REMARK                            x       y       z     vdW  Elec       q    Type
REMARK                         _______ _______ _______ _____ _____    ______ ____
ROOT
ATOM      1  C   UNL     1       2.392   4.127  21.388  0.00  0.00    +0.000 C 
ATOM      2  C   UNL     1       2.690   4.930  20.151  0.00  0.00    +0.000 A 
ATOM      3  N   UNL     1       3.842   4.621  19.498  0.00  0.00    +0.000 NA
ATOM      4  C   UNL     1       4.155   5.270  18.354  0.00  0.00    +0.000 A 
ATOM      5  N   UNL     1       5.353   4.904  17.762  0.00  0.00    +0.000 N 
ATOM      6  C   UNL     1       5.450   5.019  16.301  0.00  0.00    +0.000 C 
ATOM      7  C   UNL     1       6.704   4.233  15.842  0.00  0.00    +0.000 C 
ATOM      8  O   UNL     1       7.905   4.699  16.488  0.00  0.00    +0.000 OA
ATOM      9  C   UNL     1       7.773   4.597  17.914  0.00  0.00    +0.000 C 
ATOM     10  C   UNL     1       6.573   5.430  18.400  0.00  0.00    +0.000 C 
ATOM     11  N   UNL     1       3.380   6.236  17.854  0.00  0.00    +0.000 NA
ATOM     12  C   UNL     1       2.287   6.601  18.580  0.00  0.00    +0.000 A 
ATOM     13  C   UNL     1       1.922   6.005  19.779  0.00  0.00    +0.000 A 
ATOM     14  C   UNL     1       0.863   6.604  20.661  0.00  0.00    +0.000 C 
ATOM     15  C   UNL     1       1.297   7.992  21.173  0.00  0.00    +0.000 C 
ATOM     16  N   UNL     1       1.002   9.104  20.243  0.00  0.00    +0.000 NA
ATOM     17  C   UNL     1       1.779   9.020  18.980  0.00  0.00    +0.000 C 
ATOM     18  C   UNL     1       1.508   7.796  18.095  0.00  0.00    +0.000 C 
ENDROOT
BRANCH  16  19
ATOM     19  C   UNL     1       1.315  10.415  20.864  0.00  0.00    +0.000 C 
BRANCH  19  20
ATOM     20  C   UNL     1       0.102  11.087  21.445  0.00  0.00    +0.000 A 
ATOM     21  C   UNL     1      -0.521  10.693  22.679  0.00  0.00    +0.000 A 
ATOM     22  C   UNL     1      -1.610  11.472  23.000  0.00  0.00    +0.000 A 
ATOM     23  S   UNL     1      -1.895  12.685  21.830  0.00  0.00    +0.000 S 
ATOM     24  C   UNL     1      -0.557  12.173  20.894  0.00  0.00    +0.000 A 
ENDBRANCH  19  20
ENDBRANCH  16  19
TORSDOF 2
ENDMDL
MODEL 2
REMARK VINA RESULT:      -6.7      1.216      1.377
REMARK  Name = 
REMARK  3 active torsions:
REMARK  status: ('A' for Active; 'I' for Inactive)
REMARK    1  A    between atoms: C_1  and  C_2
REMARK    2  A    between atoms: N_16  and  C_17
REMARK    3  A    between atoms: C_17  and  C_18
REMARK                            x       y       z     vdW  Elec       q    Type
REMARK                         _______ _______ _______ _____ _____    ______ ____
ROOT
ATOM      1  C   UNL     1       2.449   4.146  21.382  0.00  0.00    +0.000 C 
ATOM      2  C   UNL     1       2.731   4.926  20.127  0.00  0.00    +0.000 A 
ATOM      3  N   UNL     1       3.877   4.608  19.467  0.00  0.00    +0.000 NA
ATOM      4  C   UNL     1       4.177   5.235  18.308  0.00  0.00    +0.000 A 
ATOM      5  N   UNL     1       5.370   4.861  17.711  0.00  0.00    +0.000 N 
ATOM      6  C   UNL     1       5.451   4.947  16.247  0.00  0.00    +0.000 C 
ATOM      7  C   UNL     1       6.704   4.157  15.791  0.00  0.00    +0.000 C 
ATOM      8  O   UNL     1       7.909   4.639  16.415  0.00  0.00    +0.000 OA
ATOM      9  C   UNL     1       7.792   4.565  17.844  0.00  0.00    +0.000 C 
ATOM     10  C   UNL     1       6.594   5.404  18.326  0.00  0.00    +0.000 C 
ATOM     11  N   UNL     1       3.394   6.188  17.797  0.00  0.00    +0.000 NA
ATOM     12  C   UNL     1       2.306   6.564  18.527  0.00  0.00    +0.000 A 
ATOM     13  C   UNL     1       1.956   5.991  19.741  0.00  0.00    +0.000 A 
ATOM     14  C   UNL     1       0.903   6.604  20.622  0.00  0.00    +0.000 C 
ATOM     15  C   UNL     1       1.338   8.002  21.102  0.00  0.00    +0.000 C 
ATOM     16  N   UNL     1       1.030   9.095  20.153  0.00  0.00    +0.000 NA
ATOM     17  C   UNL     1       1.794   8.989  18.884  0.00  0.00    +0.000 C 
ATOM     18  C   UNL     1       1.519   7.747  18.026  0.00  0.00    +0.000 C 
ENDROOT
BRANCH  16  19
ATOM     19  C   UNL     1       1.345  10.419  20.745  0.00  0.00    +0.000 C 
BRANCH  19  20
ATOM     20  C   UNL     1       0.603  11.545  20.078  0.00  0.00    +0.000 A 
ATOM     21  C   UNL     1      -0.806  11.521  19.794  0.00  0.00    +0.000 A 
ATOM     22  C   UNL     1      -1.248  12.675  19.189  0.00  0.00    +0.000 A 
ATOM     23  S   UNL     1       0.016  13.801  18.959  0.00  0.00    +0.000 S 
ATOM     24  C   UNL     1       1.159  12.747  19.674  0.00  0.00    +0.000 A 
ENDBRANCH  19  20
ENDBRANCH  16  19
TORSDOF 2
ENDMDL
MODEL 3
REMARK VINA RESULT:      -6.7      1.106      1.209
REMARK  Name = 
REMARK  3 active torsions:
REMARK  status: ('A' for Active; 'I' for Inactive)
REMARK    1  A    between atoms: C_1  and  C_2
REMARK    2  A    between atoms: N_16  and  C_17
REMARK    3  A    between atoms: C_17  and  C_18
REMARK                            x       y       z     vdW  Elec       q    Type
REMARK                         _______ _______ _______ _____ _____    ______ ____
ROOT
ATOM      1  C   UNL     1       2.616   2.783  20.127  0.00  0.00    +0.000 C 
ATOM      2  C   UNL     1       2.842   3.952  19.206  0.00  0.00    +0.000 A 
ATOM      3  N   UNL     1       3.939   3.881  18.406  0.00  0.00    +0.000 NA
ATOM      4  C   UNL     1       4.185   4.873  17.520  0.00  0.00    +0.000 A 
ATOM      5  N   UNL     1       5.331   4.728  16.756  0.00  0.00    +0.000 N 
ATOM      6  C   UNL     1       5.327   5.319  15.411  0.00  0.00    +0.000 C 
ATOM      7  C   UNL     1       6.531   4.734  14.629  0.00  0.00    +0.000 C 
ATOM      8  O   UNL     1       7.783   4.966  15.304  0.00  0.00    +0.000 OA
ATOM      9  C   UNL     1       7.749   4.398  16.622  0.00  0.00    +0.000 C 
ATOM     10  C   UNL     1       6.602   5.019  17.441  0.00  0.00    +0.000 C 
ATOM     11  N   UNL     1       3.396   5.946  17.424  0.00  0.00    +0.000 NA
ATOM     12  C   UNL     1       2.363   6.046  18.307  0.00  0.00    +0.000 A 
ATOM     13  C   UNL     1       2.071   5.086  19.266  0.00  0.00    +0.000 A 
ATOM     14  C   UNL     1       1.088   5.356  20.370  0.00  0.00    +0.000 C 
ATOM     15  C   UNL     1       1.585   6.498  21.278  0.00  0.00    +0.000 C 
ATOM     16  N   UNL     1       1.248   7.853  20.791  0.00  0.00    +0.000 NA
ATOM     17  C   UNL     1       1.932   8.195  19.518  0.00  0.00    +0.000 C 
ATOM     18  C   UNL     1       1.577   7.331  18.301  0.00  0.00    +0.000 C 
ENDROOT
BRANCH  16  19
ATOM     19  C   UNL     1       1.630   8.887  21.785  0.00  0.00    +0.000 C 
BRANCH  19  20
ATOM     20  C   UNL     1       0.538   9.894  22.025  0.00  0.00    +0.000 A 
ATOM     21  C   UNL     1      -0.397   9.821  23.115  0.00  0.00    +0.000 A 
ATOM     22  C   UNL     1      -1.291  10.867  23.121  0.00  0.00    +0.000 A 
ATOM     23  S   UNL     1      -1.020  11.948  21.827  0.00  0.00    +0.000 S 
ATOM     24  C   UNL     1       0.301  11.021  21.257  0.00  0.00    +0.000 A 
ENDBRANCH  19  20
ENDBRANCH  16  19
TORSDOF 2
ENDMDL
MODEL 4
REMARK VINA RESULT:      -6.1      2.967      4.343
REMARK  Name = 
REMARK  3 active torsions:
REMARK  status: ('A' for Active; 'I' for Inactive)
REMARK    1  A    between atoms: C_1  and  C_2
REMARK    2  A    between atoms: N_16  and  C_17
REMARK    3  A    between atoms: C_17  and  C_18
REMARK                            x       y       z     vdW  Elec       q    Type
REMARK                         _______ _______ _______ _____ _____    ______ ____
ROOT
ATOM      1  C   UNL     1       3.515   7.786  16.825  0.00  0.00    +0.000 C 
ATOM      2  C   UNL     1       2.847   7.534  18.150  0.00  0.00    +0.000 A 
ATOM      3  N   UNL     1       2.784   6.236  18.553  0.00  0.00    +0.000 NA
ATOM      4  C   UNL     1       2.238   5.935  19.753  0.00  0.00    +0.000 A 
ATOM      5  N   UNL     1       2.200   4.589  20.077  0.00  0.00    +0.000 N 
ATOM      6  C   UNL     1       2.270   4.233  21.500  0.00  0.00    +0.000 C 
ATOM      7  C   UNL     1       2.574   2.716  21.598  0.00  0.00    +0.000 C 
ATOM      8  O   UNL     1       1.596   1.919  20.903  0.00  0.00    +0.000 OA
ATOM      9  C   UNL     1       1.533   2.304  19.521  0.00  0.00    +0.000 C 
ATOM     10  C   UNL     1       1.161   3.793  19.399  0.00  0.00    +0.000 C 
ATOM     11  N   UNL     1       1.725   6.874  20.552  0.00  0.00    +0.000 NA
ATOM     12  C   UNL     1       1.705   8.154  20.083  0.00  0.00    +0.000 A 
ATOM     13  C   UNL     1       2.214   8.532  18.848  0.00  0.00    +0.000 A 
ATOM     14  C   UNL     1       1.944   9.894  18.274  0.00  0.00    +0.000 C 
ATOM     15  C   UNL     1       0.438  10.089  18.013  0.00  0.00    +0.000 C 
ATOM     16  N   UNL     1      -0.329  10.551  19.190  0.00  0.00    +0.000 NA
ATOM     17  C   UNL     1      -0.366   9.546  20.284  0.00  0.00    +0.000 C 
ATOM     18  C   UNL     1       0.982   9.179  20.917  0.00  0.00    +0.000 C 
ENDROOT
BRANCH  16  19
ATOM     19  C   UNL     1      -1.736  10.853  18.825  0.00  0.00    +0.000 C 
BRANCH  19  20
ATOM     20  C   UNL     1      -2.288  12.036  19.573  0.00  0.00    +0.000 A 
ATOM     21  C   UNL     1      -3.692  12.281  19.763  0.00  0.00    +0.000 A 
ATOM     22  C   UNL     1      -3.940  13.423  20.491  0.00  0.00    +0.000 A 
ATOM     23  S   UNL     1      -2.496  14.210  20.956  0.00  0.00    +0.000 S 
ATOM     24  C   UNL     1      -1.535  13.020  20.189  0.00  0.00    +0.000 A 
ENDBRANCH  19  20
ENDBRANCH  16  19
TORSDOF 2
ENDMDL
MODEL 5
REMARK VINA RESULT:      -6.0      1.785      2.162
REMARK  Name = 
REMARK  3 active torsions:
REMARK  status: ('A' for Active; 'I' for Inactive)
REMARK    1  A    between atoms: C_1  and  C_2
REMARK    2  A    between atoms: N_16  and  C_17
REMARK    3  A    between atoms: C_17  and  C_18
REMARK                            x       y       z     vdW  Elec       q    Type
REMARK                         _______ _______ _______ _____ _____    ______ ____
ROOT
ATOM      1  C   UNL     1       2.150   5.228  20.989  0.00  0.00    +0.000 C 
ATOM      2  C   UNL     1       2.459   6.088  19.794  0.00  0.00    +0.000 A 
ATOM      3  N   UNL     1       3.574   5.757  19.089  0.00  0.00    +0.000 NA
ATOM      4  C   UNL     1       3.893   6.457  17.977  0.00  0.00    +0.000 A 
ATOM      5  N   UNL     1       5.053   6.064  17.330  0.00  0.00    +0.000 N 
ATOM      6  C   UNL     1       5.117   6.262  15.876  0.00  0.00    +0.000 C 
ATOM      7  C   UNL     1       6.313   5.439  15.334  0.00  0.00    +0.000 C 
ATOM      8  O   UNL     1       7.555   5.799  15.971  0.00  0.00    +0.000 OA
ATOM      9  C   UNL     1       7.455   5.617  17.391  0.00  0.00    +0.000 C 
ATOM     10  C   UNL     1       6.317   6.483  17.962  0.00  0.00    +0.000 C 
ATOM     11  N   UNL     1       3.161   7.492  17.559  0.00  0.00    +0.000 NA
ATOM     12  C   UNL     1       2.108   7.871  18.337  0.00  0.00    +0.000 A 
ATOM     13  C   UNL     1       1.743   7.224  19.509  0.00  0.00    +0.000 A 
ATOM     14  C   UNL     1       0.742   7.824  20.456  0.00  0.00    +0.000 C 
ATOM     15  C   UNL     1       1.266   9.152  21.037  0.00  0.00    +0.000 C 
ATOM     16  N   UNL     1       1.010  10.334  20.184  0.00  0.00    +0.000 NA
ATOM     17  C   UNL     1       1.747  10.285  18.895  0.00  0.00    +0.000 C 
ATOM     18  C   UNL     1       1.385   9.134  17.948  0.00  0.00    +0.000 C 
ENDROOT
BRANCH  16  19
ATOM     19  C   UNL     1       1.412  11.585  20.872  0.00  0.00    +0.000 C 
BRANCH  19  20
ATOM     20  C   UNL     1       1.063  12.819  20.085  0.00  0.00    +0.000 A 
ATOM     21  C   UNL     1      -0.252  13.101  19.575  0.00  0.00    +0.000 A 
ATOM     22  C   UNL     1      -0.316  14.297  18.898  0.00  0.00    +0.000 A 
ATOM     23  S   UNL     1       1.194  15.097  18.869  0.00  0.00    +0.000 S 
ATOM     24  C   UNL     1       1.936  13.845  19.769  0.00  0.00    +0.000 A 
ENDBRANCH  19  20
ENDBRANCH  16  19
TORSDOF 2
ENDMDL
MODEL 6
REMARK VINA RESULT:      -5.9      1.281      1.685
REMARK  Name = 
REMARK  3 active torsions:
REMARK  status: ('A' for Active; 'I' for Inactive)
REMARK    1  A    between atoms: C_1  and  C_2
REMARK    2  A    between atoms: N_16  and  C_17
REMARK    3  A    between atoms: C_17  and  C_18
REMARK                            x       y       z     vdW  Elec       q    Type
REMARK                         _______ _______ _______ _____ _____    ______ ____
ROOT
ATOM      1  C   UNL     1       2.187   5.332  21.052  0.00  0.00    +0.000 C 
ATOM      2  C   UNL     1       2.471   6.160  19.828  0.00  0.00    +0.000 A 
ATOM      3  N   UNL     1       3.582   5.823  19.120  0.00  0.00    +0.000 NA
ATOM      4  C   UNL     1       3.879   6.493  17.984  0.00  0.00    +0.000 A 
ATOM      5  N   UNL     1       5.036   6.095  17.334  0.00  0.00    +0.000 N 
ATOM      6  C   UNL     1       5.081   6.251  15.874  0.00  0.00    +0.000 C 
ATOM      7  C   UNL     1       6.281   5.427  15.343  0.00  0.00    +0.000 C 
ATOM      8  O   UNL     1       7.525   5.822  15.954  0.00  0.00    +0.000 OA
ATOM      9  C   UNL     1       7.444   5.681  17.380  0.00  0.00    +0.000 C 
ATOM     10  C   UNL     1       6.302   6.549  17.938  0.00  0.00    +0.000 C 
ATOM     11  N   UNL     1       3.129   7.506  17.544  0.00  0.00    +0.000 NA
ATOM     12  C   UNL     1       2.081   7.895  18.323  0.00  0.00    +0.000 A 
ATOM     13  C   UNL     1       1.737   7.278  19.518  0.00  0.00    +0.000 A 
ATOM     14  C   UNL     1       0.740   7.894  20.459  0.00  0.00    +0.000 C 
ATOM     15  C   UNL     1       1.254   9.245  20.993  0.00  0.00    +0.000 C 
ATOM     16  N   UNL     1       0.972  10.397  20.109  0.00  0.00    +0.000 NA
ATOM     17  C   UNL     1       1.695  10.319  18.814  0.00  0.00    +0.000 C 
ATOM     18  C   UNL     1       1.337   9.136  17.905  0.00  0.00    +0.000 C 
ENDROOT
BRANCH  16  19
ATOM     19  C   UNL     1       1.366  11.674  20.755  0.00  0.00    +0.000 C 
BRANCH  19  20
ATOM     20  C   UNL     1       0.202  12.605  20.959  0.00  0.00    +0.000 A 
ATOM     21  C   UNL     1      -0.239  13.566  19.985  0.00  0.00    +0.000 A 
ATOM     22  C   UNL     1      -1.331  14.290  20.406  0.00  0.00    +0.000 A 
ATOM     23  S   UNL     1      -1.842  13.824  21.969  0.00  0.00    +0.000 S 
ATOM     24  C   UNL     1      -0.605  12.647  22.083  0.00  0.00    +0.000 A 
ENDBRANCH  19  20
ENDBRANCH  16  19
TORSDOF 2
ENDMDL
MODEL 7
REMARK VINA RESULT:      -5.9      3.341      4.873
REMARK  Name = 
REMARK  3 active torsions:
REMARK  status: ('A' for Active; 'I' for Inactive)
REMARK    1  A    between atoms: C_1  and  C_2
REMARK    2  A    between atoms: N_16  and  C_17
REMARK    3  A    between atoms: C_17  and  C_18
REMARK                            x       y       z     vdW  Elec       q    Type
REMARK                         _______ _______ _______ _____ _____    ______ ____
ROOT
ATOM      1  C   UNL     1       3.126   8.063  16.974  0.00  0.00    +0.000 C 
ATOM      2  C   UNL     1       2.573   7.736  18.334  0.00  0.00    +0.000 A 
ATOM      3  N   UNL     1       2.542   6.418  18.669  0.00  0.00    +0.000 NA
ATOM      4  C   UNL     1       2.098   6.050  19.892  0.00  0.00    +0.000 A 
ATOM      5  N   UNL     1       2.086   4.688  20.143  0.00  0.00    +0.000 N 
ATOM      6  C   UNL     1       2.276   4.254  21.534  0.00  0.00    +0.000 C 
ATOM      7  C   UNL     1       2.585   2.736  21.522  0.00  0.00    +0.000 C 
ATOM      8  O   UNL     1       1.551   1.974  20.869  0.00  0.00    +0.000 OA
ATOM      9  C   UNL     1       1.372   2.435  19.521  0.00  0.00    +0.000 C 
ATOM     10  C   UNL     1       0.993   3.927  19.513  0.00  0.00    +0.000 C 
ATOM     11  N   UNL     1       1.656   6.942  20.781  0.00  0.00    +0.000 NA
ATOM     12  C   UNL     1       1.597   8.245  20.387  0.00  0.00    +0.000 A 
ATOM     13  C   UNL     1       2.001   8.692  19.137  0.00  0.00    +0.000 A 
ATOM     14  C   UNL     1       1.686  10.083  18.663  0.00  0.00    +0.000 C 
ATOM     15  C   UNL     1       0.163  10.287  18.541  0.00  0.00    +0.000 C 
ATOM     16  N   UNL     1      -0.502  10.681  19.803  0.00  0.00    +0.000 NA
ATOM     17  C   UNL     1      -0.448   9.617  20.838  0.00  0.00    +0.000 C 
ATOM     18  C   UNL     1       0.949   9.221  21.334  0.00  0.00    +0.000 C 
ENDROOT
BRANCH  16  19
ATOM     19  C   UNL     1      -1.933  10.998  19.574  0.00  0.00    +0.000 C 
BRANCH  19  20
ATOM     20  C   UNL     1      -2.367  10.735  18.158  0.00  0.00    +0.000 A 
ATOM     21  C   UNL     1      -2.989   9.514  17.722  0.00  0.00    +0.000 A 
ATOM     22  C   UNL     1      -3.302   9.524  16.381  0.00  0.00    +0.000 A 
ATOM     23  S   UNL     1      -2.859  10.994  15.633  0.00  0.00    +0.000 S 
ATOM     24  C   UNL     1      -2.252  11.624  17.104  0.00  0.00    +0.000 A 
ENDBRANCH  19  20
ENDBRANCH  16  19
TORSDOF 2
ENDMDL
MODEL 8
REMARK VINA RESULT:      -5.9      9.297     10.999
REMARK  Name = 
REMARK  3 active torsions:
REMARK  status: ('A' for Active; 'I' for Inactive)
REMARK    1  A    between atoms: C_1  and  C_2
REMARK    2  A    between atoms: N_16  and  C_17
REMARK    3  A    between atoms: C_17  and  C_18
REMARK                            x       y       z     vdW  Elec       q    Type
REMARK                         _______ _______ _______ _____ _____    ______ ____
ROOT
ATOM      1  C   UNL     1       9.093   9.748  18.790  0.00  0.00    +0.000 C 
ATOM      2  C   UNL     1       9.510  10.877  19.693  0.00  0.00    +0.000 A 
ATOM      3  N   UNL     1       8.771  11.047  20.822  0.00  0.00    +0.000 NA
ATOM      4  C   UNL     1       9.111  12.013  21.704  0.00  0.00    +0.000 A 
ATOM      5  N   UNL     1       8.296  12.127  22.818  0.00  0.00    +0.000 N 
ATOM      6  C   UNL     1       8.909  12.615  24.060  0.00  0.00    +0.000 C 
ATOM      7  C   UNL     1       7.930  12.319  25.224  0.00  0.00    +0.000 C 
ATOM      8  O   UNL     1       6.634  12.910  25.009  0.00  0.00    +0.000 OA
ATOM      9  C   UNL     1       6.069  12.434  23.778  0.00  0.00    +0.000 C 
ATOM     10  C   UNL     1       6.993  12.781  22.597  0.00  0.00    +0.000 C 
ATOM     11  N   UNL     1      10.142  12.835  21.489  0.00  0.00    +0.000 NA
ATOM     12  C   UNL     1      10.803  12.715  20.304  0.00  0.00    +0.000 A 
ATOM     13  C   UNL     1      10.488  11.772  19.336  0.00  0.00    +0.000 A 
ATOM     14  C   UNL     1      11.075  11.841  17.955  0.00  0.00    +0.000 C 
ATOM     15  C   UNL     1      10.625  13.126  17.233  0.00  0.00    +0.000 C 
ATOM     16  N   UNL     1      11.455  14.314  17.530  0.00  0.00    +0.000 NA
ATOM     17  C   UNL     1      11.356  14.745  18.948  0.00  0.00    +0.000 C 
ATOM     18  C   UNL     1      11.858  13.746  19.999  0.00  0.00    +0.000 C 
ENDROOT
BRANCH  16  19
ATOM     19  C   UNL     1      11.050  15.470  16.691  0.00  0.00    +0.000 C 
BRANCH  19  20
ATOM     20  C   UNL     1      10.146  16.427  17.419  0.00  0.00    +0.000 A 
ATOM     21  C   UNL     1       8.781  16.136  17.767  0.00  0.00    +0.000 A 
ATOM     22  C   UNL     1       8.170  17.170  18.439  0.00  0.00    +0.000 A 
ATOM     23  S   UNL     1       9.224  18.496  18.666  0.00  0.00    +0.000 S 
ATOM     24  C   UNL     1      10.503  17.686  17.868  0.00  0.00    +0.000 A 
ENDBRANCH  19  20
ENDBRANCH  16  19
TORSDOF 2
ENDMDL
MODEL 9
REMARK VINA RESULT:      -5.7      5.880      9.451
REMARK  Name = 
REMARK  3 active torsions:
REMARK  status: ('A' for Active; 'I' for Inactive)
REMARK    1  A    between atoms: C_1  and  C_2
REMARK    2  A    between atoms: N_16  and  C_17
REMARK    3  A    between atoms: C_17  and  C_18
REMARK                            x       y       z     vdW  Elec       q    Type
REMARK                         _______ _______ _______ _____ _____    ______ ____
ROOT
ATOM      1  C   UNL     1      -1.226  15.849  22.748  0.00  0.00    +0.000 C 
ATOM      2  C   UNL     1      -1.677  14.450  23.068  0.00  0.00    +0.000 A 
ATOM      3  N   UNL     1      -0.923  13.444  22.549  0.00  0.00    +0.000 NA
ATOM      4  C   UNL     1      -1.240  12.159  22.829  0.00  0.00    +0.000 A 
ATOM      5  N   UNL     1      -0.430  11.198  22.247  0.00  0.00    +0.000 N 
ATOM      6  C   UNL     1      -0.258   9.930  22.968  0.00  0.00    +0.000 C 
ATOM      7  C   UNL     1       0.940   9.179  22.335  0.00  0.00    +0.000 C 
ATOM      8  O   UNL     1       0.761   8.961  20.922  0.00  0.00    +0.000 OA
ATOM      9  C   UNL     1       0.573  10.215  20.247  0.00  0.00    +0.000 C 
ATOM     10  C   UNL     1      -0.657  10.946  20.813  0.00  0.00    +0.000 C 
ATOM     11  N   UNL     1      -2.296  11.840  23.580  0.00  0.00    +0.000 NA
ATOM     12  C   UNL     1      -3.097  12.858  24.002  0.00  0.00    +0.000 A 
ATOM     13  C   UNL     1      -2.856  14.196  23.724  0.00  0.00    +0.000 A 
ATOM     14  C   UNL     1      -3.891  15.251  23.993  0.00  0.00    +0.000 C 
ATOM     15  C   UNL     1      -5.145  15.021  23.126  0.00  0.00    +0.000 C 
ATOM     16  N   UNL     1      -6.118  14.069  23.705  0.00  0.00    +0.000 NA
ATOM     17  C   UNL     1      -5.586  12.685  23.795  0.00  0.00    +0.000 C 
ATOM     18  C   UNL     1      -4.372  12.481  24.711  0.00  0.00    +0.000 C 
ENDROOT
BRANCH  16  19
ATOM     19  C   UNL     1      -7.356  14.010  22.888  0.00  0.00    +0.000 C 
BRANCH  19  20
ATOM     20  C   UNL     1      -7.271  12.998  21.778  0.00  0.00    +0.000 A 
ATOM     21  C   UNL     1      -6.539  13.203  20.558  0.00  0.00    +0.000 A 
ATOM     22  C   UNL     1      -6.608  12.123  19.707  0.00  0.00    +0.000 A 
ATOM     23  S   UNL     1      -7.545  10.853  20.360  0.00  0.00    +0.000 S 
ATOM     24  C   UNL     1      -7.856  11.743  21.788  0.00  0.00    +0.000 A 
ENDBRANCH  19  20
ENDBRANCH  16  19
TORSDOF 2
ENDMDL
