MODEL 1
REMARK VINA RESULT:      -8.2      0.000      0.000
REMARK  Name = 
REMARK  4 active torsions:
REMARK  status: ('A' for Active; 'I' for Inactive)
REMARK    1  A    between atoms: C_1  and  C_2
REMARK    2  A    between atoms: C_2  and  C_3
REMARK    3  A    between atoms: C_10  and  C_11
REMARK    4  A    between atoms: C_12  and  C_13
REMARK                            x       y       z     vdW  Elec       q    Type
REMARK                         _______ _______ _______ _____ _____    ______ ____
ROOT
ATOM      1  C   UNL     1       4.953   6.381  17.446  0.00  0.00    +0.000 C 
ATOM      2  C   UNL     1       6.379   6.175  16.914  0.00  0.00    +0.000 C 
ATOM      3  O   UNL     1       6.922   7.503  16.678  0.00  0.00    +0.000 OA
ATOM      4  C   UNL     1       7.759   7.774  17.762  0.00  0.00    +0.000 C 
ATOM      5  C   UNL     1       8.073   6.763  18.567  0.00  0.00    +0.000 C 
ATOM      6  C   UNL     1       7.281   5.668  18.023  0.00  0.00    +0.000 C 
ATOM      7  O   UNL     1       7.320   4.543  18.499  0.00  0.00    +0.000 OA
ENDROOT
BRANCH   2   8
ATOM      8  C   UNL     1       6.368   5.296  15.667  0.00  0.00    +0.000 A 
ATOM      9  C   UNL     1       7.386   5.350  14.703  0.00  0.00    +0.000 A 
ATOM     10  C   UNL     1       7.287   4.612  13.517  0.00  0.00    +0.000 A 
ATOM     11  C   UNL     1       6.174   3.809  13.277  0.00  0.00    +0.000 A 
ATOM     12  C   UNL     1       5.169   3.718  14.233  0.00  0.00    +0.000 A 
ATOM     13  C   UNL     1       5.272   4.446  15.420  0.00  0.00    +0.000 A 
ENDBRANCH   2   8
BRANCH   4  14
ATOM     14  C   UNL     1       8.174   9.140  17.961  0.00  0.00    +0.000 C 
ATOM     15  C   UNL     1       8.984   9.570  18.943  0.00  0.00    +0.000 C 
BRANCH  15  16
ATOM     16  C   UNL     1       9.446  10.961  19.083  0.00  0.00    +0.000 A 
ATOM     17  C   UNL     1      10.017  11.387  20.278  0.00  0.00    +0.000 A 
ATOM     18  C   UNL     1      10.451  12.707  20.385  0.00  0.00    +0.000 A 
ATOM     19  C   UNL     1      10.310  13.561  19.299  0.00  0.00    +0.000 A 
ATOM     20  C   UNL     1       9.735  13.055  18.144  0.00  0.00    +0.000 A 
ATOM     21  N   UNL     1       9.302  11.780  18.014  0.00  0.00    +0.000 NA
ENDBRANCH  15  16
ENDBRANCH   4  14
TORSDOF 3
ENDMDL
MODEL 2
REMARK VINA RESULT:      -8.1      0.650      1.064
REMARK  Name = 
REMARK  4 active torsions:
REMARK  status: ('A' for Active; 'I' for Inactive)
REMARK    1  A    between atoms: C_1  and  C_2
REMARK    2  A    between atoms: C_2  and  C_3
REMARK    3  A    between atoms: C_10  and  C_11
REMARK    4  A    between atoms: C_12  and  C_13
REMARK                            x       y       z     vdW  Elec       q    Type
REMARK                         _______ _______ _______ _____ _____    ______ ____
ROOT
ATOM      1  C   UNL     1       4.844   6.225  17.256  0.00  0.00    +0.000 C 
ATOM      2  C   UNL     1       6.289   6.028  16.772  0.00  0.00    +0.000 C 
ATOM      3  O   UNL     1       6.843   7.359  16.591  0.00  0.00    +0.000 OA
ATOM      4  C   UNL     1       7.640   7.599  17.712  0.00  0.00    +0.000 C 
ATOM      5  C   UNL     1       7.922   6.567  18.501  0.00  0.00    +0.000 C 
ATOM      6  C   UNL     1       7.147   5.490  17.900  0.00  0.00    +0.000 C 
ATOM      7  O   UNL     1       7.166   4.352  18.347  0.00  0.00    +0.000 OA
ENDROOT
BRANCH   2   8
ATOM      8  C   UNL     1       6.321   5.182  15.503  0.00  0.00    +0.000 A 
ATOM      9  C   UNL     1       7.350   5.292  14.555  0.00  0.00    +0.000 A 
ATOM     10  C   UNL     1       7.290   4.582  13.349  0.00  0.00    +0.000 A 
ATOM     11  C   UNL     1       6.206   3.753  13.073  0.00  0.00    +0.000 A 
ATOM     12  C   UNL     1       5.192   3.606  14.012  0.00  0.00    +0.000 A 
ATOM     13  C   UNL     1       5.256   4.305  15.219  0.00  0.00    +0.000 A 
ENDBRANCH   2   8
BRANCH   4  14
ATOM     14  C   UNL     1       8.051   8.959  17.962  0.00  0.00    +0.000 C 
ATOM     15  C   UNL     1       8.924   9.344  18.907  0.00  0.00    +0.000 C 
BRANCH  15  16
ATOM     16  C   UNL     1       9.377  10.732  19.096  0.00  0.00    +0.000 A 
ATOM     17  C   UNL     1       9.484  11.584  18.000  0.00  0.00    +0.000 A 
ATOM     18  C   UNL     1       9.910  12.895  18.205  0.00  0.00    +0.000 A 
ATOM     19  C   UNL     1      10.210  13.321  19.493  0.00  0.00    +0.000 A 
ATOM     20  C   UNL     1      10.071  12.411  20.528  0.00  0.00    +0.000 A 
ATOM     21  N   UNL     1       9.664  11.132  20.358  0.00  0.00    +0.000 NA
ENDBRANCH  15  16
ENDBRANCH   4  14
TORSDOF 3
ENDMDL
MODEL 3
REMARK VINA RESULT:      -8.0      0.224      1.074
REMARK  Name = 
REMARK  4 active torsions:
REMARK  status: ('A' for Active; 'I' for Inactive)
REMARK    1  A    between atoms: C_1  and  C_2
REMARK    2  A    between atoms: C_2  and  C_3
REMARK    3  A    between atoms: C_10  and  C_11
REMARK    4  A    between atoms: C_12  and  C_13
REMARK                            x       y       z     vdW  Elec       q    Type
REMARK                         _______ _______ _______ _____ _____    ______ ____
ROOT
ATOM      1  C   UNL     1       4.879   6.535  17.454  0.00  0.00    +0.000 C 
ATOM      2  C   UNL     1       6.285   6.269  16.893  0.00  0.00    +0.000 C 
ATOM      3  O   UNL     1       6.895   7.571  16.686  0.00  0.00    +0.000 OA
ATOM      4  C   UNL     1       7.762   7.765  17.763  0.00  0.00    +0.000 C 
ATOM      5  C   UNL     1       8.032   6.715  18.533  0.00  0.00    +0.000 C 
ATOM      6  C   UNL     1       7.173   5.682  17.972  0.00  0.00    +0.000 C 
ATOM      7  O   UNL     1       7.159   4.542  18.414  0.00  0.00    +0.000 OA
ENDROOT
BRANCH   2   8
ATOM      8  C   UNL     1       6.207   5.429  15.621  0.00  0.00    +0.000 A 
ATOM      9  C   UNL     1       5.162   4.522  15.386  0.00  0.00    +0.000 A 
ATOM     10  C   UNL     1       5.181   3.686  14.262  0.00  0.00    +0.000 A 
ATOM     11  C   UNL     1       6.239   3.744  13.358  0.00  0.00    +0.000 A 
ATOM     12  C   UNL     1       7.268   4.658  13.557  0.00  0.00    +0.000 A 
ATOM     13  C   UNL     1       7.245   5.498  14.671  0.00  0.00    +0.000 A 
ENDBRANCH   2   8
BRANCH   4  14
ATOM     14  C   UNL     1       8.253   9.101  17.994  0.00  0.00    +0.000 C 
ATOM     15  C   UNL     1       9.006   9.480  19.039  0.00  0.00    +0.000 C 
BRANCH  15  16
ATOM     16  C   UNL     1       9.551  10.836  19.215  0.00  0.00    +0.000 A 
ATOM     17  C   UNL     1       9.918  11.280  20.483  0.00  0.00    +0.000 A 
ATOM     18  C   UNL     1      10.436  12.566  20.624  0.00  0.00    +0.000 A 
ATOM     19  C   UNL     1      10.579  13.369  19.500  0.00  0.00    +0.000 A 
ATOM     20  C   UNL     1      10.194  12.850  18.275  0.00  0.00    +0.000 A 
ATOM     21  N   UNL     1       9.686  11.607  18.110  0.00  0.00    +0.000 NA
ENDBRANCH  15  16
ENDBRANCH   4  14
TORSDOF 3
ENDMDL
MODEL 4
REMARK VINA RESULT:      -7.9      5.374      7.105
REMARK  Name = 
REMARK  4 active torsions:
REMARK  status: ('A' for Active; 'I' for Inactive)
REMARK    1  A    between atoms: C_1  and  C_2
REMARK    2  A    between atoms: C_2  and  C_3
REMARK    3  A    between atoms: C_10  and  C_11
REMARK    4  A    between atoms: C_12  and  C_13
REMARK                            x       y       z     vdW  Elec       q    Type
REMARK                         _______ _______ _______ _____ _____    ______ ____
ROOT
ATOM      1  C   UNL     1       1.744   4.165  17.644  0.00  0.00    +0.000 C 
ATOM      2  C   UNL     1       2.837   4.523  18.662  0.00  0.00    +0.000 C 
ATOM      3  O   UNL     1       2.517   5.852  19.154  0.00  0.00    +0.000 OA
ATOM      4  C   UNL     1       1.927   5.667  20.405  0.00  0.00    +0.000 C 
ATOM      5  C   UNL     1       2.017   4.461  20.957  0.00  0.00    +0.000 C 
ATOM      6  C   UNL     1       2.677   3.685  19.915  0.00  0.00    +0.000 C 
ATOM      7  O   UNL     1       2.956   2.504  20.066  0.00  0.00    +0.000 OA
ENDROOT
BRANCH   2   8
ATOM      8  C   UNL     1       4.219   4.431  18.021  0.00  0.00    +0.000 A 
ATOM      9  C   UNL     1       5.389   4.785  18.711  0.00  0.00    +0.000 A 
ATOM     10  C   UNL     1       6.628   4.796  18.058  0.00  0.00    +0.000 A 
ATOM     11  C   UNL     1       6.718   4.454  16.711  0.00  0.00    +0.000 A 
ATOM     12  C   UNL     1       5.575   4.070  16.018  0.00  0.00    +0.000 A 
ATOM     13  C   UNL     1       4.341   4.049  16.671  0.00  0.00    +0.000 A 
ENDBRANCH   2   8
BRANCH   4  14
ATOM     14  C   UNL     1       1.215   6.781  20.980  0.00  0.00    +0.000 C 
ATOM     15  C   UNL     1       1.530   8.075  20.810  0.00  0.00    +0.000 C 
BRANCH  15  16
ATOM     16  C   UNL     1       0.745   9.195  21.354  0.00  0.00    +0.000 A 
ATOM     17  C   UNL     1       0.098   9.061  22.580  0.00  0.00    +0.000 A 
ATOM     18  C   UNL     1      -0.636  10.136  23.076  0.00  0.00    +0.000 A 
ATOM     19  C   UNL     1      -0.699  11.314  22.343  0.00  0.00    +0.000 A 
ATOM     20  C   UNL     1      -0.023  11.366  21.136  0.00  0.00    +0.000 A 
ATOM     21  N   UNL     1       0.694  10.337  20.628  0.00  0.00    +0.000 NA
ENDBRANCH  15  16
ENDBRANCH   4  14
TORSDOF 3
ENDMDL
MODEL 5
REMARK VINA RESULT:      -7.8      5.324      7.109
REMARK  Name = 
REMARK  4 active torsions:
REMARK  status: ('A' for Active; 'I' for Inactive)
REMARK    1  A    between atoms: C_1  and  C_2
REMARK    2  A    between atoms: C_2  and  C_3
REMARK    3  A    between atoms: C_10  and  C_11
REMARK    4  A    between atoms: C_12  and  C_13
REMARK                            x       y       z     vdW  Elec       q    Type
REMARK                         _______ _______ _______ _____ _____    ______ ____
ROOT
ATOM      1  C   UNL     1       2.046   4.259  17.613  0.00  0.00    +0.000 C 
ATOM      2  C   UNL     1       3.117   4.702  18.622  0.00  0.00    +0.000 C 
ATOM      3  O   UNL     1       2.697   6.002  19.118  0.00  0.00    +0.000 OA
ATOM      4  C   UNL     1       2.135   5.770  20.374  0.00  0.00    +0.000 C 
ATOM      5  C   UNL     1       2.325   4.575  20.924  0.00  0.00    +0.000 C 
ATOM      6  C   UNL     1       3.035   3.854  19.876  0.00  0.00    +0.000 C 
ATOM      7  O   UNL     1       3.407   2.699  20.023  0.00  0.00    +0.000 OA
ENDROOT
BRANCH   2   8
ATOM      8  C   UNL     1       4.497   4.721  17.969  0.00  0.00    +0.000 A 
ATOM      9  C   UNL     1       4.713   4.259  16.663  0.00  0.00    +0.000 A 
ATOM     10  C   UNL     1       6.009   4.186  16.136  0.00  0.00    +0.000 A 
ATOM     11  C   UNL     1       7.105   4.573  16.903  0.00  0.00    +0.000 A 
ATOM     12  C   UNL     1       6.908   5.064  18.190  0.00  0.00    +0.000 A 
ATOM     13  C   UNL     1       5.616   5.146  18.712  0.00  0.00    +0.000 A 
ENDBRANCH   2   8
BRANCH   4  14
ATOM     14  C   UNL     1       1.342   6.824  20.957  0.00  0.00    +0.000 C 
ATOM     15  C   UNL     1       1.510   8.138  20.732  0.00  0.00    +0.000 C 
BRANCH  15  16
ATOM     16  C   UNL     1       0.642   9.189  21.287  0.00  0.00    +0.000 A 
ATOM     17  C   UNL     1       0.186   9.093  22.599  0.00  0.00    +0.000 A 
ATOM     18  C   UNL     1      -0.631  10.103  23.104  0.00  0.00    +0.000 A 
ATOM     19  C   UNL     1      -0.964  11.180  22.292  0.00  0.00    +0.000 A 
ATOM     20  C   UNL     1      -0.464  11.200  21.001  0.00  0.00    +0.000 A 
ATOM     21  N   UNL     1       0.328  10.233  20.483  0.00  0.00    +0.000 NA
ENDBRANCH  15  16
ENDBRANCH   4  14
TORSDOF 3
ENDMDL
MODEL 6
REMARK VINA RESULT:      -7.8      0.852      1.620
REMARK  Name = 
REMARK  4 active torsions:
REMARK  status: ('A' for Active; 'I' for Inactive)
REMARK    1  A    between atoms: C_1  and  C_2
REMARK    2  A    between atoms: C_2  and  C_3
REMARK    3  A    between atoms: C_10  and  C_11
REMARK    4  A    between atoms: C_12  and  C_13
REMARK                            x       y       z     vdW  Elec       q    Type
REMARK                         _______ _______ _______ _____ _____    ______ ____
ROOT
ATOM      1  C   UNL     1       4.842   6.712  17.099  0.00  0.00    +0.000 C 
ATOM      2  C   UNL     1       6.210   6.068  16.829  0.00  0.00    +0.000 C 
ATOM      3  O   UNL     1       7.187   7.141  16.904  0.00  0.00    +0.000 OA
ATOM      4  C   UNL     1       7.791   7.025  18.157  0.00  0.00    +0.000 C 
ATOM      5  C   UNL     1       7.570   5.910  18.847  0.00  0.00    +0.000 C 
ATOM      6  C   UNL     1       6.618   5.200  18.003  0.00  0.00    +0.000 C 
ATOM      7  O   UNL     1       6.185   4.097  18.303  0.00  0.00    +0.000 OA
ENDROOT
BRANCH   2   8
ATOM      8  C   UNL     1       6.209   5.344  15.486  0.00  0.00    +0.000 A 
ATOM      9  C   UNL     1       5.139   4.538  15.071  0.00  0.00    +0.000 A 
ATOM     10  C   UNL     1       5.219   3.798  13.884  0.00  0.00    +0.000 A 
ATOM     11  C   UNL     1       6.366   3.854  13.095  0.00  0.00    +0.000 A 
ATOM     12  C   UNL     1       7.425   4.671  13.473  0.00  0.00    +0.000 A 
ATOM     13  C   UNL     1       7.342   5.416  14.650  0.00  0.00    +0.000 A 
ENDBRANCH   2   8
BRANCH   4  14
ATOM     14  C   UNL     1       8.562   8.146  18.635  0.00  0.00    +0.000 C 
ATOM     15  C   UNL     1       8.463   9.406  18.180  0.00  0.00    +0.000 C 
BRANCH  15  16
ATOM     16  C   UNL     1       9.215  10.545  18.733  0.00  0.00    +0.000 A 
ATOM     17  C   UNL     1       9.777  11.488  17.878  0.00  0.00    +0.000 A 
ATOM     18  C   UNL     1      10.480  12.560  18.425  0.00  0.00    +0.000 A 
ATOM     19  C   UNL     1      10.597  12.664  19.805  0.00  0.00    +0.000 A 
ATOM     20  C   UNL     1      10.003  11.686  20.584  0.00  0.00    +0.000 A 
ATOM     21  N   UNL     1       9.318  10.633  20.081  0.00  0.00    +0.000 NA
ENDBRANCH  15  16
ENDBRANCH   4  14
TORSDOF 3
ENDMDL
MODEL 7
REMARK VINA RESULT:      -7.7      5.288      7.114
REMARK  Name = 
REMARK  4 active torsions:
REMARK  status: ('A' for Active; 'I' for Inactive)
REMARK    1  A    between atoms: C_1  and  C_2
REMARK    2  A    between atoms: C_2  and  C_3
REMARK    3  A    between atoms: C_10  and  C_11
REMARK    4  A    between atoms: C_12  and  C_13
REMARK                            x       y       z     vdW  Elec       q    Type
REMARK                         _______ _______ _______ _____ _____    ______ ____
ROOT
ATOM      1  C   UNL     1       2.121   4.015  17.553  0.00  0.00    +0.000 C 
ATOM      2  C   UNL     1       3.172   4.446  18.587  0.00  0.00    +0.000 C 
ATOM      3  O   UNL     1       2.768   5.760  19.057  0.00  0.00    +0.000 OA
ATOM      4  C   UNL     1       2.165   5.556  20.299  0.00  0.00    +0.000 C 
ATOM      5  C   UNL     1       2.312   4.363  20.867  0.00  0.00    +0.000 C 
ATOM      6  C   UNL     1       3.034   3.614  19.847  0.00  0.00    +0.000 C 
ATOM      7  O   UNL     1       3.376   2.453  20.018  0.00  0.00    +0.000 OA
ENDROOT
BRANCH   2   8
ATOM      8  C   UNL     1       4.570   4.426  17.975  0.00  0.00    +0.000 A 
ATOM      9  C   UNL     1       5.704   4.847  18.684  0.00  0.00    +0.000 A 
ATOM     10  C   UNL     1       6.954   4.922  18.056  0.00  0.00    +0.000 A 
ATOM     11  C   UNL     1       7.089   4.575  16.713  0.00  0.00    +0.000 A 
ATOM     12  C   UNL     1       5.983   4.125  16.001  0.00  0.00    +0.000 A 
ATOM     13  C   UNL     1       4.739   4.041  16.630  0.00  0.00    +0.000 A 
ENDBRANCH   2   8
BRANCH   4  14
ATOM     14  C   UNL     1       1.379   6.634  20.847  0.00  0.00    +0.000 C 
ATOM     15  C   UNL     1       1.618   7.942  20.658  0.00  0.00    +0.000 C 
BRANCH  15  16
ATOM     16  C   UNL     1       0.760   9.021  21.174  0.00  0.00    +0.000 A 
ATOM     17  C   UNL     1       0.230   9.966  20.300  0.00  0.00    +0.000 A 
ATOM     18  C   UNL     1      -0.584  10.976  20.811  0.00  0.00    +0.000 A 
ATOM     19  C   UNL     1      -0.851  11.010  22.173  0.00  0.00    +0.000 A 
ATOM     20  C   UNL     1      -0.289  10.029  22.972  0.00  0.00    +0.000 A 
ATOM     21  N   UNL     1       0.508   9.040  22.504  0.00  0.00    +0.000 NA
ENDBRANCH  15  16
ENDBRANCH   4  14
TORSDOF 3
ENDMDL
MODEL 8
REMARK VINA RESULT:      -7.7      5.332      7.164
REMARK  Name = 
REMARK  4 active torsions:
REMARK  status: ('A' for Active; 'I' for Inactive)
REMARK    1  A    between atoms: C_1  and  C_2
REMARK    2  A    between atoms: C_2  and  C_3
REMARK    3  A    between atoms: C_10  and  C_11
REMARK    4  A    between atoms: C_12  and  C_13
REMARK                            x       y       z     vdW  Elec       q    Type
REMARK                         _______ _______ _______ _____ _____    ______ ____
ROOT
ATOM      1  C   UNL     1       2.041   4.150  17.551  0.00  0.00    +0.000 C 
ATOM      2  C   UNL     1       3.113   4.618  18.546  0.00  0.00    +0.000 C 
ATOM      3  O   UNL     1       2.681   5.918  19.031  0.00  0.00    +0.000 OA
ATOM      4  C   UNL     1       2.130   5.693  20.294  0.00  0.00    +0.000 C 
ATOM      5  C   UNL     1       2.339   4.506  20.856  0.00  0.00    +0.000 C 
ATOM      6  C   UNL     1       3.050   3.783  19.810  0.00  0.00    +0.000 C 
ATOM      7  O   UNL     1       3.438   2.634  19.968  0.00  0.00    +0.000 OA
ENDROOT
BRANCH   2   8
ATOM      8  C   UNL     1       4.488   4.646  17.884  0.00  0.00    +0.000 A 
ATOM      9  C   UNL     1       4.696   4.195  16.572  0.00  0.00    +0.000 A 
ATOM     10  C   UNL     1       5.988   4.131  16.035  0.00  0.00    +0.000 A 
ATOM     11  C   UNL     1       7.088   4.515  16.798  0.00  0.00    +0.000 A 
ATOM     12  C   UNL     1       6.900   4.994  18.090  0.00  0.00    +0.000 A 
ATOM     13  C   UNL     1       5.612   5.069  18.622  0.00  0.00    +0.000 A 
ENDBRANCH   2   8
BRANCH   4  14
ATOM     14  C   UNL     1       1.328   6.744  20.870  0.00  0.00    +0.000 C 
ATOM     15  C   UNL     1       1.562   8.060  20.740  0.00  0.00    +0.000 C 
BRANCH  15  16
ATOM     16  C   UNL     1       0.688   9.112  21.283  0.00  0.00    +0.000 A 
ATOM     17  C   UNL     1       0.168  10.089  20.438  0.00  0.00    +0.000 A 
ATOM     18  C   UNL     1      -0.661  11.073  20.975  0.00  0.00    +0.000 A 
ATOM     19  C   UNL     1      -0.954  11.050  22.332  0.00  0.00    +0.000 A 
ATOM     20  C   UNL     1      -0.400  10.040  23.101  0.00  0.00    +0.000 A 
ATOM     21  N   UNL     1       0.411   9.076  22.608  0.00  0.00    +0.000 NA
ENDBRANCH  15  16
ENDBRANCH   4  14
TORSDOF 3
ENDMDL
MODEL 9
REMARK VINA RESULT:      -7.7      5.472      7.111
REMARK  Name = 
REMARK  4 active torsions:
REMARK  status: ('A' for Active; 'I' for Inactive)
REMARK    1  A    between atoms: C_1  and  C_2
REMARK    2  A    between atoms: C_2  and  C_3
REMARK    3  A    between atoms: C_10  and  C_11
REMARK    4  A    between atoms: C_12  and  C_13
REMARK                            x       y       z     vdW  Elec       q    Type
REMARK                         _______ _______ _______ _____ _____    ______ ____
ROOT
ATOM      1  C   UNL     1       1.495   4.445  17.654  0.00  0.00    +0.000 C 
ATOM      2  C   UNL     1       2.719   5.018  18.385  0.00  0.00    +0.000 C 
ATOM      3  O   UNL     1       2.313   6.312  18.909  0.00  0.00    +0.000 OA
ATOM      4  C   UNL     1       2.055   6.113  20.266  0.00  0.00    +0.000 C 
ATOM      5  C   UNL     1       2.454   4.967  20.808  0.00  0.00    +0.000 C 
ATOM      6  C   UNL     1       2.976   4.239  19.660  0.00  0.00    +0.000 C 
ATOM      7  O   UNL     1       3.463   3.122  19.768  0.00  0.00    +0.000 OA
ENDROOT
BRANCH   2   8
ATOM      8  C   UNL     1       3.919   5.095  17.446  0.00  0.00    +0.000 A 
ATOM      9  C   UNL     1       4.611   6.293  17.211  0.00  0.00    +0.000 A 
ATOM     10  C   UNL     1       5.636   6.351  16.259  0.00  0.00    +0.000 A 
ATOM     11  C   UNL     1       5.987   5.217  15.530  0.00  0.00    +0.000 A 
ATOM     12  C   UNL     1       5.335   4.013  15.771  0.00  0.00    +0.000 A 
ATOM     13  C   UNL     1       4.320   3.951  16.727  0.00  0.00    +0.000 A 
ENDBRANCH   2   8
BRANCH   4  14
ATOM     14  C   UNL     1       1.324   7.141  20.965  0.00  0.00    +0.000 C 
ATOM     15  C   UNL     1       1.330   8.447  20.652  0.00  0.00    +0.000 C 
BRANCH  15  16
ATOM     16  C   UNL     1       0.521   9.465  21.342  0.00  0.00    +0.000 A 
ATOM     17  C   UNL     1       0.310  10.706  20.748  0.00  0.00    +0.000 A 
ATOM     18  C   UNL     1      -0.463  11.652  21.418  0.00  0.00    +0.000 A 
ATOM     19  C   UNL     1      -1.009  11.333  22.655  0.00  0.00    +0.000 A 
ATOM     20  C   UNL     1      -0.755  10.074  23.173  0.00  0.00    +0.000 A 
ATOM     21  N   UNL     1      -0.005   9.138  22.547  0.00  0.00    +0.000 NA
ENDBRANCH  15  16
ENDBRANCH   4  14
TORSDOF 3
ENDMDL
