MODEL 1
REMARK VINA RESULT:      -7.7      0.000      0.000
REMARK  Name = 
REMARK  15 active torsions:
REMARK  status: ('A' for Active; 'I' for Inactive)
REMARK    1  A    between atoms: C_1  and  C_2
REMARK    2  A    between atoms: C_2  and  N_3
REMARK    3  A    between atoms: N_3  and  C_4
REMARK    4  A    between atoms: N_3  and  C_6
REMARK    5  A    between atoms: C_4  and  C_5
REMARK    6  A    between atoms: C_6  and  C_7
REMARK    7  A    between atoms: C_7  and  C_8
REMARK    8  A    between atoms: C_8  and  C_9
REMARK    9  A    between atoms: C_9  and  C_10
REMARK   10  A    between atoms: C_10  and  C_11
REMARK   11  A    between atoms: C_14  and  N_15
REMARK   12  A    between atoms: N_15  and  C_16
REMARK   13  A    between atoms: N_15  and  S_17
REMARK   14  A    between atoms: S_17  and  C_20
REMARK   15  A    between atoms: C_23  and  C_24
REMARK                            x       y       z     vdW  Elec       q    Type
REMARK                         _______ _______ _______ _____ _____    ______ ____
ROOT
ATOM      1  C   UNL     1       7.893   6.901  18.181  0.00  0.00    +0.000 C 
ATOM      2  C   UNL     1       7.433   5.836  19.189  0.00  0.00    +0.000 C 
ATOM      3  C   UNL     1       6.697   4.684  18.514  0.00  0.00    +0.000 C 
ATOM      4  C   UNL     1       5.524   5.177  17.657  0.00  0.00    +0.000 C 
ATOM      5  C   UNL     1       5.993   6.221  16.636  0.00  0.00    +0.000 C 
ATOM      6  C   UNL     1       6.719   7.383  17.314  0.00  0.00    +0.000 C 
ENDROOT
BRANCH   4   7
ATOM      7  N   UNL     1       4.817   4.005  17.034  0.00  0.00    +0.000 NA
ATOM      8  C   UNL     1       4.643   4.066  15.567  0.00  0.00    +0.000 C 
BRANCH   7   9
ATOM      9  S   UNL     1       3.484   3.387  17.904  0.00  0.00    +0.000 S 
ATOM     10  O   UNL     1       2.460   2.981  16.967  0.00  0.00    +0.000 OA
ATOM     11  O   UNL     1       4.004   2.469  18.902  0.00  0.00    +0.000 OA
BRANCH   9  12
ATOM     12  C   UNL     1       2.854   4.830  18.743  0.00  0.00    +0.000 A 
ATOM     13  C   UNL     1       2.736   6.029  18.035  0.00  0.00    +0.000 A 
ATOM     14  C   UNL     1       2.242   7.170  18.680  0.00  0.00    +0.000 A 
ATOM     15  C   UNL     1       1.855   7.117  20.028  0.00  0.00    +0.000 A 
ATOM     16  C   UNL     1       1.958   5.896  20.718  0.00  0.00    +0.000 A 
ATOM     17  C   UNL     1       2.456   4.754  20.080  0.00  0.00    +0.000 A 
BRANCH  15  18
ATOM     18  C   UNL     1       1.340   8.345  20.744  0.00  0.00    +0.000 C 
ATOM     19  F   UNL     1       0.101   8.183  21.288  0.00  0.00    +0.000 F 
ATOM     20  F   UNL     1       2.150   8.736  21.768  0.00  0.00    +0.000 F 
ATOM     21  F   UNL     1       1.242   9.422  19.916  0.00  0.00    +0.000 F 
ENDBRANCH  15  18
ENDBRANCH   9  12
ENDBRANCH   7   9
ENDBRANCH   4   7
BRANCH   1  22
ATOM     22  C   UNL     1       8.551   8.107  18.877  0.00  0.00    +0.000 C 
BRANCH  22  23
ATOM     23  C   UNL     1       8.415   9.432  18.129  0.00  0.00    +0.000 C 
BRANCH  23  24
ATOM     24  C   UNL     1       8.994  10.635  18.876  0.00  0.00    +0.000 C 
BRANCH  24  25
ATOM     25  C   UNL     1      10.074  11.279  18.013  0.00  0.00    +0.000 C 
BRANCH  25  26
ATOM     26  C   UNL     1      10.870  12.365  18.734  0.00  0.00    +0.000 C 
ATOM     27  C   UNL     1      12.199  12.739  18.091  0.00  0.00    +0.000 C 
ATOM     28  C   UNL     1      12.182  11.877  19.316  0.00  0.00    +0.000 C 
BRANCH  26  29
ATOM     29  N   UNL     1      10.040  13.408  19.473  0.00  0.00    +0.000 NA
BRANCH  29  31
ATOM     30  C   UNL     1       9.357  13.104  21.918  0.00  0.00    +0.000 C 
ATOM     31  C   UNL     1      10.419  13.502  20.898  0.00  0.00    +0.000 C 
ENDBRANCH  29  31
BRANCH  29  32
ATOM     32  C   UNL     1       9.915  14.699  18.773  0.00  0.00    +0.000 C 
ATOM     33  C   UNL     1      10.633  15.902  19.370  0.00  0.00    +0.000 C 
ENDBRANCH  29  32
ENDBRANCH  26  29
ENDBRANCH  25  26
ENDBRANCH  24  25
ENDBRANCH  23  24
ENDBRANCH  22  23
ENDBRANCH   1  22
TORSDOF 12
ENDMDL
MODEL 2
REMARK VINA RESULT:      -7.6      0.595      1.036
REMARK  Name = 
REMARK  15 active torsions:
REMARK  status: ('A' for Active; 'I' for Inactive)
REMARK    1  A    between atoms: C_1  and  C_2
REMARK    2  A    between atoms: C_2  and  N_3
REMARK    3  A    between atoms: N_3  and  C_4
REMARK    4  A    between atoms: N_3  and  C_6
REMARK    5  A    between atoms: C_4  and  C_5
REMARK    6  A    between atoms: C_6  and  C_7
REMARK    7  A    between atoms: C_7  and  C_8
REMARK    8  A    between atoms: C_8  and  C_9
REMARK    9  A    between atoms: C_9  and  C_10
REMARK   10  A    between atoms: C_10  and  C_11
REMARK   11  A    between atoms: C_14  and  N_15
REMARK   12  A    between atoms: N_15  and  C_16
REMARK   13  A    between atoms: N_15  and  S_17
REMARK   14  A    between atoms: S_17  and  C_20
REMARK   15  A    between atoms: C_23  and  C_24
REMARK                            x       y       z     vdW  Elec       q    Type
REMARK                         _______ _______ _______ _____ _____    ______ ____
ROOT
ATOM      1  C   UNL     1       7.856   7.021  18.056  0.00  0.00    +0.000 C 
ATOM      2  C   UNL     1       7.537   5.874  19.027  0.00  0.00    +0.000 C 
ATOM      3  C   UNL     1       6.784   4.735  18.346  0.00  0.00    +0.000 C 
ATOM      4  C   UNL     1       5.516   5.230  17.638  0.00  0.00    +0.000 C 
ATOM      5  C   UNL     1       5.844   6.358  16.652  0.00  0.00    +0.000 C 
ATOM      6  C   UNL     1       6.586   7.506  17.337  0.00  0.00    +0.000 C 
ENDROOT
BRANCH   4   7
ATOM      7  N   UNL     1       4.799   4.070  17.005  0.00  0.00    +0.000 NA
ATOM      8  C   UNL     1       4.615   4.151  15.539  0.00  0.00    +0.000 C 
BRANCH   7   9
ATOM      9  S   UNL     1       3.468   3.448  17.876  0.00  0.00    +0.000 S 
ATOM     10  O   UNL     1       2.443   3.043  16.939  0.00  0.00    +0.000 OA
ATOM     11  O   UNL     1       3.991   2.529  18.870  0.00  0.00    +0.000 OA
BRANCH   9  12
ATOM     12  C   UNL     1       2.837   4.888  18.719  0.00  0.00    +0.000 A 
ATOM     13  C   UNL     1       2.531   4.798  20.080  0.00  0.00    +0.000 A 
ATOM     14  C   UNL     1       2.037   5.920  20.755  0.00  0.00    +0.000 A 
ATOM     15  C   UNL     1       1.855   7.138  20.080  0.00  0.00    +0.000 A 
ATOM     16  C   UNL     1       2.191   7.216  18.717  0.00  0.00    +0.000 A 
ATOM     17  C   UNL     1       2.681   6.096  18.035  0.00  0.00    +0.000 A 
BRANCH  15  18
ATOM     18  C   UNL     1       1.301   8.352  20.791  0.00  0.00    +0.000 C 
ATOM     19  F   UNL     1       0.037   8.179  21.267  0.00  0.00    +0.000 F 
ATOM     20  F   UNL     1       2.056   8.724  21.863  0.00  0.00    +0.000 F 
ATOM     21  F   UNL     1       1.244   9.445  19.980  0.00  0.00    +0.000 F 
ENDBRANCH  15  18
ENDBRANCH   9  12
ENDBRANCH   7   9
ENDBRANCH   4   7
BRANCH   1  22
ATOM     22  C   UNL     1       8.531   8.209  18.768  0.00  0.00    +0.000 C 
BRANCH  22  23
ATOM     23  C   UNL     1       8.530   9.516  17.979  0.00  0.00    +0.000 C 
BRANCH  23  24
ATOM     24  C   UNL     1       8.561  10.773  18.849  0.00  0.00    +0.000 C 
BRANCH  24  25
ATOM     25  C   UNL     1       9.894  10.830  19.587  0.00  0.00    +0.000 C 
BRANCH  25  26
ATOM     26  C   UNL     1      10.764  12.022  19.193  0.00  0.00    +0.000 C 
ATOM     27  C   UNL     1      11.738  11.773  18.049  0.00  0.00    +0.000 C 
ATOM     28  C   UNL     1      12.242  11.814  19.459  0.00  0.00    +0.000 C 
BRANCH  26  29
ATOM     29  N   UNL     1      10.131  13.394  19.394  0.00  0.00    +0.000 NA
BRANCH  29  31
ATOM     30  C   UNL     1      10.098  14.613  21.641  0.00  0.00    +0.000 C 
ATOM     31  C   UNL     1      10.868  14.197  20.391  0.00  0.00    +0.000 C 
ENDBRANCH  29  31
BRANCH  29  32
ATOM     32  C   UNL     1       9.795  14.102  18.146  0.00  0.00    +0.000 C 
ATOM     33  C   UNL     1      10.526  15.405  17.851  0.00  0.00    +0.000 C 
ENDBRANCH  29  32
ENDBRANCH  26  29
ENDBRANCH  25  26
ENDBRANCH  24  25
ENDBRANCH  23  24
ENDBRANCH  22  23
ENDBRANCH   1  22
TORSDOF 12
ENDMDL
MODEL 3
REMARK VINA RESULT:      -7.4      0.817      1.506
REMARK  Name = 
REMARK  15 active torsions:
REMARK  status: ('A' for Active; 'I' for Inactive)
REMARK    1  A    between atoms: C_1  and  C_2
REMARK    2  A    between atoms: C_2  and  N_3
REMARK    3  A    between atoms: N_3  and  C_4
REMARK    4  A    between atoms: N_3  and  C_6
REMARK    5  A    between atoms: C_4  and  C_5
REMARK    6  A    between atoms: C_6  and  C_7
REMARK    7  A    between atoms: C_7  and  C_8
REMARK    8  A    between atoms: C_8  and  C_9
REMARK    9  A    between atoms: C_9  and  C_10
REMARK   10  A    between atoms: C_10  and  C_11
REMARK   11  A    between atoms: C_14  and  N_15
REMARK   12  A    between atoms: N_15  and  C_16
REMARK   13  A    between atoms: N_15  and  S_17
REMARK   14  A    between atoms: S_17  and  C_20
REMARK   15  A    between atoms: C_23  and  C_24
REMARK                            x       y       z     vdW  Elec       q    Type
REMARK                         _______ _______ _______ _____ _____    ______ ____
ROOT
ATOM      1  C   UNL     1       7.908   7.072  18.069  0.00  0.00    +0.000 C 
ATOM      2  C   UNL     1       7.646   5.875  18.994  0.00  0.00    +0.000 C 
ATOM      3  C   UNL     1       6.883   4.757  18.290  0.00  0.00    +0.000 C 
ATOM      4  C   UNL     1       5.579   5.264  17.659  0.00  0.00    +0.000 C 
ATOM      5  C   UNL     1       5.850   6.444  16.717  0.00  0.00    +0.000 C 
ATOM      6  C   UNL     1       6.602   7.569  17.427  0.00  0.00    +0.000 C 
ENDROOT
BRANCH   4   7
ATOM      7  N   UNL     1       4.855   4.124  16.999  0.00  0.00    +0.000 NA
ATOM      8  C   UNL     1       4.689   4.230  15.533  0.00  0.00    +0.000 C 
BRANCH   7   9
ATOM      9  S   UNL     1       3.506   3.506  17.845  0.00  0.00    +0.000 S 
ATOM     10  O   UNL     1       2.493   3.113  16.890  0.00  0.00    +0.000 OA
ATOM     11  O   UNL     1       4.006   2.577  18.843  0.00  0.00    +0.000 OA
BRANCH   9  12
ATOM     12  C   UNL     1       2.871   4.946  18.687  0.00  0.00    +0.000 A 
ATOM     13  C   UNL     1       2.652   4.884  20.065  0.00  0.00    +0.000 A 
ATOM     14  C   UNL     1       2.156   6.006  20.739  0.00  0.00    +0.000 A 
ATOM     15  C   UNL     1       1.886   7.196  20.044  0.00  0.00    +0.000 A 
ATOM     16  C   UNL     1       2.136   7.247  18.661  0.00  0.00    +0.000 A 
ATOM     17  C   UNL     1       2.627   6.126  17.981  0.00  0.00    +0.000 A 
BRANCH  15  18
ATOM     18  C   UNL     1       1.329   8.409  20.755  0.00  0.00    +0.000 C 
ATOM     19  F   UNL     1       2.092   8.827  21.804  0.00  0.00    +0.000 F 
ATOM     20  F   UNL     1       1.202   9.489  19.932  0.00  0.00    +0.000 F 
ATOM     21  F   UNL     1       0.088   8.184  21.267  0.00  0.00    +0.000 F 
ENDBRANCH  15  18
ENDBRANCH   9  12
ENDBRANCH   7   9
ENDBRANCH   4   7
BRANCH   1  22
ATOM     22  C   UNL     1       8.593   8.236  18.811  0.00  0.00    +0.000 C 
BRANCH  22  23
ATOM     23  C   UNL     1       8.501   9.588  18.108  0.00  0.00    +0.000 C 
BRANCH  23  24
ATOM     24  C   UNL     1       9.102  10.749  18.902  0.00  0.00    +0.000 C 
BRANCH  24  25
ATOM     25  C   UNL     1       9.134  11.990  18.017  0.00  0.00    +0.000 C 
BRANCH  25  26
ATOM     26  C   UNL     1      10.379  12.852  18.212  0.00  0.00    +0.000 C 
ATOM     27  C   UNL     1      11.130  13.218  16.938  0.00  0.00    +0.000 C 
ATOM     28  C   UNL     1      11.672  12.153  17.840  0.00  0.00    +0.000 C 
BRANCH  26  29
ATOM     29  N   UNL     1      10.336  13.813  19.395  0.00  0.00    +0.000 NA
BRANCH  29  31
ATOM     30  C   UNL     1      11.869  15.852  19.566  0.00  0.00    +0.000 C 
ATOM     31  C   UNL     1      11.675  14.347  19.717  0.00  0.00    +0.000 C 
ENDBRANCH  29  31
BRANCH  29  32
ATOM     32  C   UNL     1       9.262  14.819  19.328  0.00  0.00    +0.000 C 
ATOM     33  C   UNL     1       8.912  15.392  17.961  0.00  0.00    +0.000 C 
ENDBRANCH  29  32
ENDBRANCH  26  29
ENDBRANCH  25  26
ENDBRANCH  24  25
ENDBRANCH  23  24
ENDBRANCH  22  23
ENDBRANCH   1  22
TORSDOF 12
ENDMDL
MODEL 4
REMARK VINA RESULT:      -7.3      6.433      9.038
REMARK  Name = 
REMARK  15 active torsions:
REMARK  status: ('A' for Active; 'I' for Inactive)
REMARK    1  A    between atoms: C_1  and  C_2
REMARK    2  A    between atoms: C_2  and  N_3
REMARK    3  A    between atoms: N_3  and  C_4
REMARK    4  A    between atoms: N_3  and  C_6
REMARK    5  A    between atoms: C_4  and  C_5
REMARK    6  A    between atoms: C_6  and  C_7
REMARK    7  A    between atoms: C_7  and  C_8
REMARK    8  A    between atoms: C_8  and  C_9
REMARK    9  A    between atoms: C_9  and  C_10
REMARK   10  A    between atoms: C_10  and  C_11
REMARK   11  A    between atoms: C_14  and  N_15
REMARK   12  A    between atoms: N_15  and  C_16
REMARK   13  A    between atoms: N_15  and  S_17
REMARK   14  A    between atoms: S_17  and  C_20
REMARK   15  A    between atoms: C_23  and  C_24
REMARK                            x       y       z     vdW  Elec       q    Type
REMARK                         _______ _______ _______ _____ _____    ______ ____
ROOT
ATOM      1  C   UNL     1       1.449   8.632  18.655  0.00  0.00    +0.000 C 
ATOM      2  C   UNL     1       2.645   8.694  17.692  0.00  0.00    +0.000 C 
ATOM      3  C   UNL     1       3.282   7.326  17.473  0.00  0.00    +0.000 C 
ATOM      4  C   UNL     1       3.673   6.658  18.798  0.00  0.00    +0.000 C 
ATOM      5  C   UNL     1       2.470   6.576  19.746  0.00  0.00    +0.000 C 
ATOM      6  C   UNL     1       1.840   7.950  19.976  0.00  0.00    +0.000 C 
ENDROOT
BRANCH   4   7
ATOM      7  N   UNL     1       4.316   5.326  18.529  0.00  0.00    +0.000 NA
ATOM      8  C   UNL     1       3.877   4.213  19.398  0.00  0.00    +0.000 C 
BRANCH   7   9
ATOM      9  S   UNL     1       5.985   5.361  18.171  0.00  0.00    +0.000 S 
ATOM     10  O   UNL     1       6.441   6.733  18.197  0.00  0.00    +0.000 OA
ATOM     11  O   UNL     1       6.624   4.335  18.977  0.00  0.00    +0.000 OA
BRANCH   9  12
ATOM     12  C   UNL     1       6.037   4.846  16.463  0.00  0.00    +0.000 A 
ATOM     13  C   UNL     1       7.240   4.948  15.760  0.00  0.00    +0.000 A 
ATOM     14  C   UNL     1       7.296   4.546  14.420  0.00  0.00    +0.000 A 
ATOM     15  C   UNL     1       6.156   4.034  13.779  0.00  0.00    +0.000 A 
ATOM     16  C   UNL     1       4.960   3.917  14.510  0.00  0.00    +0.000 A 
ATOM     17  C   UNL     1       4.897   4.321  15.849  0.00  0.00    +0.000 A 
BRANCH  15  18
ATOM     18  C   UNL     1       6.195   3.617  12.327  0.00  0.00    +0.000 C 
ATOM     19  F   UNL     1       4.964   3.513  11.753  0.00  0.00    +0.000 F 
ATOM     20  F   UNL     1       6.898   4.487  11.548  0.00  0.00    +0.000 F 
ATOM     21  F   UNL     1       6.787   2.402  12.153  0.00  0.00    +0.000 F 
ENDBRANCH  15  18
ENDBRANCH   9  12
ENDBRANCH   7   9
ENDBRANCH   4   7
BRANCH   1  22
ATOM     22  C   UNL     1       0.870  10.029  18.947  0.00  0.00    +0.000 C 
BRANCH  22  23
ATOM     23  C   UNL     1      -0.654  10.089  19.022  0.00  0.00    +0.000 C 
BRANCH  23  24
ATOM     24  C   UNL     1      -1.218  11.504  19.164  0.00  0.00    +0.000 C 
BRANCH  24  25
ATOM     25  C   UNL     1      -0.290  12.319  20.059  0.00  0.00    +0.000 C 
BRANCH  25  26
ATOM     26  C   UNL     1      -0.966  12.852  21.320  0.00  0.00    +0.000 C 
ATOM     27  C   UNL     1      -1.169  14.361  21.367  0.00  0.00    +0.000 C 
ATOM     28  C   UNL     1      -0.069  13.734  22.167  0.00  0.00    +0.000 C 
BRANCH  26  29
ATOM     29  N   UNL     1      -1.964  11.909  21.982  0.00  0.00    +0.000 NA
BRANCH  29  31
ATOM     30  C   UNL     1      -0.367  10.084  22.790  0.00  0.00    +0.000 C 
ATOM     31  C   UNL     1      -1.365  11.189  23.124  0.00  0.00    +0.000 C 
ENDBRANCH  29  31
BRANCH  29  32
ATOM     32  C   UNL     1      -3.287  12.504  22.242  0.00  0.00    +0.000 C 
ATOM     33  C   UNL     1      -3.613  12.909  23.673  0.00  0.00    +0.000 C 
ENDBRANCH  29  32
ENDBRANCH  26  29
ENDBRANCH  25  26
ENDBRANCH  24  25
ENDBRANCH  23  24
ENDBRANCH  22  23
ENDBRANCH   1  22
TORSDOF 12
ENDMDL
MODEL 5
REMARK VINA RESULT:      -7.2      6.446     10.270
REMARK  Name = 
REMARK  15 active torsions:
REMARK  status: ('A' for Active; 'I' for Inactive)
REMARK    1  A    between atoms: C_1  and  C_2
REMARK    2  A    between atoms: C_2  and  N_3
REMARK    3  A    between atoms: N_3  and  C_4
REMARK    4  A    between atoms: N_3  and  C_6
REMARK    5  A    between atoms: C_4  and  C_5
REMARK    6  A    between atoms: C_6  and  C_7
REMARK    7  A    between atoms: C_7  and  C_8
REMARK    8  A    between atoms: C_8  and  C_9
REMARK    9  A    between atoms: C_9  and  C_10
REMARK   10  A    between atoms: C_10  and  C_11
REMARK   11  A    between atoms: C_14  and  N_15
REMARK   12  A    between atoms: N_15  and  C_16
REMARK   13  A    between atoms: N_15  and  S_17
REMARK   14  A    between atoms: S_17  and  C_20
REMARK   15  A    between atoms: C_23  and  C_24
REMARK                            x       y       z     vdW  Elec       q    Type
REMARK                         _______ _______ _______ _____ _____    ______ ____
ROOT
ATOM      1  C   UNL     1       1.152   8.889  19.213  0.00  0.00    +0.000 C 
ATOM      2  C   UNL     1       2.116   9.022  18.024  0.00  0.00    +0.000 C 
ATOM      3  C   UNL     1       2.612   7.667  17.529  0.00  0.00    +0.000 C 
ATOM      4  C   UNL     1       3.238   6.839  18.659  0.00  0.00    +0.000 C 
ATOM      5  C   UNL     1       2.262   6.688  19.832  0.00  0.00    +0.000 C 
ATOM      6  C   UNL     1       1.776   8.047  20.338  0.00  0.00    +0.000 C 
ENDROOT
BRANCH   4   7
ATOM      7  N   UNL     1       3.731   5.526  18.117  0.00  0.00    +0.000 NA
ATOM      8  C   UNL     1       2.966   4.332  18.534  0.00  0.00    +0.000 C 
BRANCH   7   9
ATOM      9  S   UNL     1       5.427   5.329  18.066  0.00  0.00    +0.000 S 
ATOM     10  O   UNL     1       6.054   6.621  18.231  0.00  0.00    +0.000 OA
ATOM     11  O   UNL     1       5.760   4.210  18.929  0.00  0.00    +0.000 OA
BRANCH   9  12
ATOM     12  C   UNL     1       5.719   4.840  16.375  0.00  0.00    +0.000 A 
ATOM     13  C   UNL     1       6.858   5.314  15.719  0.00  0.00    +0.000 A 
ATOM     14  C   UNL     1       7.101   4.938  14.392  0.00  0.00    +0.000 A 
ATOM     15  C   UNL     1       6.215   4.081  13.718  0.00  0.00    +0.000 A 
ATOM     16  C   UNL     1       5.087   3.596  14.403  0.00  0.00    +0.000 A 
ATOM     17  C   UNL     1       4.836   3.972  15.728  0.00  0.00    +0.000 A 
BRANCH  15  18
ATOM     18  C   UNL     1       6.453   3.684  12.279  0.00  0.00    +0.000 C 
ATOM     19  F   UNL     1       6.949   2.423  12.134  0.00  0.00    +0.000 F 
ATOM     20  F   UNL     1       5.317   3.727  11.527  0.00  0.00    +0.000 F 
ATOM     21  F   UNL     1       7.343   4.505  11.656  0.00  0.00    +0.000 F 
ENDBRANCH  15  18
ENDBRANCH   9  12
ENDBRANCH   7   9
ENDBRANCH   4   7
BRANCH   1  22
ATOM     22  C   UNL     1       0.729  10.262  19.770  0.00  0.00    +0.000 C 
BRANCH  22  23
ATOM     23  C   UNL     1      -0.770  10.546  19.707  0.00  0.00    +0.000 C 
BRANCH  23  24
ATOM     24  C   UNL     1      -1.404  10.266  18.343  0.00  0.00    +0.000 C 
BRANCH  24  25
ATOM     25  C   UNL     1      -2.482  11.311  18.076  0.00  0.00    +0.000 C 
BRANCH  25  26
ATOM     26  C   UNL     1      -3.502  10.886  17.022  0.00  0.00    +0.000 C 
ATOM     27  C   UNL     1      -3.132   9.649  16.213  0.00  0.00    +0.000 C 
ATOM     28  C   UNL     1      -2.996  11.008  15.598  0.00  0.00    +0.000 C 
BRANCH  26  29
ATOM     29  N   UNL     1      -4.958  11.196  17.351  0.00  0.00    +0.000 NA
BRANCH  29  31
ATOM     30  C   UNL     1      -6.520  10.132  19.072  0.00  0.00    +0.000 C 
ATOM     31  C   UNL     1      -5.264  10.946  18.774  0.00  0.00    +0.000 C 
ENDBRANCH  29  31
BRANCH  29  32
ATOM     32  C   UNL     1      -5.443  12.483  16.823  0.00  0.00    +0.000 C 
ATOM     33  C   UNL     1      -6.917  12.817  17.015  0.00  0.00    +0.000 C 
ENDBRANCH  29  32
ENDBRANCH  26  29
ENDBRANCH  25  26
ENDBRANCH  24  25
ENDBRANCH  23  24
ENDBRANCH  22  23
ENDBRANCH   1  22
TORSDOF 12
ENDMDL
MODEL 6
REMARK VINA RESULT:      -7.2      1.136      1.585
REMARK  Name = 
REMARK  15 active torsions:
REMARK  status: ('A' for Active; 'I' for Inactive)
REMARK    1  A    between atoms: C_1  and  C_2
REMARK    2  A    between atoms: C_2  and  N_3
REMARK    3  A    between atoms: N_3  and  C_4
REMARK    4  A    between atoms: N_3  and  C_6
REMARK    5  A    between atoms: C_4  and  C_5
REMARK    6  A    between atoms: C_6  and  C_7
REMARK    7  A    between atoms: C_7  and  C_8
REMARK    8  A    between atoms: C_8  and  C_9
REMARK    9  A    between atoms: C_9  and  C_10
REMARK   10  A    between atoms: C_10  and  C_11
REMARK   11  A    between atoms: C_14  and  N_15
REMARK   12  A    between atoms: N_15  and  C_16
REMARK   13  A    between atoms: N_15  and  S_17
REMARK   14  A    between atoms: S_17  and  C_20
REMARK   15  A    between atoms: C_23  and  C_24
REMARK                            x       y       z     vdW  Elec       q    Type
REMARK                         _______ _______ _______ _____ _____    ______ ____
ROOT
ATOM      1  C   UNL     1       8.235   7.369  18.314  0.00  0.00    +0.000 C 
ATOM      2  C   UNL     1       7.866   6.288  19.341  0.00  0.00    +0.000 C 
ATOM      3  C   UNL     1       7.095   5.133  18.711  0.00  0.00    +0.000 C 
ATOM      4  C   UNL     1       5.855   5.619  17.951  0.00  0.00    +0.000 C 
ATOM      5  C   UNL     1       6.232   6.680  16.910  0.00  0.00    +0.000 C 
ATOM      6  C   UNL     1       6.993   7.845  17.543  0.00  0.00    +0.000 C 
ENDROOT
BRANCH   4   7
ATOM      7  N   UNL     1       5.118   4.444  17.370  0.00  0.00    +0.000 NA
ATOM      8  C   UNL     1       5.068   4.384  15.894  0.00  0.00    +0.000 C 
BRANCH   7   9
ATOM      9  S   UNL     1       3.677   3.996  18.170  0.00  0.00    +0.000 S 
ATOM     10  O   UNL     1       2.779   3.389  17.213  0.00  0.00    +0.000 OA
ATOM     11  O   UNL     1       4.055   3.311  19.394  0.00  0.00    +0.000 OA
BRANCH   9  12
ATOM     12  C   UNL     1       2.958   5.569  18.606  0.00  0.00    +0.000 A 
ATOM     13  C   UNL     1       2.751   6.521  17.604  0.00  0.00    +0.000 A 
ATOM     14  C   UNL     1       2.186   7.760  17.931  0.00  0.00    +0.000 A 
ATOM     15  C   UNL     1       1.818   8.051  19.254  0.00  0.00    +0.000 A 
ATOM     16  C   UNL     1       2.012   7.072  20.245  0.00  0.00    +0.000 A 
ATOM     17  C   UNL     1       2.581   5.833  19.925  0.00  0.00    +0.000 A 
BRANCH  15  18
ATOM     18  C   UNL     1       1.228   9.392  19.626  0.00  0.00    +0.000 C 
ATOM     19  F   UNL     1       1.455   9.751  20.921  0.00  0.00    +0.000 F 
ATOM     20  F   UNL     1       1.717  10.412  18.865  0.00  0.00    +0.000 F 
ATOM     21  F   UNL     1      -0.125   9.424  19.466  0.00  0.00    +0.000 F 
ENDBRANCH  15  18
ENDBRANCH   9  12
ENDBRANCH   7   9
ENDBRANCH   4   7
BRANCH   1  22
ATOM     22  C   UNL     1       8.929   8.577  18.971  0.00  0.00    +0.000 C 
BRANCH  22  23
ATOM     23  C   UNL     1       8.602   9.927  18.338  0.00  0.00    +0.000 C 
BRANCH  23  24
ATOM     24  C   UNL     1       9.148  11.130  19.110  0.00  0.00    +0.000 C 
BRANCH  24  25
ATOM     25  C   UNL     1      10.550  11.447  18.602  0.00  0.00    +0.000 C 
BRANCH  25  26
ATOM     26  C   UNL     1      10.945  12.914  18.764  0.00  0.00    +0.000 C 
ATOM     27  C   UNL     1      12.307  13.160  19.401  0.00  0.00    +0.000 C 
ATOM     28  C   UNL     1      11.061  13.360  20.208  0.00  0.00    +0.000 C 
BRANCH  26  29
ATOM     29  N   UNL     1      10.396  13.864  17.706  0.00  0.00    +0.000 NA
BRANCH  29  31
ATOM     30  C   UNL     1       7.905  14.224  18.156  0.00  0.00    +0.000 C 
ATOM     31  C   UNL     1       9.338  14.739  18.250  0.00  0.00    +0.000 C 
ENDBRANCH  29  31
BRANCH  29  32
ATOM     32  C   UNL     1      11.426  14.551  16.906  0.00  0.00    +0.000 C 
ATOM     33  C   UNL     1      11.350  16.068  16.806  0.00  0.00    +0.000 C 
ENDBRANCH  29  32
ENDBRANCH  26  29
ENDBRANCH  25  26
ENDBRANCH  24  25
ENDBRANCH  23  24
ENDBRANCH  22  23
ENDBRANCH   1  22
TORSDOF 12
ENDMDL
MODEL 7
REMARK VINA RESULT:      -7.1      6.374      9.228
REMARK  Name = 
REMARK  15 active torsions:
REMARK  status: ('A' for Active; 'I' for Inactive)
REMARK    1  A    between atoms: C_1  and  C_2
REMARK    2  A    between atoms: C_2  and  N_3
REMARK    3  A    between atoms: N_3  and  C_4
REMARK    4  A    between atoms: N_3  and  C_6
REMARK    5  A    between atoms: C_4  and  C_5
REMARK    6  A    between atoms: C_6  and  C_7
REMARK    7  A    between atoms: C_7  and  C_8
REMARK    8  A    between atoms: C_8  and  C_9
REMARK    9  A    between atoms: C_9  and  C_10
REMARK   10  A    between atoms: C_10  and  C_11
REMARK   11  A    between atoms: C_14  and  N_15
REMARK   12  A    between atoms: N_15  and  C_16
REMARK   13  A    between atoms: N_15  and  S_17
REMARK   14  A    between atoms: S_17  and  C_20
REMARK   15  A    between atoms: C_23  and  C_24
REMARK                            x       y       z     vdW  Elec       q    Type
REMARK                         _______ _______ _______ _____ _____    ______ ____
ROOT
ATOM      1  C   UNL     1       1.336   8.620  19.110  0.00  0.00    +0.000 C 
ATOM      2  C   UNL     1       2.462   8.356  18.099  0.00  0.00    +0.000 C 
ATOM      3  C   UNL     1       2.807   6.874  17.995  0.00  0.00    +0.000 C 
ATOM      4  C   UNL     1       3.138   6.265  19.364  0.00  0.00    +0.000 C 
ATOM      5  C   UNL     1       2.000   6.511  20.362  0.00  0.00    +0.000 C 
ATOM      6  C   UNL     1       1.664   7.998  20.477  0.00  0.00    +0.000 C 
ENDROOT
BRANCH   4   7
ATOM      7  N   UNL     1       3.493   4.813  19.205  0.00  0.00    +0.000 NA
ATOM      8  C   UNL     1       2.657   3.860  19.967  0.00  0.00    +0.000 C 
BRANCH   7   9
ATOM      9  S   UNL     1       5.162   4.452  19.163  0.00  0.00    +0.000 S 
ATOM     10  O   UNL     1       5.902   5.604  19.628  0.00  0.00    +0.000 OA
ATOM     11  O   UNL     1       5.339   3.143  19.767  0.00  0.00    +0.000 OA
BRANCH   9  12
ATOM     12  C   UNL     1       5.495   4.312  17.415  0.00  0.00    +0.000 A 
ATOM     13  C   UNL     1       4.458   3.939  16.555  0.00  0.00    +0.000 A 
ATOM     14  C   UNL     1       4.704   3.827  15.181  0.00  0.00    +0.000 A 
ATOM     15  C   UNL     1       5.980   4.095  14.659  0.00  0.00    +0.000 A 
ATOM     16  C   UNL     1       7.004   4.492  15.537  0.00  0.00    +0.000 A 
ATOM     17  C   UNL     1       6.765   4.601  16.912  0.00  0.00    +0.000 A 
BRANCH  15  18
ATOM     18  C   UNL     1       6.266   3.957  13.181  0.00  0.00    +0.000 C 
ATOM     19  F   UNL     1       5.193   4.235  12.388  0.00  0.00    +0.000 F 
ATOM     20  F   UNL     1       7.266   4.781  12.759  0.00  0.00    +0.000 F 
ATOM     21  F   UNL     1       6.656   2.696  12.845  0.00  0.00    +0.000 F 
ENDBRANCH  15  18
ENDBRANCH   9  12
ENDBRANCH   7   9
ENDBRANCH   4   7
BRANCH   1  22
ATOM     22  C   UNL     1       1.057  10.126  19.283  0.00  0.00    +0.000 C 
BRANCH  22  23
ATOM     23  C   UNL     1      -0.385  10.474  19.644  0.00  0.00    +0.000 C 
BRANCH  23  24
ATOM     24  C   UNL     1      -0.557  11.861  20.265  0.00  0.00    +0.000 C 
BRANCH  24  25
ATOM     25  C   UNL     1      -0.982  11.701  21.721  0.00  0.00    +0.000 C 
BRANCH  25  26
ATOM     26  C   UNL     1      -2.101  12.651  22.142  0.00  0.00    +0.000 C 
ATOM     27  C   UNL     1      -1.928  13.304  23.508  0.00  0.00    +0.000 C 
ATOM     28  C   UNL     1      -2.892  12.170  23.342  0.00  0.00    +0.000 C 
BRANCH  26  29
ATOM     29  N   UNL     1      -2.799  13.391  21.007  0.00  0.00    +0.000 NA
BRANCH  29  31
ATOM     30  C   UNL     1      -4.434  12.259  19.400  0.00  0.00    +0.000 C 
ATOM     31  C   UNL     1      -4.162  12.873  20.770  0.00  0.00    +0.000 C 
ENDBRANCH  29  31
BRANCH  29  32
ATOM     32  C   UNL     1      -2.692  14.859  21.076  0.00  0.00    +0.000 C 
ATOM     33  C   UNL     1      -1.535  15.520  20.338  0.00  0.00    +0.000 C 
ENDBRANCH  29  32
ENDBRANCH  26  29
ENDBRANCH  25  26
ENDBRANCH  24  25
ENDBRANCH  23  24
ENDBRANCH  22  23
ENDBRANCH   1  22
TORSDOF 12
ENDMDL
MODEL 8
REMARK VINA RESULT:      -7.1      6.396      9.093
REMARK  Name = 
REMARK  15 active torsions:
REMARK  status: ('A' for Active; 'I' for Inactive)
REMARK    1  A    between atoms: C_1  and  C_2
REMARK    2  A    between atoms: C_2  and  N_3
REMARK    3  A    between atoms: N_3  and  C_4
REMARK    4  A    between atoms: N_3  and  C_6
REMARK    5  A    between atoms: C_4  and  C_5
REMARK    6  A    between atoms: C_6  and  C_7
REMARK    7  A    between atoms: C_7  and  C_8
REMARK    8  A    between atoms: C_8  and  C_9
REMARK    9  A    between atoms: C_9  and  C_10
REMARK   10  A    between atoms: C_10  and  C_11
REMARK   11  A    between atoms: C_14  and  N_15
REMARK   12  A    between atoms: N_15  and  C_16
REMARK   13  A    between atoms: N_15  and  S_17
REMARK   14  A    between atoms: S_17  and  C_20
REMARK   15  A    between atoms: C_23  and  C_24
REMARK                            x       y       z     vdW  Elec       q    Type
REMARK                         _______ _______ _______ _____ _____    ______ ____
ROOT
ATOM      1  C   UNL     1       1.166   8.687  19.556  0.00  0.00    +0.000 C 
ATOM      2  C   UNL     1       2.199   8.555  18.427  0.00  0.00    +0.000 C 
ATOM      3  C   UNL     1       2.543   7.100  18.127  0.00  0.00    +0.000 C 
ATOM      4  C   UNL     1       2.999   6.348  19.385  0.00  0.00    +0.000 C 
ATOM      5  C   UNL     1       1.953   6.462  20.500  0.00  0.00    +0.000 C 
ATOM      6  C   UNL     1       1.618   7.921  20.810  0.00  0.00    +0.000 C 
ENDROOT
BRANCH   4   7
ATOM      7  N   UNL     1       3.348   4.928  19.033  0.00  0.00    +0.000 NA
ATOM      8  C   UNL     1       2.442   3.892  19.574  0.00  0.00    +0.000 C 
BRANCH   7   9
ATOM      9  S   UNL     1       5.010   4.538  19.065  0.00  0.00    +0.000 S 
ATOM     10  O   UNL     1       5.749   5.676  19.563  0.00  0.00    +0.000 OA
ATOM     11  O   UNL     1       5.136   3.227  19.676  0.00  0.00    +0.000 OA
BRANCH   9  12
ATOM     12  C   UNL     1       5.417   4.392  17.334  0.00  0.00    +0.000 A 
ATOM     13  C   UNL     1       6.745   4.563  16.932  0.00  0.00    +0.000 A 
ATOM     14  C   UNL     1       7.079   4.450  15.578  0.00  0.00    +0.000 A 
ATOM     15  C   UNL     1       6.095   4.157  14.620  0.00  0.00    +0.000 A 
ATOM     16  C   UNL     1       4.769   3.964  15.046  0.00  0.00    +0.000 A 
ATOM     17  C   UNL     1       4.427   4.081  16.399  0.00  0.00    +0.000 A 
BRANCH  15  18
ATOM     18  C   UNL     1       6.438   4.053  13.151  0.00  0.00    +0.000 C 
ATOM     19  F   UNL     1       6.979   2.854  12.799  0.00  0.00    +0.000 F 
ATOM     20  F   UNL     1       5.353   4.225  12.344  0.00  0.00    +0.000 F 
ATOM     21  F   UNL     1       7.342   4.995  12.763  0.00  0.00    +0.000 F 
ENDBRANCH  15  18
ENDBRANCH   9  12
ENDBRANCH   7   9
ENDBRANCH   4   7
BRANCH   1  22
ATOM     22  C   UNL     1       0.894  10.159  19.920  0.00  0.00    +0.000 C 
BRANCH  22  23
ATOM     23  C   UNL     1      -0.287  10.379  20.862  0.00  0.00    +0.000 C 
BRANCH  23  24
ATOM     24  C   UNL     1      -0.804  11.819  20.892  0.00  0.00    +0.000 C 
BRANCH  24  25
ATOM     25  C   UNL     1      -0.966  12.255  22.344  0.00  0.00    +0.000 C 
BRANCH  25  26
ATOM     26  C   UNL     1      -2.257  13.026  22.614  0.00  0.00    +0.000 C 
ATOM     27  C   UNL     1      -3.285  12.303  23.474  0.00  0.00    +0.000 C 
ATOM     28  C   UNL     1      -3.487  12.395  21.993  0.00  0.00    +0.000 C 
BRANCH  26  29
ATOM     29  N   UNL     1      -2.117  14.543  22.675  0.00  0.00    +0.000 NA
BRANCH  29  31
ATOM     30  C   UNL     1      -1.153  15.265  24.930  0.00  0.00    +0.000 C 
ATOM     31  C   UNL     1      -0.931  14.954  23.454  0.00  0.00    +0.000 C 
ENDBRANCH  29  31
BRANCH  29  32
ATOM     32  C   UNL     1      -2.283  15.226  21.380  0.00  0.00    +0.000 C 
ATOM     33  C   UNL     1      -1.024  15.585  20.602  0.00  0.00    +0.000 C 
ENDBRANCH  29  32
ENDBRANCH  26  29
ENDBRANCH  25  26
ENDBRANCH  24  25
ENDBRANCH  23  24
ENDBRANCH  22  23
ENDBRANCH   1  22
TORSDOF 12
ENDMDL
MODEL 9
REMARK VINA RESULT:      -7.1      1.626      2.299
REMARK  Name = 
REMARK  15 active torsions:
REMARK  status: ('A' for Active; 'I' for Inactive)
REMARK    1  A    between atoms: C_1  and  C_2
REMARK    2  A    between atoms: C_2  and  N_3
REMARK    3  A    between atoms: N_3  and  C_4
REMARK    4  A    between atoms: N_3  and  C_6
REMARK    5  A    between atoms: C_4  and  C_5
REMARK    6  A    between atoms: C_6  and  C_7
REMARK    7  A    between atoms: C_7  and  C_8
REMARK    8  A    between atoms: C_8  and  C_9
REMARK    9  A    between atoms: C_9  and  C_10
REMARK   10  A    between atoms: C_10  and  C_11
REMARK   11  A    between atoms: C_14  and  N_15
REMARK   12  A    between atoms: N_15  and  C_16
REMARK   13  A    between atoms: N_15  and  S_17
REMARK   14  A    between atoms: S_17  and  C_20
REMARK   15  A    between atoms: C_23  and  C_24
REMARK                            x       y       z     vdW  Elec       q    Type
REMARK                         _______ _______ _______ _____ _____    ______ ____
ROOT
ATOM      1  C   UNL     1       7.475   6.550  17.896  0.00  0.00    +0.000 C 
ATOM      2  C   UNL     1       7.146   5.928  19.261  0.00  0.00    +0.000 C 
ATOM      3  C   UNL     1       6.038   4.883  19.167  0.00  0.00    +0.000 C 
ATOM      4  C   UNL     1       4.778   5.443  18.497  0.00  0.00    +0.000 C 
ATOM      5  C   UNL     1       5.108   6.040  17.123  0.00  0.00    +0.000 C 
ATOM      6  C   UNL     1       6.207   7.098  17.219  0.00  0.00    +0.000 C 
ENDROOT
BRANCH   4   7
ATOM      7  N   UNL     1       3.711   4.385  18.449  0.00  0.00    +0.000 NA
ATOM      8  C   UNL     1       3.411   3.835  17.109  0.00  0.00    +0.000 C 
BRANCH   7   9
ATOM      9  S   UNL     1       2.355   4.645  19.454  0.00  0.00    +0.000 S 
ATOM     10  O   UNL     1       1.211   3.968  18.883  0.00  0.00    +0.000 OA
ATOM     11  O   UNL     1       2.774   4.398  20.822  0.00  0.00    +0.000 OA
BRANCH   9  12
ATOM     12  C   UNL     1       2.051   6.393  19.267  0.00  0.00    +0.000 A 
ATOM     13  C   UNL     1       1.791   7.162  20.405  0.00  0.00    +0.000 A 
ATOM     14  C   UNL     1       1.552   8.535  20.273  0.00  0.00    +0.000 A 
ATOM     15  C   UNL     1       1.580   9.148  19.010  0.00  0.00    +0.000 A 
ATOM     16  C   UNL     1       1.867   8.362  17.880  0.00  0.00    +0.000 A 
ATOM     17  C   UNL     1       2.102   6.988  18.005  0.00  0.00    +0.000 A 
BRANCH  15  18
ATOM     18  C   UNL     1       1.303  10.625  18.850  0.00  0.00    +0.000 C 
ATOM     19  F   UNL     1       2.186  11.263  18.032  0.00  0.00    +0.000 F 
ATOM     20  F   UNL     1       0.067  10.876  18.333  0.00  0.00    +0.000 F 
ATOM     21  F   UNL     1       1.351  11.292  20.037  0.00  0.00    +0.000 F 
ENDBRANCH  15  18
ENDBRANCH   9  12
ENDBRANCH   7   9
ENDBRANCH   4   7
BRANCH   1  22
ATOM     22  C   UNL     1       8.525   7.671  18.011  0.00  0.00    +0.000 C 
BRANCH  22  23
ATOM     23  C   UNL     1       7.960   9.088  17.948  0.00  0.00    +0.000 C 
BRANCH  23  24
ATOM     24  C   UNL     1       8.660  10.083  18.875  0.00  0.00    +0.000 C 
BRANCH  24  25
ATOM     25  C   UNL     1       9.682  10.876  18.067  0.00  0.00    +0.000 C 
BRANCH  25  26
ATOM     26  C   UNL     1      10.332  12.016  18.848  0.00  0.00    +0.000 C 
ATOM     27  C   UNL     1      11.733  11.736  19.376  0.00  0.00    +0.000 C 
ATOM     28  C   UNL     1      10.564  11.701  20.312  0.00  0.00    +0.000 C 
BRANCH  26  29
ATOM     29  N   UNL     1       9.927  13.422  18.418  0.00  0.00    +0.000 NA
BRANCH  29  31
ATOM     30  C   UNL     1       7.759  14.705  17.981  0.00  0.00    +0.000 C 
ATOM     31  C   UNL     1       8.563  13.764  18.872  0.00  0.00    +0.000 C 
ENDBRANCH  29  31
BRANCH  29  32
ATOM     32  C   UNL     1      10.947  14.456  18.669  0.00  0.00    +0.000 C 
ATOM     33  C   UNL     1      10.828  15.272  19.949  0.00  0.00    +0.000 C 
ENDBRANCH  29  32
ENDBRANCH  26  29
ENDBRANCH  25  26
ENDBRANCH  24  25
ENDBRANCH  23  24
ENDBRANCH  22  23
ENDBRANCH   1  22
TORSDOF 12
ENDMDL
