MODEL 1
REMARK VINA RESULT:      -7.3      0.000      0.000
REMARK  Name = 
REMARK  9 active torsions:
REMARK  status: ('A' for Active; 'I' for Inactive)
REMARK    1  A    between atoms: C_1  and  C_2
REMARK    2  A    between atoms: C_2  and  O_3
REMARK    3  A    between atoms: O_3  and  C_4
REMARK    4  A    between atoms: C_9  and  C_10
REMARK    5  A    between atoms: C_10  and  C_11
REMARK    6  A    between atoms: C_10  and  N_21
REMARK    7  A    between atoms: C_11  and  C_12
REMARK    8  A    between atoms: N_14  and  C_15
REMARK    9  A    between atoms: C_22  and  C_23
REMARK                            x       y       z     vdW  Elec       q    Type
REMARK                         _______ _______ _______ _____ _____    ______ ____
ROOT
ATOM      1  C   UNL     1       3.683   5.576  17.827  0.00  0.00    +0.000 C 
ENDROOT
BRANCH   1   7
ATOM      2  C   UNL     1       2.370   6.241  19.971  0.00  0.00    +0.000 A 
ATOM      3  C   UNL     1       1.691   7.226  20.705  0.00  0.00    +0.000 A 
ATOM      4  C   UNL     1       1.358   8.444  20.121  0.00  0.00    +0.000 A 
ATOM      5  C   UNL     1       1.711   8.696  18.802  0.00  0.00    +0.000 A 
ATOM      6  C   UNL     1       2.442   7.748  18.088  0.00  0.00    +0.000 A 
ATOM      7  C   UNL     1       2.817   6.514  18.668  0.00  0.00    +0.000 A 
BRANCH   2   8
ATOM      8  O   UNL     1       2.640   5.011  20.508  0.00  0.00    +0.000 OA
BRANCH   8  10
ATOM      9  C   UNL     1       1.974   3.062  21.734  0.00  0.00    +0.000 C 
ATOM     10  C   UNL     1       1.498   4.271  20.951  0.00  0.00    +0.000 C 
ENDBRANCH   8  10
ENDBRANCH   2   8
ENDBRANCH   1   7
BRANCH   1  11
ATOM     11  N   UNL     1       3.576   4.194  18.309  0.00  0.00    +0.000 N 
ATOM     12  C   UNL     1       2.901   3.180  17.675  0.00  0.00    +0.000 C 
ATOM     13  C   UNL     1       2.884   1.885  18.447  0.00  0.00    +0.000 C 
ATOM     14  O   UNL     1       2.302   3.294  16.607  0.00  0.00    +0.000 OA
ATOM     15  H   UNL     1       3.923   4.023  19.234  0.00  0.00    +0.000 HD
ENDBRANCH   1  11
BRANCH   1  16
ATOM     16  C   UNL     1       5.100   6.077  17.506  0.00  0.00    +0.000 C 
BRANCH  16  17
ATOM     17  C   UNL     1       5.391   6.036  16.021  0.00  0.00    +0.000 C 
ATOM     18  O   UNL     1       5.103   6.963  15.265  0.00  0.00    +0.000 OA
ATOM     19  N   UNL     1       6.019   4.855  15.641  0.00  0.00    +0.000 N 
ATOM     20  H   UNL     1       5.902   4.071  16.273  0.00  0.00    +0.000 HD
BRANCH  19  21
ATOM     21  C   UNL     1       6.323   4.554  14.301  0.00  0.00    +0.000 A 
ATOM     22  C   UNL     1       5.577   3.642  13.560  0.00  0.00    +0.000 A 
ATOM     23  C   UNL     1       6.002   3.335  12.278  0.00  0.00    +0.000 A 
ATOM     24  N   UNL     1       7.101   3.870  11.708  0.00  0.00    +0.000 NA
ATOM     25  C   UNL     1       7.790   4.770  12.443  0.00  0.00    +0.000 A 
ATOM     26  C   UNL     1       7.428   5.168  13.718  0.00  0.00    +0.000 A 
ENDBRANCH  19  21
ENDBRANCH  16  17
ENDBRANCH   1  16
TORSDOF 7
ENDMDL
MODEL 2
REMARK VINA RESULT:      -7.3      1.807      3.235
REMARK  Name = 
REMARK  9 active torsions:
REMARK  status: ('A' for Active; 'I' for Inactive)
REMARK    1  A    between atoms: C_1  and  C_2
REMARK    2  A    between atoms: C_2  and  O_3
REMARK    3  A    between atoms: O_3  and  C_4
REMARK    4  A    between atoms: C_9  and  C_10
REMARK    5  A    between atoms: C_10  and  C_11
REMARK    6  A    between atoms: C_10  and  N_21
REMARK    7  A    between atoms: C_11  and  C_12
REMARK    8  A    between atoms: N_14  and  C_15
REMARK    9  A    between atoms: C_22  and  C_23
REMARK                            x       y       z     vdW  Elec       q    Type
REMARK                         _______ _______ _______ _____ _____    ______ ____
ROOT
ATOM      1  C   UNL     1       4.662   5.142  18.440  0.00  0.00    +0.000 C 
ENDROOT
BRANCH   1   7
ATOM      2  C   UNL     1       3.603   3.215  19.830  0.00  0.00    +0.000 A 
ATOM      3  C   UNL     1       2.758   2.814  20.875  0.00  0.00    +0.000 A 
ATOM      4  C   UNL     1       1.908   3.728  21.491  0.00  0.00    +0.000 A 
ATOM      5  C   UNL     1       1.904   5.052  21.078  0.00  0.00    +0.000 A 
ATOM      6  C   UNL     1       2.787   5.471  20.084  0.00  0.00    +0.000 A 
ATOM      7  C   UNL     1       3.681   4.568  19.463  0.00  0.00    +0.000 A 
BRANCH   2   8
ATOM      8  O   UNL     1       4.392   2.314  19.166  0.00  0.00    +0.000 OA
BRANCH   8  10
ATOM      9  C   UNL     1       2.737   2.070  17.449  0.00  0.00    +0.000 C 
ATOM     10  C   UNL     1       3.688   1.344  18.382  0.00  0.00    +0.000 C 
ENDBRANCH   8  10
ENDBRANCH   2   8
ENDBRANCH   1   7
BRANCH   1  11
ATOM     11  N   UNL     1       5.903   5.574  19.093  0.00  0.00    +0.000 N 
ATOM     12  C   UNL     1       7.168   5.168  18.746  0.00  0.00    +0.000 C 
ATOM     13  C   UNL     1       8.249   5.706  19.649  0.00  0.00    +0.000 C 
ATOM     14  O   UNL     1       7.431   4.393  17.829  0.00  0.00    +0.000 OA
ATOM     15  H   UNL     1       5.794   6.110  19.934  0.00  0.00    +0.000 HD
ENDBRANCH   1  11
BRANCH   1  16
ATOM     16  C   UNL     1       4.065   6.107  17.405  0.00  0.00    +0.000 C 
BRANCH  16  17
ATOM     17  C   UNL     1       4.843   6.094  16.106  0.00  0.00    +0.000 C 
ATOM     18  O   UNL     1       5.187   7.125  15.530  0.00  0.00    +0.000 OA
ATOM     19  N   UNL     1       5.118   4.801  15.672  0.00  0.00    +0.000 N 
ATOM     20  H   UNL     1       4.518   4.074  16.045  0.00  0.00    +0.000 HD
BRANCH  19  21
ATOM     21  C   UNL     1       5.766   4.531  14.452  0.00  0.00    +0.000 A 
ATOM     22  C   UNL     1       5.197   3.716  13.478  0.00  0.00    +0.000 A 
ATOM     23  C   UNL     1       5.943   3.427  12.347  0.00  0.00    +0.000 A 
ATOM     24  N   UNL     1       7.191   3.893  12.139  0.00  0.00    +0.000 NA
ATOM     25  C   UNL     1       7.706   4.701  13.089  0.00  0.00    +0.000 A 
ATOM     26  C   UNL     1       7.028   5.075  14.237  0.00  0.00    +0.000 A 
ENDBRANCH  19  21
ENDBRANCH  16  17
ENDBRANCH   1  16
TORSDOF 7
ENDMDL
MODEL 3
REMARK VINA RESULT:      -7.2      0.982      1.395
REMARK  Name = 
REMARK  9 active torsions:
REMARK  status: ('A' for Active; 'I' for Inactive)
REMARK    1  A    between atoms: C_1  and  C_2
REMARK    2  A    between atoms: C_2  and  O_3
REMARK    3  A    between atoms: O_3  and  C_4
REMARK    4  A    between atoms: C_9  and  C_10
REMARK    5  A    between atoms: C_10  and  C_11
REMARK    6  A    between atoms: C_10  and  N_21
REMARK    7  A    between atoms: C_11  and  C_12
REMARK    8  A    between atoms: N_14  and  C_15
REMARK    9  A    between atoms: C_22  and  C_23
REMARK                            x       y       z     vdW  Elec       q    Type
REMARK                         _______ _______ _______ _____ _____    ______ ____
ROOT
ATOM      1  C   UNL     1       4.267   5.397  17.786  0.00  0.00    +0.000 C 
ENDROOT
BRANCH   1   7
ATOM      2  C   UNL     1       2.789   6.177  19.779  0.00  0.00    +0.000 A 
ATOM      3  C   UNL     1       2.013   7.182  20.375  0.00  0.00    +0.000 A 
ATOM      4  C   UNL     1       1.650   8.319  19.659  0.00  0.00    +0.000 A 
ATOM      5  C   UNL     1       2.070   8.468  18.345  0.00  0.00    +0.000 A 
ATOM      6  C   UNL     1       2.895   7.504  17.767  0.00  0.00    +0.000 A 
ATOM      7  C   UNL     1       3.300   6.355  18.483  0.00  0.00    +0.000 A 
BRANCH   2   8
ATOM      8  O   UNL     1       3.092   5.020  20.446  0.00  0.00    +0.000 OA
BRANCH   8  10
ATOM      9  C   UNL     1       0.920   4.010  20.378  0.00  0.00    +0.000 C 
ATOM     10  C   UNL     1       2.047   4.496  21.271  0.00  0.00    +0.000 C 
ENDBRANCH   8  10
ENDBRANCH   2   8
ENDBRANCH   1   7
BRANCH   1  11
ATOM     11  N   UNL     1       3.955   4.003  18.123  0.00  0.00    +0.000 N 
ATOM     12  C   UNL     1       2.950   3.255  17.560  0.00  0.00    +0.000 C 
ATOM     13  C   UNL     1       2.804   1.881  18.164  0.00  0.00    +0.000 C 
ATOM     14  O   UNL     1       2.182   3.651  16.686  0.00  0.00    +0.000 OA
ATOM     15  H   UNL     1       4.440   3.622  18.913  0.00  0.00    +0.000 HD
ENDBRANCH   1  11
BRANCH   1  16
ATOM     16  C   UNL     1       5.751   5.792  17.830  0.00  0.00    +0.000 C 
BRANCH  16  17
ATOM     17  C   UNL     1       6.530   5.191  16.678  0.00  0.00    +0.000 C 
ATOM     18  O   UNL     1       7.658   4.721  16.816  0.00  0.00    +0.000 OA
ATOM     19  N   UNL     1       5.815   5.228  15.486  0.00  0.00    +0.000 N 
ATOM     20  H   UNL     1       5.067   5.912  15.441  0.00  0.00    +0.000 HD
BRANCH  19  21
ATOM     21  C   UNL     1       6.358   4.796  14.262  0.00  0.00    +0.000 A 
ATOM     22  C   UNL     1       7.449   5.429  13.672  0.00  0.00    +0.000 A 
ATOM     23  C   UNL     1       7.860   4.997  12.422  0.00  0.00    +0.000 A 
ATOM     24  N   UNL     1       7.261   3.997  11.744  0.00  0.00    +0.000 NA
ATOM     25  C   UNL     1       6.223   3.386  12.353  0.00  0.00    +0.000 A 
ATOM     26  C   UNL     1       5.758   3.721  13.613  0.00  0.00    +0.000 A 
ENDBRANCH  19  21
ENDBRANCH  16  17
ENDBRANCH   1  16
TORSDOF 7
ENDMDL
MODEL 4
REMARK VINA RESULT:      -7.2      1.825      2.851
REMARK  Name = 
REMARK  9 active torsions:
REMARK  status: ('A' for Active; 'I' for Inactive)
REMARK    1  A    between atoms: C_1  and  C_2
REMARK    2  A    between atoms: C_2  and  O_3
REMARK    3  A    between atoms: O_3  and  C_4
REMARK    4  A    between atoms: C_9  and  C_10
REMARK    5  A    between atoms: C_10  and  C_11
REMARK    6  A    between atoms: C_10  and  N_21
REMARK    7  A    between atoms: C_11  and  C_12
REMARK    8  A    between atoms: N_14  and  C_15
REMARK    9  A    between atoms: C_22  and  C_23
REMARK                            x       y       z     vdW  Elec       q    Type
REMARK                         _______ _______ _______ _____ _____    ______ ____
ROOT
ATOM      1  C   UNL     1       4.812   4.748  18.594  0.00  0.00    +0.000 C 
ENDROOT
BRANCH   1   7
ATOM      2  C   UNL     1       2.744   4.517  20.155  0.00  0.00    +0.000 A 
ATOM      3  C   UNL     1       1.707   5.133  20.871  0.00  0.00    +0.000 A 
ATOM      4  C   UNL     1       1.414   6.480  20.680  0.00  0.00    +0.000 A 
ATOM      5  C   UNL     1       2.163   7.227  19.781  0.00  0.00    +0.000 A 
ATOM      6  C   UNL     1       3.236   6.638  19.114  0.00  0.00    +0.000 A 
ATOM      7  C   UNL     1       3.571   5.279  19.312  0.00  0.00    +0.000 A 
BRANCH   2   8
ATOM      8  O   UNL     1       2.997   3.177  20.277  0.00  0.00    +0.000 OA
BRANCH   8  10
ATOM      9  C   UNL     1       1.306   2.547  18.700  0.00  0.00    +0.000 C 
ATOM     10  C   UNL     1       1.866   2.320  20.092  0.00  0.00    +0.000 C 
ENDBRANCH   8  10
ENDBRANCH   2   8
ENDBRANCH   1   7
BRANCH   1  11
ATOM     11  N   UNL     1       5.819   5.805  18.442  0.00  0.00    +0.000 N 
ATOM     12  C   UNL     1       7.178   5.628  18.535  0.00  0.00    +0.000 C 
ATOM     13  C   UNL     1       7.967   6.908  18.426  0.00  0.00    +0.000 C 
ATOM     14  O   UNL     1       7.735   4.553  18.747  0.00  0.00    +0.000 OA
ATOM     15  H   UNL     1       5.469   6.743  18.391  0.00  0.00    +0.000 HD
ENDBRANCH   1  11
BRANCH   1  16
ATOM     16  C   UNL     1       4.550   3.876  17.357  0.00  0.00    +0.000 C 
BRANCH  16  17
ATOM     17  C   UNL     1       5.095   4.508  16.093  0.00  0.00    +0.000 C 
ATOM     18  O   UNL     1       4.817   5.657  15.755  0.00  0.00    +0.000 OA
ATOM     19  N   UNL     1       5.937   3.646  15.397  0.00  0.00    +0.000 N 
ATOM     20  H   UNL     1       5.823   2.659  15.600  0.00  0.00    +0.000 HD
BRANCH  19  21
ATOM     21  C   UNL     1       6.507   3.982  14.155  0.00  0.00    +0.000 A 
ATOM     22  C   UNL     1       7.452   4.995  14.026  0.00  0.00    +0.000 A 
ATOM     23  C   UNL     1       7.892   5.323  12.753  0.00  0.00    +0.000 A 
ATOM     24  N   UNL     1       7.453   4.714  11.633  0.00  0.00    +0.000 NA
ATOM     25  C   UNL     1       6.555   3.719  11.793  0.00  0.00    +0.000 A 
ATOM     26  C   UNL     1       6.081   3.295  13.023  0.00  0.00    +0.000 A 
ENDBRANCH  19  21
ENDBRANCH  16  17
ENDBRANCH   1  16
TORSDOF 7
ENDMDL
MODEL 5
REMARK VINA RESULT:      -7.2      1.858      3.571
REMARK  Name = 
REMARK  9 active torsions:
REMARK  status: ('A' for Active; 'I' for Inactive)
REMARK    1  A    between atoms: C_1  and  C_2
REMARK    2  A    between atoms: C_2  and  O_3
REMARK    3  A    between atoms: O_3  and  C_4
REMARK    4  A    between atoms: C_9  and  C_10
REMARK    5  A    between atoms: C_10  and  C_11
REMARK    6  A    between atoms: C_10  and  N_21
REMARK    7  A    between atoms: C_11  and  C_12
REMARK    8  A    between atoms: N_14  and  C_15
REMARK    9  A    between atoms: C_22  and  C_23
REMARK                            x       y       z     vdW  Elec       q    Type
REMARK                         _______ _______ _______ _____ _____    ______ ____
ROOT
ATOM      1  C   UNL     1       4.932   3.729  18.651  0.00  0.00    +0.000 C 
ENDROOT
BRANCH   1   7
ATOM      2  C   UNL     1       2.754   4.821  19.564  0.00  0.00    +0.000 A 
ATOM      3  C   UNL     1       1.630   4.737  20.398  0.00  0.00    +0.000 A 
ATOM      4  C   UNL     1       1.524   3.727  21.349  0.00  0.00    +0.000 A 
ATOM      5  C   UNL     1       2.533   2.782  21.465  0.00  0.00    +0.000 A 
ATOM      6  C   UNL     1       3.623   2.820  20.596  0.00  0.00    +0.000 A 
ATOM      7  C   UNL     1       3.740   3.820  19.603  0.00  0.00    +0.000 A 
BRANCH   2   8
ATOM      8  O   UNL     1       2.908   5.850  18.674  0.00  0.00    +0.000 OA
BRANCH   8  10
ATOM      9  C   UNL     1       2.207   8.068  18.094  0.00  0.00    +0.000 C 
ATOM     10  C   UNL     1       2.691   7.160  19.210  0.00  0.00    +0.000 C 
ENDBRANCH   8  10
ENDBRANCH   2   8
ENDBRANCH   1   7
BRANCH   1  11
ATOM     11  N   UNL     1       5.661   5.002  18.603  0.00  0.00    +0.000 N 
ATOM     12  C   UNL     1       7.004   5.142  18.353  0.00  0.00    +0.000 C 
ATOM     13  C   UNL     1       7.497   6.562  18.456  0.00  0.00    +0.000 C 
ATOM     14  O   UNL     1       7.776   4.214  18.122  0.00  0.00    +0.000 OA
ATOM     15  H   UNL     1       5.150   5.813  18.901  0.00  0.00    +0.000 HD
ENDBRANCH   1  11
BRANCH   1  16
ATOM     16  C   UNL     1       4.662   3.050  17.300  0.00  0.00    +0.000 C 
BRANCH  16  17
ATOM     17  C   UNL     1       5.056   3.932  16.134  0.00  0.00    +0.000 C 
ATOM     18  O   UNL     1       4.550   5.035  15.938  0.00  0.00    +0.000 OA
ATOM     19  N   UNL     1       6.047   3.351  15.349  0.00  0.00    +0.000 N 
ATOM     20  H   UNL     1       6.135   2.344  15.424  0.00  0.00    +0.000 HD
BRANCH  19  21
ATOM     21  C   UNL     1       6.525   3.947  14.167  0.00  0.00    +0.000 A 
ATOM     22  C   UNL     1       6.155   3.489  12.906  0.00  0.00    +0.000 A 
ATOM     23  C   UNL     1       6.746   4.073  11.797  0.00  0.00    +0.000 A 
ATOM     24  N   UNL     1       7.661   5.060  11.873  0.00  0.00    +0.000 NA
ATOM     25  C   UNL     1       7.980   5.500  13.109  0.00  0.00    +0.000 A 
ATOM     26  C   UNL     1       7.421   5.006  14.275  0.00  0.00    +0.000 A 
ENDBRANCH  19  21
ENDBRANCH  16  17
ENDBRANCH   1  16
TORSDOF 7
ENDMDL
MODEL 6
REMARK VINA RESULT:      -7.1      2.628      6.498
REMARK  Name = 
REMARK  9 active torsions:
REMARK  status: ('A' for Active; 'I' for Inactive)
REMARK    1  A    between atoms: C_1  and  C_2
REMARK    2  A    between atoms: C_2  and  O_3
REMARK    3  A    between atoms: O_3  and  C_4
REMARK    4  A    between atoms: C_9  and  C_10
REMARK    5  A    between atoms: C_10  and  C_11
REMARK    6  A    between atoms: C_10  and  N_21
REMARK    7  A    between atoms: C_11  and  C_12
REMARK    8  A    between atoms: N_14  and  C_15
REMARK    9  A    between atoms: C_22  and  C_23
REMARK                            x       y       z     vdW  Elec       q    Type
REMARK                         _______ _______ _______ _____ _____    ______ ____
ROOT
ATOM      1  C   UNL     1       4.404   3.808  18.155  0.00  0.00    +0.000 C 
ENDROOT
BRANCH   1   7
ATOM      2  C   UNL     1       6.742   4.453  17.215  0.00  0.00    +0.000 A 
ATOM      3  C   UNL     1       7.569   4.666  16.102  0.00  0.00    +0.000 A 
ATOM      4  C   UNL     1       7.034   4.728  14.819  0.00  0.00    +0.000 A 
ATOM      5  C   UNL     1       5.669   4.564  14.634  0.00  0.00    +0.000 A 
ATOM      6  C   UNL     1       4.849   4.288  15.727  0.00  0.00    +0.000 A 
ATOM      7  C   UNL     1       5.373   4.192  17.037  0.00  0.00    +0.000 A 
BRANCH   2   8
ATOM      8  O   UNL     1       7.243   4.462  18.489  0.00  0.00    +0.000 OA
BRANCH   8  10
ATOM      9  C   UNL     1       7.849   6.780  18.415  0.00  0.00    +0.000 C 
ATOM     10  C   UNL     1       7.111   5.702  19.190  0.00  0.00    +0.000 C 
ENDBRANCH   8  10
ENDBRANCH   2   8
ENDBRANCH   1   7
BRANCH   1  11
ATOM     11  N   UNL     1       4.990   2.782  19.025  0.00  0.00    +0.000 N 
ATOM     12  C   UNL     1       4.423   2.296  20.177  0.00  0.00    +0.000 C 
ATOM     13  C   UNL     1       5.293   1.311  20.915  0.00  0.00    +0.000 C 
ATOM     14  O   UNL     1       3.336   2.650  20.629  0.00  0.00    +0.000 OA
ATOM     15  H   UNL     1       5.934   2.515  18.816  0.00  0.00    +0.000 HD
ENDBRANCH   1  11
BRANCH   1  16
ATOM     16  C   UNL     1       2.943   3.589  17.733  0.00  0.00    +0.000 C 
BRANCH  16  17
ATOM     17  C   UNL     1       2.105   4.835  17.928  0.00  0.00    +0.000 C 
ATOM     18  O   UNL     1       0.975   4.952  17.458  0.00  0.00    +0.000 OA
ATOM     19  N   UNL     1       2.760   5.793  18.695  0.00  0.00    +0.000 N 
ATOM     20  H   UNL     1       3.769   5.710  18.737  0.00  0.00    +0.000 HD
BRANCH  19  21
ATOM     21  C   UNL     1       2.212   7.064  18.951  0.00  0.00    +0.000 A 
ATOM     22  C   UNL     1       2.148   8.051  17.972  0.00  0.00    +0.000 A 
ATOM     23  C   UNL     1       1.680   9.304  18.334  0.00  0.00    +0.000 A 
ATOM     24  N   UNL     1       1.285   9.620  19.584  0.00  0.00    +0.000 NA
ATOM     25  C   UNL     1       1.335   8.634  20.505  0.00  0.00    +0.000 A 
ATOM     26  C   UNL     1       1.754   7.343  20.235  0.00  0.00    +0.000 A 
ENDBRANCH  19  21
ENDBRANCH  16  17
ENDBRANCH   1  16
TORSDOF 7
ENDMDL
MODEL 7
REMARK VINA RESULT:      -7.1      3.049      7.243
REMARK  Name = 
REMARK  9 active torsions:
REMARK  status: ('A' for Active; 'I' for Inactive)
REMARK    1  A    between atoms: C_1  and  C_2
REMARK    2  A    between atoms: C_2  and  O_3
REMARK    3  A    between atoms: O_3  and  C_4
REMARK    4  A    between atoms: C_9  and  C_10
REMARK    5  A    between atoms: C_10  and  C_11
REMARK    6  A    between atoms: C_10  and  N_21
REMARK    7  A    between atoms: C_11  and  C_12
REMARK    8  A    between atoms: N_14  and  C_15
REMARK    9  A    between atoms: C_22  and  C_23
REMARK                            x       y       z     vdW  Elec       q    Type
REMARK                         _______ _______ _______ _____ _____    ______ ____
ROOT
ATOM      1  C   UNL     1       4.099   6.433  18.106  0.00  0.00    +0.000 C 
ENDROOT
BRANCH   1   7
ATOM      2  C   UNL     1       6.313   5.125  17.716  0.00  0.00    +0.000 A 
ATOM      3  C   UNL     1       7.164   4.445  16.832  0.00  0.00    +0.000 A 
ATOM      4  C   UNL     1       6.951   4.497  15.458  0.00  0.00    +0.000 A 
ATOM      5  C   UNL     1       5.878   5.219  14.954  0.00  0.00    +0.000 A 
ATOM      6  C   UNL     1       4.991   5.843  15.830  0.00  0.00    +0.000 A 
ATOM      7  C   UNL     1       5.169   5.781  17.231  0.00  0.00    +0.000 A 
BRANCH   2   8
ATOM      8  O   UNL     1       6.552   5.143  19.064  0.00  0.00    +0.000 OA
BRANCH   8  10
ATOM      9  C   UNL     1       8.059   6.964  18.666  0.00  0.00    +0.000 C 
ATOM     10  C   UNL     1       7.814   5.690  19.455  0.00  0.00    +0.000 C 
ENDBRANCH   8  10
ENDBRANCH   2   8
ENDBRANCH   1   7
BRANCH   1  11
ATOM     11  N   UNL     1       3.490   5.448  19.007  0.00  0.00    +0.000 N 
ATOM     12  C   UNL     1       2.607   4.465  18.633  0.00  0.00    +0.000 C 
ATOM     13  C   UNL     1       2.075   3.654  19.786  0.00  0.00    +0.000 C 
ATOM     14  O   UNL     1       2.215   4.273  17.484  0.00  0.00    +0.000 OA
ATOM     15  H   UNL     1       3.645   5.593  19.987  0.00  0.00    +0.000 HD
ENDBRANCH   1  11
BRANCH   1  16
ATOM     16  C   UNL     1       3.133   7.386  17.387  0.00  0.00    +0.000 C 
BRANCH  16  17
ATOM     17  C   UNL     1       2.282   8.171  18.364  0.00  0.00    +0.000 C 
ATOM     18  O   UNL     1       2.166   7.851  19.545  0.00  0.00    +0.000 OA
ATOM     19  N   UNL     1       1.681   9.274  17.767  0.00  0.00    +0.000 N 
ATOM     20  H   UNL     1       1.594   9.236  16.757  0.00  0.00    +0.000 HD
BRANCH  19  21
ATOM     21  C   UNL     1       0.785  10.114  18.454  0.00  0.00    +0.000 A 
ATOM     22  C   UNL     1       1.212  11.008  19.431  0.00  0.00    +0.000 A 
ATOM     23  C   UNL     1       0.253  11.729  20.124  0.00  0.00    +0.000 A 
ATOM     24  N   UNL     1      -1.072  11.612  19.904  0.00  0.00    +0.000 NA
ATOM     25  C   UNL     1      -1.453  10.756  18.932  0.00  0.00    +0.000 A 
ATOM     26  C   UNL     1      -0.572  10.016  18.163  0.00  0.00    +0.000 A 
ENDBRANCH  19  21
ENDBRANCH  16  17
ENDBRANCH   1  16
TORSDOF 7
ENDMDL
MODEL 8
REMARK VINA RESULT:      -7.1      3.155      7.271
REMARK  Name = 
REMARK  9 active torsions:
REMARK  status: ('A' for Active; 'I' for Inactive)
REMARK    1  A    between atoms: C_1  and  C_2
REMARK    2  A    between atoms: C_2  and  O_3
REMARK    3  A    between atoms: O_3  and  C_4
REMARK    4  A    between atoms: C_9  and  C_10
REMARK    5  A    between atoms: C_10  and  C_11
REMARK    6  A    between atoms: C_10  and  N_21
REMARK    7  A    between atoms: C_11  and  C_12
REMARK    8  A    between atoms: N_14  and  C_15
REMARK    9  A    between atoms: C_22  and  C_23
REMARK                            x       y       z     vdW  Elec       q    Type
REMARK                         _______ _______ _______ _____ _____    ______ ____
ROOT
ATOM      1  C   UNL     1       3.093   6.289  18.266  0.00  0.00    +0.000 C 
ENDROOT
BRANCH   1   7
ATOM      2  C   UNL     1       3.058   3.809  17.482  0.00  0.00    +0.000 A 
ATOM      3  C   UNL     1       2.656   2.485  17.711  0.00  0.00    +0.000 A 
ATOM      4  C   UNL     1       1.735   2.184  18.710  0.00  0.00    +0.000 A 
ATOM      5  C   UNL     1       1.216   3.202  19.498  0.00  0.00    +0.000 A 
ATOM      6  C   UNL     1       1.659   4.512  19.319  0.00  0.00    +0.000 A 
ATOM      7  C   UNL     1       2.616   4.839  18.330  0.00  0.00    +0.000 A 
BRANCH   2   8
ATOM      8  O   UNL     1       3.907   4.130  16.457  0.00  0.00    +0.000 OA
BRANCH   8  10
ATOM      9  C   UNL     1       5.920   3.810  15.196  0.00  0.00    +0.000 C 
ATOM     10  C   UNL     1       5.139   3.401  16.431  0.00  0.00    +0.000 C 
ENDBRANCH   8  10
ENDBRANCH   2   8
ENDBRANCH   1   7
BRANCH   1  11
ATOM     11  N   UNL     1       4.559   6.355  18.223  0.00  0.00    +0.000 N 
ATOM     12  C   UNL     1       5.304   6.805  17.161  0.00  0.00    +0.000 C 
ATOM     13  C   UNL     1       6.792   6.674  17.364  0.00  0.00    +0.000 C 
ATOM     14  O   UNL     1       4.840   7.225  16.103  0.00  0.00    +0.000 OA
ATOM     15  H   UNL     1       5.041   5.920  18.986  0.00  0.00    +0.000 HD
ENDBRANCH   1  11
BRANCH   1  16
ATOM     16  C   UNL     1       2.396   7.269  19.222  0.00  0.00    +0.000 C 
BRANCH  16  17
ATOM     17  C   UNL     1       1.930   8.520  18.508  0.00  0.00    +0.000 C 
ATOM     18  O   UNL     1       2.262   8.786  17.354  0.00  0.00    +0.000 OA
ATOM     19  N   UNL     1       1.091   9.296  19.302  0.00  0.00    +0.000 N 
ATOM     20  H   UNL     1       1.163   9.140  20.301  0.00  0.00    +0.000 HD
BRANCH  19  21
ATOM     21  C   UNL     1       0.590  10.542  18.884  0.00  0.00    +0.000 A 
ATOM     22  C   UNL     1       1.359  11.701  18.930  0.00  0.00    +0.000 A 
ATOM     23  C   UNL     1       0.756  12.902  18.588  0.00  0.00    +0.000 A 
ATOM     24  N   UNL     1      -0.534  13.008  18.214  0.00  0.00    +0.000 NA
ATOM     25  C   UNL     1      -1.247  11.863  18.155  0.00  0.00    +0.000 A 
ATOM     26  C   UNL     1      -0.728  10.613  18.443  0.00  0.00    +0.000 A 
ENDBRANCH  19  21
ENDBRANCH  16  17
ENDBRANCH   1  16
TORSDOF 7
ENDMDL
MODEL 9
REMARK VINA RESULT:      -7.1      1.351      1.671
REMARK  Name = 
REMARK  9 active torsions:
REMARK  status: ('A' for Active; 'I' for Inactive)
REMARK    1  A    between atoms: C_1  and  C_2
REMARK    2  A    between atoms: C_2  and  O_3
REMARK    3  A    between atoms: O_3  and  C_4
REMARK    4  A    between atoms: C_9  and  C_10
REMARK    5  A    between atoms: C_10  and  C_11
REMARK    6  A    between atoms: C_10  and  N_21
REMARK    7  A    between atoms: C_11  and  C_12
REMARK    8  A    between atoms: N_14  and  C_15
REMARK    9  A    between atoms: C_22  and  C_23
REMARK                            x       y       z     vdW  Elec       q    Type
REMARK                         _______ _______ _______ _____ _____    ______ ____
ROOT
ATOM      1  C   UNL     1       4.218   5.164  17.669  0.00  0.00    +0.000 C 
ENDROOT
BRANCH   1   7
ATOM      2  C   UNL     1       2.750   6.239  19.527  0.00  0.00    +0.000 A 
ATOM      3  C   UNL     1       2.078   7.367  20.022  0.00  0.00    +0.000 A 
ATOM      4  C   UNL     1       1.899   8.494  19.227  0.00  0.00    +0.000 A 
ATOM      5  C   UNL     1       2.402   8.511  17.933  0.00  0.00    +0.000 A 
ATOM      6  C   UNL     1       3.127   7.420  17.457  0.00  0.00    +0.000 A 
ATOM      7  C   UNL     1       3.346   6.274  18.255  0.00  0.00    +0.000 A 
BRANCH   2   8
ATOM      8  O   UNL     1       2.870   5.096  20.271  0.00  0.00    +0.000 OA
BRANCH   8  10
ATOM      9  C   UNL     1       1.846   3.297  21.481  0.00  0.00    +0.000 C 
ATOM     10  C   UNL     1       1.719   4.747  21.047  0.00  0.00    +0.000 C 
ENDBRANCH   8  10
ENDBRANCH   2   8
ENDBRANCH   1   7
BRANCH   1  11
ATOM     11  N   UNL     1       3.594   3.851  17.865  0.00  0.00    +0.000 N 
ATOM     12  C   UNL     1       4.082   2.850  18.669  0.00  0.00    +0.000 C 
ATOM     13  C   UNL     1       3.279   1.575  18.607  0.00  0.00    +0.000 C 
ATOM     14  O   UNL     1       5.106   2.926  19.343  0.00  0.00    +0.000 OA
ATOM     15  H   UNL     1       2.820   3.638  17.264  0.00  0.00    +0.000 HD
ENDBRANCH   1  11
BRANCH   1  16
ATOM     16  C   UNL     1       5.721   5.257  17.977  0.00  0.00    +0.000 C 
BRANCH  16  17
ATOM     17  C   UNL     1       6.568   4.879  16.780  0.00  0.00    +0.000 C 
ATOM     18  O   UNL     1       7.757   4.581  16.879  0.00  0.00    +0.000 OA
ATOM     19  N   UNL     1       5.840   4.899  15.595  0.00  0.00    +0.000 N 
ATOM     20  H   UNL     1       4.995   5.459  15.606  0.00  0.00    +0.000 HD
BRANCH  19  21
ATOM     21  C   UNL     1       6.428   4.656  14.340  0.00  0.00    +0.000 A 
ATOM     22  C   UNL     1       7.479   5.428  13.854  0.00  0.00    +0.000 A 
ATOM     23  C   UNL     1       7.935   5.179  12.569  0.00  0.00    +0.000 A 
ATOM     24  N   UNL     1       7.416   4.230  11.764  0.00  0.00    +0.000 NA
ATOM     25  C   UNL     1       6.415   3.482  12.273  0.00  0.00    +0.000 A 
ATOM     26  C   UNL     1       5.912   3.630  13.554  0.00  0.00    +0.000 A 
ENDBRANCH  19  21
ENDBRANCH  16  17
ENDBRANCH   1  16
TORSDOF 7
ENDMDL
