MODEL 1
REMARK VINA RESULT:      -8.4      0.000      0.000
REMARK  Name = 
REMARK  3 active torsions:
REMARK  status: ('A' for Active; 'I' for Inactive)
REMARK    1  A    between atoms: S_2  and  C_4
REMARK    2  A    between atoms: S_2  and  C_11
REMARK    3  A    between atoms: C_19  and  C_20
REMARK                            x       y       z     vdW  Elec       q    Type
REMARK                         _______ _______ _______ _____ _____    ______ ____
ROOT
ATOM      1  C   UNL     1       4.023   5.656  18.102  0.00  0.00    +0.000 A 
ATOM      2  S   UNL     1       4.437   7.061  17.219  0.00  0.00    +0.000 S 
ATOM      3  C   UNL     1       3.155   7.949  17.872  0.00  0.00    +0.000 A 
ATOM      4  N   UNL     1       2.934   9.213  17.449  0.00  0.00    +0.000 NA
ATOM      5  C   UNL     1       1.899   9.823  18.051  0.00  0.00    +0.000 A 
ATOM      6  C   UNL     1       1.128   9.271  19.051  0.00  0.00    +0.000 A 
ATOM      7  C   UNL     1       1.418   7.976  19.481  0.00  0.00    +0.000 A 
ATOM      8  C   UNL     1       2.437   7.240  18.830  0.00  0.00    +0.000 A 
ATOM      9  C   UNL     1       2.899   5.858  18.921  0.00  0.00    +0.000 A 
ENDROOT
BRANCH   9  10
ATOM     10  C   UNL     1       2.301   4.770  19.738  0.00  0.00    +0.000 A 
ATOM     11  C   UNL     1       2.683   4.625  21.088  0.00  0.00    +0.000 A 
ATOM     12  C   UNL     1       2.238   3.567  21.887  0.00  0.00    +0.000 A 
ATOM     13  C   UNL     1       1.281   2.690  21.403  0.00  0.00    +0.000 A 
ATOM     14  C   UNL     1       0.817   2.845  20.101  0.00  0.00    +0.000 A 
ATOM     15  C   UNL     1       1.361   3.834  19.257  0.00  0.00    +0.000 A 
ATOM     16 CL   UNL     1       0.855   3.733  17.603  0.00  0.00    +0.000 Cl
ENDBRANCH   9  10
BRANCH   1  18
ATOM     17  O   UNL     1       4.207   3.103  17.807  0.00  0.00    +0.000 OA
ATOM     18  S   UNL     1       5.091   4.252  17.793  0.00  0.00    +0.000 S 
ATOM     19  O   UNL     1       6.166   4.386  18.758  0.00  0.00    +0.000 OA
BRANCH  18  20
ATOM     20  C   UNL     1       5.863   4.309  16.187  0.00  0.00    +0.000 A 
ATOM     21  C   UNL     1       7.091   4.953  16.031  0.00  0.00    +0.000 A 
ATOM     22  C   UNL     1       7.622   5.109  14.746  0.00  0.00    +0.000 A 
ATOM     23  C   UNL     1       6.915   4.645  13.636  0.00  0.00    +0.000 A 
ATOM     24 CL   UNL     1       7.553   4.883  12.057  0.00  0.00    +0.000 Cl
ATOM     25  C   UNL     1       5.683   4.011  13.794  0.00  0.00    +0.000 A 
ATOM     26  C   UNL     1       5.151   3.842  15.072  0.00  0.00    +0.000 A 
ENDBRANCH  18  20
ENDBRANCH   1  18
TORSDOF 3
ENDMDL
MODEL 2
REMARK VINA RESULT:      -7.2      7.343     10.093
REMARK  Name = 
REMARK  3 active torsions:
REMARK  status: ('A' for Active; 'I' for Inactive)
REMARK    1  A    between atoms: S_2  and  C_4
REMARK    2  A    between atoms: S_2  and  C_11
REMARK    3  A    between atoms: C_19  and  C_20
REMARK                            x       y       z     vdW  Elec       q    Type
REMARK                         _______ _______ _______ _____ _____    ______ ____
ROOT
ATOM      1  C   UNL     1      -3.000  12.626  20.093  0.00  0.00    +0.000 A 
ATOM      2  S   UNL     1      -3.659  13.339  21.501  0.00  0.00    +0.000 S 
ATOM      3  C   UNL     1      -5.206  12.736  21.183  0.00  0.00    +0.000 A 
ATOM      4  N   UNL     1      -6.232  13.066  21.997  0.00  0.00    +0.000 NA
ATOM      5  C   UNL     1      -7.409  12.514  21.653  0.00  0.00    +0.000 A 
ATOM      6  C   UNL     1      -7.597  11.644  20.601  0.00  0.00    +0.000 A 
ATOM      7  C   UNL     1      -6.499  11.304  19.810  0.00  0.00    +0.000 A 
ATOM      8  C   UNL     1      -5.247  11.917  20.059  0.00  0.00    +0.000 A 
ATOM      9  C   UNL     1      -3.961  11.903  19.367  0.00  0.00    +0.000 A 
ENDROOT
BRANCH   9  10
ATOM     10  C   UNL     1      -3.654  11.246  18.070  0.00  0.00    +0.000 A 
ATOM     11  C   UNL     1      -2.599  10.312  17.998  0.00  0.00    +0.000 A 
ATOM     12  C   UNL     1      -2.190   9.729  16.794  0.00  0.00    +0.000 A 
ATOM     13  C   UNL     1      -2.914   9.956  15.635  0.00  0.00    +0.000 A 
ATOM     14  C   UNL     1      -4.011  10.809  15.679  0.00  0.00    +0.000 A 
ATOM     15  C   UNL     1      -4.345  11.493  16.865  0.00  0.00    +0.000 A 
ATOM     16 CL   UNL     1      -5.576  12.698  16.685  0.00  0.00    +0.000 Cl
ENDBRANCH   9  10
BRANCH   1  18
ATOM     17  O   UNL     1      -0.892  13.847  20.932  0.00  0.00    +0.000 OA
ATOM     18  S   UNL     1      -1.256  12.953  19.850  0.00  0.00    +0.000 S 
ATOM     19  O   UNL     1      -1.148  13.367  18.464  0.00  0.00    +0.000 OA
BRANCH  18  20
ATOM     20  C   UNL     1      -0.248  11.491  20.007  0.00  0.00    +0.000 A 
ATOM     21  C   UNL     1       0.645  11.153  18.988  0.00  0.00    +0.000 A 
ATOM     22  C   UNL     1       1.331   9.935  19.058  0.00  0.00    +0.000 A 
ATOM     23  C   UNL     1       1.102   9.064  20.123  0.00  0.00    +0.000 A 
ATOM     24 CL   UNL     1       1.914   7.549  20.177  0.00  0.00    +0.000 Cl
ATOM     25  C   UNL     1       0.201   9.399  21.134  0.00  0.00    +0.000 A 
ATOM     26  C   UNL     1      -0.479  10.616  21.078  0.00  0.00    +0.000 A 
ENDBRANCH  18  20
ENDBRANCH   1  18
TORSDOF 3
ENDMDL
MODEL 3
REMARK VINA RESULT:      -7.2      6.124      8.463
REMARK  Name = 
REMARK  3 active torsions:
REMARK  status: ('A' for Active; 'I' for Inactive)
REMARK    1  A    between atoms: S_2  and  C_4
REMARK    2  A    between atoms: S_2  and  C_11
REMARK    3  A    between atoms: C_19  and  C_20
REMARK                            x       y       z     vdW  Elec       q    Type
REMARK                         _______ _______ _______ _____ _____    ______ ____
ROOT
ATOM      1  C   UNL     1      -0.679  11.830  19.960  0.00  0.00    +0.000 A 
ATOM      2  S   UNL     1      -2.083  12.793  19.802  0.00  0.00    +0.000 S 
ATOM      3  C   UNL     1      -2.788  11.729  18.694  0.00  0.00    +0.000 A 
ATOM      4  N   UNL     1      -3.977  12.040  18.132  0.00  0.00    +0.000 NA
ATOM      5  C   UNL     1      -4.445  11.111  17.281  0.00  0.00    +0.000 A 
ATOM      6  C   UNL     1      -3.831   9.908  17.007  0.00  0.00    +0.000 A 
ATOM      7  C   UNL     1      -2.623   9.614  17.641  0.00  0.00    +0.000 A 
ATOM      8  C   UNL     1      -2.026  10.585  18.481  0.00  0.00    +0.000 A 
ATOM      9  C   UNL     1      -0.742  10.669  19.171  0.00  0.00    +0.000 A 
ENDROOT
BRANCH   9  10
ATOM     10  C   UNL     1       0.383   9.701  19.084  0.00  0.00    +0.000 A 
ATOM     11  C   UNL     1       1.206   9.696  17.938  0.00  0.00    +0.000 A 
ATOM     12  C   UNL     1       2.218   8.750  17.743  0.00  0.00    +0.000 A 
ATOM     13  C   UNL     1       2.535   7.859  18.754  0.00  0.00    +0.000 A 
ATOM     14  C   UNL     1       1.800   7.883  19.933  0.00  0.00    +0.000 A 
ATOM     15  C   UNL     1       0.699   8.751  20.077  0.00  0.00    +0.000 A 
ATOM     16 CL   UNL     1      -0.256   8.482  21.498  0.00  0.00    +0.000 Cl
ENDBRANCH   9  10
BRANCH   1  18
ATOM     17  O   UNL     1       1.033  11.358  21.827  0.00  0.00    +0.000 OA
ATOM     18  S   UNL     1       0.551  12.500  21.076  0.00  0.00    +0.000 S 
ATOM     19  O   UNL     1      -0.113  13.608  21.735  0.00  0.00    +0.000 OA
BRANCH  18  20
ATOM     20  C   UNL     1       1.950  13.204  20.223  0.00  0.00    +0.000 A 
ATOM     21  C   UNL     1       2.901  13.935  20.937  0.00  0.00    +0.000 A 
ATOM     22  C   UNL     1       3.919  14.594  20.241  0.00  0.00    +0.000 A 
ATOM     23  C   UNL     1       3.964  14.538  18.847  0.00  0.00    +0.000 A 
ATOM     24 CL   UNL     1       5.191  15.391  17.997  0.00  0.00    +0.000 Cl
ATOM     25  C   UNL     1       3.006  13.815  18.135  0.00  0.00    +0.000 A 
ATOM     26  C   UNL     1       1.993  13.146  18.823  0.00  0.00    +0.000 A 
ENDBRANCH  18  20
ENDBRANCH   1  18
TORSDOF 3
ENDMDL
MODEL 4
REMARK VINA RESULT:      -7.1      5.128      7.735
REMARK  Name = 
REMARK  3 active torsions:
REMARK  status: ('A' for Active; 'I' for Inactive)
REMARK    1  A    between atoms: S_2  and  C_4
REMARK    2  A    between atoms: S_2  and  C_11
REMARK    3  A    between atoms: C_19  and  C_20
REMARK                            x       y       z     vdW  Elec       q    Type
REMARK                         _______ _______ _______ _____ _____    ______ ____
ROOT
ATOM      1  C   UNL     1       0.532  11.562  20.331  0.00  0.00    +0.000 A 
ATOM      2  S   UNL     1       1.787  12.563  20.920  0.00  0.00    +0.000 S 
ATOM      3  C   UNL     1       1.261  13.893  20.020  0.00  0.00    +0.000 A 
ATOM      4  N   UNL     1       1.973  15.041  20.045  0.00  0.00    +0.000 NA
ATOM      5  C   UNL     1       1.449  16.032  19.303  0.00  0.00    +0.000 A 
ATOM      6  C   UNL     1       0.267  15.953  18.599  0.00  0.00    +0.000 A 
ATOM      7  C   UNL     1      -0.453  14.758  18.633  0.00  0.00    +0.000 A 
ATOM      8  C   UNL     1       0.084  13.644  19.321  0.00  0.00    +0.000 A 
ATOM      9  C   UNL     1      -0.316  12.244  19.442  0.00  0.00    +0.000 A 
ENDROOT
BRANCH   9  10
ATOM     10  C   UNL     1      -1.443  11.575  18.741  0.00  0.00    +0.000 A 
ATOM     11  C   UNL     1      -1.169  10.651  17.711  0.00  0.00    +0.000 A 
ATOM     12  C   UNL     1      -2.179  10.059  16.944  0.00  0.00    +0.000 A 
ATOM     13  C   UNL     1      -3.508  10.266  17.272  0.00  0.00    +0.000 A 
ATOM     14  C   UNL     1      -3.820  11.109  18.333  0.00  0.00    +0.000 A 
ATOM     15  C   UNL     1      -2.807  11.802  19.023  0.00  0.00    +0.000 A 
ATOM     16 CL   UNL     1      -3.378  12.993  20.144  0.00  0.00    +0.000 Cl
ENDBRANCH   9  10
BRANCH   1  18
ATOM     17  O   UNL     1      -0.819   9.480  21.024  0.00  0.00    +0.000 OA
ATOM     18  S   UNL     1       0.572   9.885  20.959  0.00  0.00    +0.000 S 
ATOM     19  O   UNL     1       1.390   9.959  22.154  0.00  0.00    +0.000 OA
BRANCH  18  20
ATOM     20  C   UNL     1       1.404   8.753  19.862  0.00  0.00    +0.000 A 
ATOM     21  C   UNL     1       1.818   7.507  20.336  0.00  0.00    +0.000 A 
ATOM     22  C   UNL     1       2.588   6.683  19.508  0.00  0.00    +0.000 A 
ATOM     23  C   UNL     1       2.954   7.118  18.234  0.00  0.00    +0.000 A 
ATOM     24 CL   UNL     1       3.940   6.118  17.241  0.00  0.00    +0.000 Cl
ATOM     25  C   UNL     1       2.548   8.368  17.766  0.00  0.00    +0.000 A 
ATOM     26  C   UNL     1       1.771   9.192  18.582  0.00  0.00    +0.000 A 
ENDBRANCH  18  20
ENDBRANCH   1  18
TORSDOF 3
ENDMDL
MODEL 5
REMARK VINA RESULT:      -6.9      6.528     10.136
REMARK  Name = 
REMARK  3 active torsions:
REMARK  status: ('A' for Active; 'I' for Inactive)
REMARK    1  A    between atoms: S_2  and  C_4
REMARK    2  A    between atoms: S_2  and  C_11
REMARK    3  A    between atoms: C_19  and  C_20
REMARK                            x       y       z     vdW  Elec       q    Type
REMARK                         _______ _______ _______ _____ _____    ______ ____
ROOT
ATOM      1  C   UNL     1      -0.881  11.573  20.230  0.00  0.00    +0.000 A 
ATOM      2  S   UNL     1      -2.280  12.532  20.013  0.00  0.00    +0.000 S 
ATOM      3  C   UNL     1      -2.776  11.650  18.660  0.00  0.00    +0.000 A 
ATOM      4  N   UNL     1      -3.880  12.033  17.980  0.00  0.00    +0.000 NA
ATOM      5  C   UNL     1      -4.184  11.246  16.934  0.00  0.00    +0.000 A 
ATOM      6  C   UNL     1      -3.494  10.109  16.572  0.00  0.00    +0.000 A 
ATOM      7  C   UNL     1      -2.383   9.732  17.327  0.00  0.00    +0.000 A 
ATOM      8  C   UNL     1      -1.951  10.564  18.389  0.00  0.00    +0.000 A 
ATOM      9  C   UNL     1      -0.786  10.552  19.269  0.00  0.00    +0.000 A 
ENDROOT
BRANCH   9  10
ATOM     10  C   UNL     1       0.373   9.624  19.202  0.00  0.00    +0.000 A 
ATOM     11  C   UNL     1       1.243   9.679  18.093  0.00  0.00    +0.000 A 
ATOM     12  C   UNL     1       2.294   8.773  17.915  0.00  0.00    +0.000 A 
ATOM     13  C   UNL     1       2.599   7.862  18.914  0.00  0.00    +0.000 A 
ATOM     14  C   UNL     1       1.814   7.828  20.061  0.00  0.00    +0.000 A 
ATOM     15  C   UNL     1       0.680   8.656  20.182  0.00  0.00    +0.000 A 
ATOM     16 CL   UNL     1      -0.323   8.315  21.553  0.00  0.00    +0.000 Cl
ENDBRANCH   9  10
BRANCH   1  18
ATOM     17  O   UNL     1       1.477  12.214  21.049  0.00  0.00    +0.000 OA
ATOM     18  S   UNL     1       0.147  12.071  21.609  0.00  0.00    +0.000 S 
ATOM     19  O   UNL     1      -0.131  11.098  22.648  0.00  0.00    +0.000 OA
BRANCH  18  20
ATOM     20  C   UNL     1      -0.318  13.655  22.283  0.00  0.00    +0.000 A 
ATOM     21  C   UNL     1       0.307  14.815  21.822  0.00  0.00    +0.000 A 
ATOM     22  C   UNL     1       0.032  16.034  22.451  0.00  0.00    +0.000 A 
ATOM     23  C   UNL     1      -0.838  16.079  23.540  0.00  0.00    +0.000 A 
ATOM     24 CL   UNL     1      -1.133  17.575  24.336  0.00  0.00    +0.000 Cl
ATOM     25  C   UNL     1      -1.453  14.917  24.006  0.00  0.00    +0.000 A 
ATOM     26  C   UNL     1      -1.193  13.699  23.378  0.00  0.00    +0.000 A 
ENDBRANCH  18  20
ENDBRANCH   1  18
TORSDOF 3
ENDMDL
MODEL 6
REMARK VINA RESULT:      -6.8      5.890      8.621
REMARK  Name = 
REMARK  3 active torsions:
REMARK  status: ('A' for Active; 'I' for Inactive)
REMARK    1  A    between atoms: S_2  and  C_4
REMARK    2  A    between atoms: S_2  and  C_11
REMARK    3  A    between atoms: C_19  and  C_20
REMARK                            x       y       z     vdW  Elec       q    Type
REMARK                         _______ _______ _______ _____ _____    ______ ____
ROOT
ATOM      1  C   UNL     1      -0.959  11.303  19.541  0.00  0.00    +0.000 A 
ATOM      2  S   UNL     1      -1.474  10.451  18.150  0.00  0.00    +0.000 S 
ATOM      3  C   UNL     1      -3.046  11.063  18.256  0.00  0.00    +0.000 A 
ATOM      4  N   UNL     1      -3.986  10.645  17.379  0.00  0.00    +0.000 NA
ATOM      5  C   UNL     1      -5.192  11.213  17.552  0.00  0.00    +0.000 A 
ATOM      6  C   UNL     1      -5.486  12.177  18.492  0.00  0.00    +0.000 A 
ATOM      7  C   UNL     1      -4.472  12.604  19.351  0.00  0.00    +0.000 A 
ATOM      8  C   UNL     1      -3.200  11.985  19.286  0.00  0.00    +0.000 A 
ATOM      9  C   UNL     1      -1.990  12.079  20.097  0.00  0.00    +0.000 A 
ENDROOT
BRANCH   9  10
ATOM     10  C   UNL     1      -1.814  12.861  21.349  0.00  0.00    +0.000 A 
ATOM     11  C   UNL     1      -2.431  12.416  22.537  0.00  0.00    +0.000 A 
ATOM     12  C   UNL     1      -2.391  13.151  23.727  0.00  0.00    +0.000 A 
ATOM     13  C   UNL     1      -1.613  14.294  23.807  0.00  0.00    +0.000 A 
ATOM     14  C   UNL     1      -0.923  14.724  22.680  0.00  0.00    +0.000 A 
ATOM     15  C   UNL     1      -1.066  14.053  21.449  0.00  0.00    +0.000 A 
ATOM     16 CL   UNL     1      -0.342  14.857  20.096  0.00  0.00    +0.000 Cl
ENDBRANCH   9  10
BRANCH   1  18
ATOM     17  O   UNL     1       0.757  10.972  21.434  0.00  0.00    +0.000 OA
ATOM     18  S   UNL     1       0.753  11.020  19.985  0.00  0.00    +0.000 S 
ATOM     19  O   UNL     1       1.493  12.038  19.265  0.00  0.00    +0.000 OA
BRANCH  18  20
ATOM     20  C   UNL     1       1.372   9.454  19.399  0.00  0.00    +0.000 A 
ATOM     21  C   UNL     1       1.492   8.382  20.284  0.00  0.00    +0.000 A 
ATOM     22  C   UNL     1       2.103   7.202  19.847  0.00  0.00    +0.000 A 
ATOM     23  C   UNL     1       2.606   7.114  18.549  0.00  0.00    +0.000 A 
ATOM     24 CL   UNL     1       3.398   5.676  18.036  0.00  0.00    +0.000 Cl
ATOM     25  C   UNL     1       2.494   8.190  17.670  0.00  0.00    +0.000 A 
ATOM     26  C   UNL     1       1.877   9.367  18.093  0.00  0.00    +0.000 A 
ENDBRANCH  18  20
ENDBRANCH   1  18
TORSDOF 3
ENDMDL
MODEL 7
REMARK VINA RESULT:      -6.8      5.795      8.701
REMARK  Name = 
REMARK  3 active torsions:
REMARK  status: ('A' for Active; 'I' for Inactive)
REMARK    1  A    between atoms: S_2  and  C_4
REMARK    2  A    between atoms: S_2  and  C_11
REMARK    3  A    between atoms: C_19  and  C_20
REMARK                            x       y       z     vdW  Elec       q    Type
REMARK                         _______ _______ _______ _____ _____    ______ ____
ROOT
ATOM      1  C   UNL     1      -0.887  11.468  19.438  0.00  0.00    +0.000 A 
ATOM      2  S   UNL     1      -1.577  10.435  18.263  0.00  0.00    +0.000 S 
ATOM      3  C   UNL     1      -3.129  11.056  18.508  0.00  0.00    +0.000 A 
ATOM      4  N   UNL     1      -4.176  10.523  17.840  0.00  0.00    +0.000 NA
ATOM      5  C   UNL     1      -5.356  11.110  18.104  0.00  0.00    +0.000 A 
ATOM      6  C   UNL     1      -5.532  12.194  18.937  0.00  0.00    +0.000 A 
ATOM      7  C   UNL     1      -4.415  12.734  19.576  0.00  0.00    +0.000 A 
ATOM      8  C   UNL     1      -3.154  12.111  19.415  0.00  0.00    +0.000 A 
ATOM      9  C   UNL     1      -1.843  12.315  20.024  0.00  0.00    +0.000 A 
ENDROOT
BRANCH   9  10
ATOM     10  C   UNL     1      -1.506  13.261  21.120  0.00  0.00    +0.000 A 
ATOM     11  C   UNL     1      -1.129  14.583  20.805  0.00  0.00    +0.000 A 
ATOM     12  C   UNL     1      -0.705  15.496  21.776  0.00  0.00    +0.000 A 
ATOM     13  C   UNL     1      -0.775  15.161  23.118  0.00  0.00    +0.000 A 
ATOM     14  C   UNL     1      -1.217  13.894  23.477  0.00  0.00    +0.000 A 
ATOM     15  C   UNL     1      -1.523  12.933  22.493  0.00  0.00    +0.000 A 
ATOM     16 CL   UNL     1      -1.816  11.338  23.103  0.00  0.00    +0.000 Cl
ENDBRANCH   9  10
BRANCH   1  18
ATOM     17  O   UNL     1       1.088  11.415  21.092  0.00  0.00    +0.000 OA
ATOM     18  S   UNL     1       0.876  11.249  19.667  0.00  0.00    +0.000 S 
ATOM     19  O   UNL     1       1.487  12.146  18.706  0.00  0.00    +0.000 OA
BRANCH  18  20
ATOM     20  C   UNL     1       1.432   9.611  19.234  0.00  0.00    +0.000 A 
ATOM     21  C   UNL     1       1.445   8.606  20.202  0.00  0.00    +0.000 A 
ATOM     22  C   UNL     1       2.009   7.364  19.888  0.00  0.00    +0.000 A 
ATOM     23  C   UNL     1       2.571   7.148  18.629  0.00  0.00    +0.000 A 
ATOM     24 CL   UNL     1       3.303   5.635  18.269  0.00  0.00    +0.000 Cl
ATOM     25  C   UNL     1       2.566   8.158  17.668  0.00  0.00    +0.000 A 
ATOM     26  C   UNL     1       1.996   9.396  17.968  0.00  0.00    +0.000 A 
ENDBRANCH  18  20
ENDBRANCH   1  18
TORSDOF 3
ENDMDL
MODEL 8
REMARK VINA RESULT:      -6.7      8.245     10.884
REMARK  Name = 
REMARK  3 active torsions:
REMARK  status: ('A' for Active; 'I' for Inactive)
REMARK    1  A    between atoms: S_2  and  C_4
REMARK    2  A    between atoms: S_2  and  C_11
REMARK    3  A    between atoms: C_19  and  C_20
REMARK                            x       y       z     vdW  Elec       q    Type
REMARK                         _______ _______ _______ _____ _____    ______ ____
ROOT
ATOM      1  C   UNL     1      -0.079  14.118  22.341  0.00  0.00    +0.000 A 
ATOM      2  S   UNL     1      -0.657  15.159  23.568  0.00  0.00    +0.000 S 
ATOM      3  C   UNL     1      -2.019  14.200  23.855  0.00  0.00    +0.000 A 
ATOM      4  N   UNL     1      -2.944  14.604  24.754  0.00  0.00    +0.000 NA
ATOM      5  C   UNL     1      -3.972  13.752  24.908  0.00  0.00    +0.000 A 
ATOM      6  C   UNL     1      -4.096  12.538  24.268  0.00  0.00    +0.000 A 
ATOM      7  C   UNL     1      -3.096  12.146  23.378  0.00  0.00    +0.000 A 
ATOM      8  C   UNL     1      -2.029  13.033  23.098  0.00  0.00    +0.000 A 
ATOM      9  C   UNL     1      -0.921  13.011  22.146  0.00  0.00    +0.000 A 
ENDROOT
BRANCH   9  10
ATOM     10  C   UNL     1      -0.673  11.994  21.091  0.00  0.00    +0.000 A 
ATOM     11  C   UNL     1      -0.856  12.341  19.736  0.00  0.00    +0.000 A 
ATOM     12  C   UNL     1      -0.736  11.411  18.698  0.00  0.00    +0.000 A 
ATOM     13  C   UNL     1      -0.292  10.127  18.968  0.00  0.00    +0.000 A 
ATOM     14  C   UNL     1      -0.024   9.766  20.284  0.00  0.00    +0.000 A 
ATOM     15  C   UNL     1      -0.266  10.666  21.340  0.00  0.00    +0.000 A 
ATOM     16 CL   UNL     1      -0.117   9.981  22.925  0.00  0.00    +0.000 Cl
ENDBRANCH   9  10
BRANCH   1  18
ATOM     17  O   UNL     1       2.132  13.433  21.207  0.00  0.00    +0.000 OA
ATOM     18  S   UNL     1       1.449  14.658  21.578  0.00  0.00    +0.000 S 
ATOM     19  O   UNL     1       2.030  15.584  22.531  0.00  0.00    +0.000 OA
BRANCH  18  20
ATOM     20  C   UNL     1       1.184  15.592  20.083  0.00  0.00    +0.000 A 
ATOM     21  C   UNL     1       2.280  16.054  19.351  0.00  0.00    +0.000 A 
ATOM     22  C   UNL     1       2.063  16.898  18.257  0.00  0.00    +0.000 A 
ATOM     23  C   UNL     1       0.767  17.289  17.921  0.00  0.00    +0.000 A 
ATOM     24 CL   UNL     1       0.513  18.365  16.604  0.00  0.00    +0.000 Cl
ATOM     25  C   UNL     1      -0.325  16.835  18.660  0.00  0.00    +0.000 A 
ATOM     26  C   UNL     1      -0.120  15.984  19.747  0.00  0.00    +0.000 A 
ENDBRANCH  18  20
ENDBRANCH   1  18
TORSDOF 3
ENDMDL
MODEL 9
REMARK VINA RESULT:      -6.7      9.818     11.317
REMARK  Name = 
REMARK  3 active torsions:
REMARK  status: ('A' for Active; 'I' for Inactive)
REMARK    1  A    between atoms: S_2  and  C_4
REMARK    2  A    between atoms: S_2  and  C_11
REMARK    3  A    between atoms: C_19  and  C_20
REMARK                            x       y       z     vdW  Elec       q    Type
REMARK                         _______ _______ _______ _____ _____    ______ ____
ROOT
ATOM      1  C   UNL     1       6.388  14.873  21.045  0.00  0.00    +0.000 A 
ATOM      2  S   UNL     1       4.823  14.503  21.626  0.00  0.00    +0.000 S 
ATOM      3  C   UNL     1       4.085  14.968  20.179  0.00  0.00    +0.000 A 
ATOM      4  N   UNL     1       2.738  14.947  20.079  0.00  0.00    +0.000 NA
ATOM      5  C   UNL     1       2.269  15.322  18.876  0.00  0.00    +0.000 A 
ATOM      6  C   UNL     1       3.049  15.659  17.791  0.00  0.00    +0.000 A 
ATOM      7  C   UNL     1       4.437  15.629  17.932  0.00  0.00    +0.000 A 
ATOM      8  C   UNL     1       5.001  15.331  19.196  0.00  0.00    +0.000 A 
ATOM      9  C   UNL     1       6.363  15.347  19.723  0.00  0.00    +0.000 A 
ENDROOT
BRANCH   9  10
ATOM     10  C   UNL     1       7.588  15.799  19.013  0.00  0.00    +0.000 A 
ATOM     11  C   UNL     1       8.000  17.144  19.128  0.00  0.00    +0.000 A 
ATOM     12  C   UNL     1       9.084  17.662  18.411  0.00  0.00    +0.000 A 
ATOM     13  C   UNL     1       9.881  16.818  17.656  0.00  0.00    +0.000 A 
ATOM     14  C   UNL     1       9.556  15.469  17.580  0.00  0.00    +0.000 A 
ATOM     15  C   UNL     1       8.392  14.973  18.200  0.00  0.00    +0.000 A 
ATOM     16 CL   UNL     1       8.001  13.333  17.802  0.00  0.00    +0.000 Cl
ENDBRANCH   9  10
BRANCH   1  18
ATOM     17  O   UNL     1       7.106  13.734  23.242  0.00  0.00    +0.000 OA
ATOM     18  S   UNL     1       7.700  14.586  22.230  0.00  0.00    +0.000 S 
ATOM     19  O   UNL     1       8.198  15.908  22.557  0.00  0.00    +0.000 OA
BRANCH  18  20
ATOM     20  C   UNL     1       9.082  13.699  21.533  0.00  0.00    +0.000 A 
ATOM     21  C   UNL     1      10.202  14.402  21.087  0.00  0.00    +0.000 A 
ATOM     22  C   UNL     1      11.220  13.711  20.420  0.00  0.00    +0.000 A 
ATOM     23  C   UNL     1      11.099  12.341  20.187  0.00  0.00    +0.000 A 
ATOM     24 CL   UNL     1      12.333  11.509  19.325  0.00  0.00    +0.000 Cl
ATOM     25  C   UNL     1       9.974  11.643  20.625  0.00  0.00    +0.000 A 
ATOM     26  C   UNL     1       8.959  12.322  21.300  0.00  0.00    +0.000 A 
ENDBRANCH  18  20
ENDBRANCH   1  18
TORSDOF 3
ENDMDL
