MODEL 1
REMARK VINA RESULT:      -7.7      0.000      0.000
REMARK  Name = 
REMARK  9 active torsions:
REMARK  status: ('A' for Active; 'I' for Inactive)
REMARK    1  A    between atoms: C_1  and  C_2
REMARK    2  A    between atoms: C_2  and  C_3
REMARK    3  A    between atoms: C_2  and  N_6
REMARK    4  A    between atoms: C_3  and  O_5
REMARK    5  A    between atoms: N_6  and  C_7
REMARK    6  A    between atoms: N_6  and  S_17
REMARK    7  A    between atoms: C_7  and  C_8
REMARK    8  A    between atoms: C_11  and  N_12
REMARK    9  A    between atoms: S_17  and  C_20
REMARK                            x       y       z     vdW  Elec       q    Type
REMARK                         _______ _______ _______ _____ _____    ______ ____
ROOT
ATOM      1  N   UNL     1       3.091   4.737  19.220  0.00  0.00    +0.000 NA
ENDROOT
BRANCH   1   2
ATOM      2  S   UNL     1       4.823   4.344  19.077  0.00  0.00    +0.000 S 
ATOM      3  O   UNL     1       5.643   5.304  19.771  0.00  0.00    +0.000 OA
ATOM      4  O   UNL     1       4.958   2.932  19.346  0.00  0.00    +0.000 OA
BRANCH   2   5
ATOM      5  C   UNL     1       5.139   4.658  17.362  0.00  0.00    +0.000 A 
ATOM      6  C   UNL     1       5.029   5.977  16.895  0.00  0.00    +0.000 A 
ATOM      7  C   UNL     1       5.285   6.255  15.553  0.00  0.00    +0.000 A 
ATOM      8  C   UNL     1       5.647   5.215  14.694  0.00  0.00    +0.000 A 
ATOM      9  C   UNL     1       5.772   3.908  15.173  0.00  0.00    +0.000 A 
ATOM     10  C   UNL     1       5.525   3.624  16.515  0.00  0.00    +0.000 A 
ENDBRANCH   2   5
ENDBRANCH   1   2
BRANCH   1  12
ATOM     11  C   UNL     1       1.521   3.469  20.815  0.00  0.00    +0.000 C 
ATOM     12  C   UNL     1       2.280   3.456  19.484  0.00  0.00    +0.000 C 
BRANCH  12  13
ATOM     13  C   UNL     1       1.223   3.188  18.416  0.00  0.00    +0.000 C 
ATOM     14  O   UNL     1       0.393   2.292  18.471  0.00  0.00    +0.000 OA
BRANCH  13  15
ATOM     15  O   UNL     1       1.253   4.079  17.393  0.00  0.00    +0.000 OA
ATOM     16  H   UNL     1       2.111   4.542  17.320  0.00  0.00    +0.000 HD
ENDBRANCH  13  15
ENDBRANCH  12  13
ENDBRANCH   1  12
BRANCH   1  17
ATOM     17  C   UNL     1       2.833   5.793  20.275  0.00  0.00    +0.000 C 
BRANCH  17  18
ATOM     18  C   UNL     1       2.148   7.048  19.763  0.00  0.00    +0.000 A 
ATOM     19  C   UNL     1       2.368   7.499  18.452  0.00  0.00    +0.000 A 
ATOM     20  C   UNL     1       1.976   8.788  18.075  0.00  0.00    +0.000 A 
ATOM     21  C   UNL     1       1.351   9.624  19.010  0.00  0.00    +0.000 A 
ATOM     22  C   UNL     1       1.032   9.149  20.286  0.00  0.00    +0.000 A 
ATOM     23  C   UNL     1       1.413   7.854  20.651  0.00  0.00    +0.000 A 
BRANCH  21  24
ATOM     24  N   UNL     1       1.085  11.027  18.669  0.00  0.00    +0.000 N 
ATOM     25  O   UNL     1      -0.083  11.432  18.774  0.00  0.00    +0.000 OA
ATOM     26  O   UNL     1       2.038  11.724  18.293  0.00  0.00    +0.000 OA
ENDBRANCH  21  24
ENDBRANCH  17  18
ENDBRANCH   1  17
TORSDOF 8
ENDMDL
MODEL 2
REMARK VINA RESULT:      -7.7      1.847      4.577
REMARK  Name = 
REMARK  9 active torsions:
REMARK  status: ('A' for Active; 'I' for Inactive)
REMARK    1  A    between atoms: C_1  and  C_2
REMARK    2  A    between atoms: C_2  and  C_3
REMARK    3  A    between atoms: C_2  and  N_6
REMARK    4  A    between atoms: C_3  and  O_5
REMARK    5  A    between atoms: N_6  and  C_7
REMARK    6  A    between atoms: N_6  and  S_17
REMARK    7  A    between atoms: C_7  and  C_8
REMARK    8  A    between atoms: C_11  and  N_12
REMARK    9  A    between atoms: S_17  and  C_20
REMARK                            x       y       z     vdW  Elec       q    Type
REMARK                         _______ _______ _______ _____ _____    ______ ____
ROOT
ATOM      1  N   UNL     1       4.583   5.597  18.046  0.00  0.00    +0.000 NA
ENDROOT
BRANCH   1   2
ATOM      2  S   UNL     1       4.631   3.849  18.392  0.00  0.00    +0.000 S 
ATOM      3  O   UNL     1       4.571   3.069  17.183  0.00  0.00    +0.000 OA
ATOM      4  O   UNL     1       5.690   3.639  19.351  0.00  0.00    +0.000 OA
BRANCH   2   5
ATOM      5  C   UNL     1       3.061   3.576  19.167  0.00  0.00    +0.000 A 
ATOM      6  C   UNL     1       2.020   3.044  18.393  0.00  0.00    +0.000 A 
ATOM      7  C   UNL     1       0.777   2.806  18.980  0.00  0.00    +0.000 A 
ATOM      8  C   UNL     1       0.590   3.102  20.332  0.00  0.00    +0.000 A 
ATOM      9  C   UNL     1       1.640   3.616  21.099  0.00  0.00    +0.000 A 
ATOM     10  C   UNL     1       2.885   3.849  20.520  0.00  0.00    +0.000 A 
ENDBRANCH   2   5
ENDBRANCH   1   2
BRANCH   1  12
ATOM     11  C   UNL     1       5.050   6.784  15.813  0.00  0.00    +0.000 C 
ATOM     12  C   UNL     1       5.620   5.950  16.965  0.00  0.00    +0.000 C 
BRANCH  12  13
ATOM     13  C   UNL     1       6.797   6.756  17.506  0.00  0.00    +0.000 C 
ATOM     14  O   UNL     1       7.157   7.838  17.068  0.00  0.00    +0.000 OA
BRANCH  13  15
ATOM     15  O   UNL     1       7.402   6.173  18.573  0.00  0.00    +0.000 OA
ATOM     16  H   UNL     1       7.134   6.572  19.425  0.00  0.00    +0.000 HD
ENDBRANCH  13  15
ENDBRANCH  12  13
ENDBRANCH   1  12
BRANCH   1  17
ATOM     17  C   UNL     1       3.193   6.062  17.665  0.00  0.00    +0.000 C 
BRANCH  17  18
ATOM     18  C   UNL     1       2.679   7.247  18.465  0.00  0.00    +0.000 A 
ATOM     19  C   UNL     1       2.346   7.104  19.822  0.00  0.00    +0.000 A 
ATOM     20  C   UNL     1       1.612   8.100  20.476  0.00  0.00    +0.000 A 
ATOM     21  C   UNL     1       1.220   9.247  19.774  0.00  0.00    +0.000 A 
ATOM     22  C   UNL     1       1.636   9.448  18.453  0.00  0.00    +0.000 A 
ATOM     23  C   UNL     1       2.383   8.456  17.810  0.00  0.00    +0.000 A 
BRANCH  21  24
ATOM     24  N   UNL     1       0.316  10.216  20.406  0.00  0.00    +0.000 N 
ATOM     25  O   UNL     1       0.735  10.831  21.397  0.00  0.00    +0.000 OA
ATOM     26  O   UNL     1      -0.815  10.358  19.918  0.00  0.00    +0.000 OA
ENDBRANCH  21  24
ENDBRANCH  17  18
ENDBRANCH   1  17
TORSDOF 8
ENDMDL
MODEL 3
REMARK VINA RESULT:      -7.7      0.687      1.028
REMARK  Name = 
REMARK  9 active torsions:
REMARK  status: ('A' for Active; 'I' for Inactive)
REMARK    1  A    between atoms: C_1  and  C_2
REMARK    2  A    between atoms: C_2  and  C_3
REMARK    3  A    between atoms: C_2  and  N_6
REMARK    4  A    between atoms: C_3  and  O_5
REMARK    5  A    between atoms: N_6  and  C_7
REMARK    6  A    between atoms: N_6  and  S_17
REMARK    7  A    between atoms: C_7  and  C_8
REMARK    8  A    between atoms: C_11  and  N_12
REMARK    9  A    between atoms: S_17  and  C_20
REMARK                            x       y       z     vdW  Elec       q    Type
REMARK                         _______ _______ _______ _____ _____    ______ ____
ROOT
ATOM      1  N   UNL     1       3.429   4.701  19.104  0.00  0.00    +0.000 NA
ENDROOT
BRANCH   1   2
ATOM      2  S   UNL     1       5.124   4.155  19.098  0.00  0.00    +0.000 S 
ATOM      3  O   UNL     1       5.977   5.069  19.812  0.00  0.00    +0.000 OA
ATOM      4  O   UNL     1       5.115   2.749  19.427  0.00  0.00    +0.000 OA
BRANCH   2   5
ATOM      5  C   UNL     1       5.581   4.366  17.399  0.00  0.00    +0.000 A 
ATOM      6  C   UNL     1       6.919   4.666  17.102  0.00  0.00    +0.000 A 
ATOM      7  C   UNL     1       7.310   4.824  15.772  0.00  0.00    +0.000 A 
ATOM      8  C   UNL     1       6.361   4.682  14.757  0.00  0.00    +0.000 A 
ATOM      9  C   UNL     1       5.035   4.365  15.063  0.00  0.00    +0.000 A 
ATOM     10  C   UNL     1       4.639   4.199  16.389  0.00  0.00    +0.000 A 
ENDBRANCH   2   5
ENDBRANCH   1   2
BRANCH   1  12
ATOM     11  C   UNL     1       1.778   3.486  20.658  0.00  0.00    +0.000 C 
ATOM     12  C   UNL     1       2.488   3.499  19.300  0.00  0.00    +0.000 C 
BRANCH  12  13
ATOM     13  C   UNL     1       1.374   3.435  18.259  0.00  0.00    +0.000 C 
ATOM     14  O   UNL     1       1.221   4.243  17.355  0.00  0.00    +0.000 OA
BRANCH  13  15
ATOM     15  O   UNL     1       0.570   2.350  18.397  0.00  0.00    +0.000 OA
ATOM     16  H   UNL     1       0.022   2.385  19.206  0.00  0.00    +0.000 HD
ENDBRANCH  13  15
ENDBRANCH  12  13
ENDBRANCH   1  12
BRANCH   1  17
ATOM     17  C   UNL     1       3.183   5.781  20.136  0.00  0.00    +0.000 C 
BRANCH  17  18
ATOM     18  C   UNL     1       2.371   6.964  19.636  0.00  0.00    +0.000 A 
ATOM     19  C   UNL     1       2.505   7.417  18.314  0.00  0.00    +0.000 A 
ATOM     20  C   UNL     1       1.986   8.661  17.940  0.00  0.00    +0.000 A 
ATOM     21  C   UNL     1       1.320   9.449  18.888  0.00  0.00    +0.000 A 
ATOM     22  C   UNL     1       1.089   8.962  20.179  0.00  0.00    +0.000 A 
ATOM     23  C   UNL     1       1.596   7.711  20.542  0.00  0.00    +0.000 A 
BRANCH  21  24
ATOM     24  N   UNL     1       0.917  10.819  18.544  0.00  0.00    +0.000 N 
ATOM     25  O   UNL     1      -0.293  11.041  18.394  0.00  0.00    +0.000 OA
ATOM     26  O   UNL     1       1.808  11.671  18.418  0.00  0.00    +0.000 OA
ENDBRANCH  21  24
ENDBRANCH  17  18
ENDBRANCH   1  17
TORSDOF 8
ENDMDL
MODEL 4
REMARK VINA RESULT:      -7.7      0.842      1.492
REMARK  Name = 
REMARK  9 active torsions:
REMARK  status: ('A' for Active; 'I' for Inactive)
REMARK    1  A    between atoms: C_1  and  C_2
REMARK    2  A    between atoms: C_2  and  C_3
REMARK    3  A    between atoms: C_2  and  N_6
REMARK    4  A    between atoms: C_3  and  O_5
REMARK    5  A    between atoms: N_6  and  C_7
REMARK    6  A    between atoms: N_6  and  S_17
REMARK    7  A    between atoms: C_7  and  C_8
REMARK    8  A    between atoms: C_11  and  N_12
REMARK    9  A    between atoms: S_17  and  C_20
REMARK                            x       y       z     vdW  Elec       q    Type
REMARK                         _______ _______ _______ _____ _____    ______ ____
ROOT
ATOM      1  N   UNL     1       3.131   4.794  19.142  0.00  0.00    +0.000 NA
ENDROOT
BRANCH   1   2
ATOM      2  S   UNL     1       4.895   4.553  19.062  0.00  0.00    +0.000 S 
ATOM      3  O   UNL     1       5.606   5.627  19.704  0.00  0.00    +0.000 OA
ATOM      4  O   UNL     1       5.149   3.179  19.429  0.00  0.00    +0.000 OA
BRANCH   2   5
ATOM      5  C   UNL     1       5.226   4.780  17.336  0.00  0.00    +0.000 A 
ATOM      6  C   UNL     1       5.075   6.064  16.792  0.00  0.00    +0.000 A 
ATOM      7  C   UNL     1       5.342   6.275  15.439  0.00  0.00    +0.000 A 
ATOM      8  C   UNL     1       5.757   5.201  14.648  0.00  0.00    +0.000 A 
ATOM      9  C   UNL     1       5.922   3.930  15.203  0.00  0.00    +0.000 A 
ATOM     10  C   UNL     1       5.664   3.714  16.555  0.00  0.00    +0.000 A 
ENDBRANCH   2   5
ENDBRANCH   1   2
BRANCH   1  12
ATOM     11  C   UNL     1       0.962   3.528  19.698  0.00  0.00    +0.000 C 
ATOM     12  C   UNL     1       2.416   3.433  19.222  0.00  0.00    +0.000 C 
BRANCH  12  13
ATOM     13  C   UNL     1       2.358   2.708  17.880  0.00  0.00    +0.000 C 
ATOM     14  O   UNL     1       1.912   3.191  16.850  0.00  0.00    +0.000 OA
BRANCH  13  15
ATOM     15  O   UNL     1       2.898   1.464  17.918  0.00  0.00    +0.000 OA
ATOM     16  H   UNL     1       3.655   1.398  18.535  0.00  0.00    +0.000 HD
ENDBRANCH  13  15
ENDBRANCH  12  13
ENDBRANCH   1  12
BRANCH   1  17
ATOM     17  C   UNL     1       2.734   5.705  20.284  0.00  0.00    +0.000 C 
BRANCH  17  18
ATOM     18  C   UNL     1       2.290   7.095  19.862  0.00  0.00    +0.000 A 
ATOM     19  C   UNL     1       1.618   7.937  20.763  0.00  0.00    +0.000 A 
ATOM     20  C   UNL     1       0.963   9.084  20.301  0.00  0.00    +0.000 A 
ATOM     21  C   UNL     1       0.990   9.396  18.936  0.00  0.00    +0.000 A 
ATOM     22  C   UNL     1       1.744   8.624  18.046  0.00  0.00    +0.000 A 
ATOM     23  C   UNL     1       2.410   7.488  18.516  0.00  0.00    +0.000 A 
BRANCH  21  24
ATOM     24  N   UNL     1       0.173  10.504  18.425  0.00  0.00    +0.000 N 
ATOM     25  O   UNL     1       0.522  11.657  18.715  0.00  0.00    +0.000 OA
ATOM     26  O   UNL     1      -0.821  10.223  17.739  0.00  0.00    +0.000 OA
ENDBRANCH  21  24
ENDBRANCH  17  18
ENDBRANCH   1  17
TORSDOF 8
ENDMDL
MODEL 5
REMARK VINA RESULT:      -7.7      0.089      1.156
REMARK  Name = 
REMARK  9 active torsions:
REMARK  status: ('A' for Active; 'I' for Inactive)
REMARK    1  A    between atoms: C_1  and  C_2
REMARK    2  A    between atoms: C_2  and  C_3
REMARK    3  A    between atoms: C_2  and  N_6
REMARK    4  A    between atoms: C_3  and  O_5
REMARK    5  A    between atoms: N_6  and  C_7
REMARK    6  A    between atoms: N_6  and  S_17
REMARK    7  A    between atoms: C_7  and  C_8
REMARK    8  A    between atoms: C_11  and  N_12
REMARK    9  A    between atoms: S_17  and  C_20
REMARK                            x       y       z     vdW  Elec       q    Type
REMARK                         _______ _______ _______ _____ _____    ______ ____
ROOT
ATOM      1  N   UNL     1       3.166   4.765  19.191  0.00  0.00    +0.000 NA
ENDROOT
BRANCH   1   2
ATOM      2  S   UNL     1       4.908   4.421  19.052  0.00  0.00    +0.000 S 
ATOM      3  O   UNL     1       5.699   5.407  19.740  0.00  0.00    +0.000 OA
ATOM      4  O   UNL     1       5.082   3.014  19.329  0.00  0.00    +0.000 OA
BRANCH   2   5
ATOM      5  C   UNL     1       5.216   4.733  17.335  0.00  0.00    +0.000 A 
ATOM      6  C   UNL     1       5.566   3.651  16.513  0.00  0.00    +0.000 A 
ATOM      7  C   UNL     1       5.801   3.866  15.155  0.00  0.00    +0.000 A 
ATOM      8  C   UNL     1       5.685   5.156  14.635  0.00  0.00    +0.000 A 
ATOM      9  C   UNL     1       5.318   6.224  15.459  0.00  0.00    +0.000 A 
ATOM     10  C   UNL     1       5.074   6.016  16.815  0.00  0.00    +0.000 A 
ENDBRANCH   2   5
ENDBRANCH   1   2
BRANCH   1  12
ATOM     11  C   UNL     1       1.649   3.438  20.789  0.00  0.00    +0.000 C 
ATOM     12  C   UNL     1       2.388   3.462  19.447  0.00  0.00    +0.000 C 
BRANCH  12  13
ATOM     13  C   UNL     1       1.323   3.183  18.391  0.00  0.00    +0.000 C 
ATOM     14  O   UNL     1       0.510   2.273  18.449  0.00  0.00    +0.000 OA
BRANCH  13  15
ATOM     15  O   UNL     1       1.325   4.083  17.375  0.00  0.00    +0.000 OA
ATOM     16  H   UNL     1       0.840   4.903  17.595  0.00  0.00    +0.000 HD
ENDBRANCH  13  15
ENDBRANCH  12  13
ENDBRANCH   1  12
BRANCH   1  17
ATOM     17  C   UNL     1       2.876   5.809  20.249  0.00  0.00    +0.000 C 
BRANCH  17  18
ATOM     18  C   UNL     1       2.174   7.055  19.736  0.00  0.00    +0.000 A 
ATOM     19  C   UNL     1       2.367   7.493  18.416  0.00  0.00    +0.000 A 
ATOM     20  C   UNL     1       1.960   8.776  18.033  0.00  0.00    +0.000 A 
ATOM     21  C   UNL     1       1.349   9.618  18.970  0.00  0.00    +0.000 A 
ATOM     22  C   UNL     1       1.056   9.155  20.257  0.00  0.00    +0.000 A 
ATOM     23  C   UNL     1       1.451   7.867  20.629  0.00  0.00    +0.000 A 
BRANCH  21  24
ATOM     24  N   UNL     1       1.068  11.017  18.619  0.00  0.00    +0.000 N 
ATOM     25  O   UNL     1       2.031  11.737  18.318  0.00  0.00    +0.000 OA
ATOM     26  O   UNL     1      -0.111  11.397  18.651  0.00  0.00    +0.000 OA
ENDBRANCH  21  24
ENDBRANCH  17  18
ENDBRANCH   1  17
TORSDOF 8
ENDMDL
MODEL 6
REMARK VINA RESULT:      -7.7      0.803      1.688
REMARK  Name = 
REMARK  9 active torsions:
REMARK  status: ('A' for Active; 'I' for Inactive)
REMARK    1  A    between atoms: C_1  and  C_2
REMARK    2  A    between atoms: C_2  and  C_3
REMARK    3  A    between atoms: C_2  and  N_6
REMARK    4  A    between atoms: C_3  and  O_5
REMARK    5  A    between atoms: N_6  and  C_7
REMARK    6  A    between atoms: N_6  and  S_17
REMARK    7  A    between atoms: C_7  and  C_8
REMARK    8  A    between atoms: C_11  and  N_12
REMARK    9  A    between atoms: S_17  and  C_20
REMARK                            x       y       z     vdW  Elec       q    Type
REMARK                         _______ _______ _______ _____ _____    ______ ____
ROOT
ATOM      1  N   UNL     1       3.069   4.815  19.175  0.00  0.00    +0.000 NA
ENDROOT
BRANCH   1   2
ATOM      2  S   UNL     1       4.833   4.575  19.109  0.00  0.00    +0.000 S 
ATOM      3  O   UNL     1       5.539   5.652  19.754  0.00  0.00    +0.000 OA
ATOM      4  O   UNL     1       5.086   3.203  19.483  0.00  0.00    +0.000 OA
BRANCH   2   5
ATOM      5  C   UNL     1       5.178   4.796  17.385  0.00  0.00    +0.000 A 
ATOM      6  C   UNL     1       5.572   3.678  16.636  0.00  0.00    +0.000 A 
ATOM      7  C   UNL     1       5.837   3.821  15.274  0.00  0.00    +0.000 A 
ATOM      8  C   UNL     1       5.706   5.077  14.678  0.00  0.00    +0.000 A 
ATOM      9  C   UNL     1       5.295   6.181  15.430  0.00  0.00    +0.000 A 
ATOM     10  C   UNL     1       5.022   6.044  16.789  0.00  0.00    +0.000 A 
ENDBRANCH   2   5
ENDBRANCH   1   2
BRANCH   1  12
ATOM     11  C   UNL     1       0.904   3.538  19.723  0.00  0.00    +0.000 C 
ATOM     12  C   UNL     1       2.353   3.453  19.231  0.00  0.00    +0.000 C 
BRANCH  12  13
ATOM     13  C   UNL     1       2.282   2.759  17.874  0.00  0.00    +0.000 C 
ATOM     14  O   UNL     1       1.867   3.279  16.849  0.00  0.00    +0.000 OA
BRANCH  13  15
ATOM     15  O   UNL     1       2.772   1.494  17.891  0.00  0.00    +0.000 OA
ATOM     16  H   UNL     1       2.078   0.816  17.761  0.00  0.00    +0.000 HD
ENDBRANCH  13  15
ENDBRANCH  12  13
ENDBRANCH   1  12
BRANCH   1  17
ATOM     17  C   UNL     1       2.660   5.712  20.324  0.00  0.00    +0.000 C 
BRANCH  17  18
ATOM     18  C   UNL     1       2.253   7.118  19.917  0.00  0.00    +0.000 A 
ATOM     19  C   UNL     1       1.557   7.948  20.811  0.00  0.00    +0.000 A 
ATOM     20  C   UNL     1       0.938   9.116  20.351  0.00  0.00    +0.000 A 
ATOM     21  C   UNL     1       1.024   9.459  18.996  0.00  0.00    +0.000 A 
ATOM     22  C   UNL     1       1.802   8.696  18.118  0.00  0.00    +0.000 A 
ATOM     23  C   UNL     1       2.432   7.540  18.587  0.00  0.00    +0.000 A 
BRANCH  21  24
ATOM     24  N   UNL     1       0.243  10.590  18.479  0.00  0.00    +0.000 N 
ATOM     25  O   UNL     1      -0.859  10.342  17.969  0.00  0.00    +0.000 OA
ATOM     26  O   UNL     1       0.732  11.725  18.576  0.00  0.00    +0.000 OA
ENDBRANCH  21  24
ENDBRANCH  17  18
ENDBRANCH   1  17
TORSDOF 8
ENDMDL
MODEL 7
REMARK VINA RESULT:      -7.7      1.704      4.696
REMARK  Name = 
REMARK  9 active torsions:
REMARK  status: ('A' for Active; 'I' for Inactive)
REMARK    1  A    between atoms: C_1  and  C_2
REMARK    2  A    between atoms: C_2  and  C_3
REMARK    3  A    between atoms: C_2  and  N_6
REMARK    4  A    between atoms: C_3  and  O_5
REMARK    5  A    between atoms: N_6  and  C_7
REMARK    6  A    between atoms: N_6  and  S_17
REMARK    7  A    between atoms: C_7  and  C_8
REMARK    8  A    between atoms: C_11  and  N_12
REMARK    9  A    between atoms: S_17  and  C_20
REMARK                            x       y       z     vdW  Elec       q    Type
REMARK                         _______ _______ _______ _____ _____    ______ ____
ROOT
ATOM      1  N   UNL     1       4.277   4.911  17.879  0.00  0.00    +0.000 NA
ENDROOT
BRANCH   1   2
ATOM      2  S   UNL     1       3.392   3.387  17.616  0.00  0.00    +0.000 S 
ATOM      3  O   UNL     1       2.311   3.557  16.680  0.00  0.00    +0.000 OA
ATOM      4  O   UNL     1       4.382   2.354  17.418  0.00  0.00    +0.000 OA
BRANCH   2   5
ATOM      5  C   UNL     1       2.585   3.148  19.176  0.00  0.00    +0.000 A 
ATOM      6  C   UNL     1       3.367   2.775  20.279  0.00  0.00    +0.000 A 
ATOM      7  C   UNL     1       2.761   2.593  21.522  0.00  0.00    +0.000 A 
ATOM      8  C   UNL     1       1.383   2.785  21.647  0.00  0.00    +0.000 A 
ATOM      9  C   UNL     1       0.616   3.175  20.546  0.00  0.00    +0.000 A 
ATOM     10  C   UNL     1       1.217   3.365  19.303  0.00  0.00    +0.000 A 
ENDBRANCH   2   5
ENDBRANCH   1   2
BRANCH   1  12
ATOM     11  C   UNL     1       6.112   5.946  16.402  0.00  0.00    +0.000 C 
ATOM     12  C   UNL     1       5.709   4.792  17.327  0.00  0.00    +0.000 C 
BRANCH  12  13
ATOM     13  C   UNL     1       6.771   4.759  18.422  0.00  0.00    +0.000 C 
ATOM     14  O   UNL     1       7.946   4.477  18.241  0.00  0.00    +0.000 OA
BRANCH  13  15
ATOM     15  O   UNL     1       6.297   5.122  19.641  0.00  0.00    +0.000 OA
ATOM     16  H   UNL     1       6.937   5.657  20.152  0.00  0.00    +0.000 HD
ENDBRANCH  13  15
ENDBRANCH  12  13
ENDBRANCH   1  12
BRANCH   1  17
ATOM     17  C   UNL     1       3.546   6.101  17.292  0.00  0.00    +0.000 C 
BRANCH  17  18
ATOM     18  C   UNL     1       2.934   7.039  18.318  0.00  0.00    +0.000 A 
ATOM     19  C   UNL     1       2.704   6.608  19.634  0.00  0.00    +0.000 A 
ATOM     20  C   UNL     1       1.890   7.359  20.489  0.00  0.00    +0.000 A 
ATOM     21  C   UNL     1       1.313   8.550  20.030  0.00  0.00    +0.000 A 
ATOM     22  C   UNL     1       1.620   9.042  18.757  0.00  0.00    +0.000 A 
ATOM     23  C   UNL     1       2.447   8.296  17.912  0.00  0.00    +0.000 A 
BRANCH  21  24
ATOM     24  N   UNL     1       0.332   9.255  20.864  0.00  0.00    +0.000 N 
ATOM     25  O   UNL     1       0.345  10.495  20.843  0.00  0.00    +0.000 OA
ATOM     26  O   UNL     1      -0.447   8.573  21.545  0.00  0.00    +0.000 OA
ENDBRANCH  21  24
ENDBRANCH  17  18
ENDBRANCH   1  17
TORSDOF 8
ENDMDL
MODEL 8
REMARK VINA RESULT:      -7.7      1.299      1.941
REMARK  Name = 
REMARK  9 active torsions:
REMARK  status: ('A' for Active; 'I' for Inactive)
REMARK    1  A    between atoms: C_1  and  C_2
REMARK    2  A    between atoms: C_2  and  C_3
REMARK    3  A    between atoms: C_2  and  N_6
REMARK    4  A    between atoms: C_3  and  O_5
REMARK    5  A    between atoms: N_6  and  C_7
REMARK    6  A    between atoms: N_6  and  S_17
REMARK    7  A    between atoms: C_7  and  C_8
REMARK    8  A    between atoms: C_11  and  N_12
REMARK    9  A    between atoms: S_17  and  C_20
REMARK                            x       y       z     vdW  Elec       q    Type
REMARK                         _______ _______ _______ _____ _____    ______ ____
ROOT
ATOM      1  N   UNL     1       3.049   4.513  18.979  0.00  0.00    +0.000 NA
ENDROOT
BRANCH   1   2
ATOM      2  S   UNL     1       4.539   3.696  18.442  0.00  0.00    +0.000 S 
ATOM      3  O   UNL     1       5.167   2.977  19.520  0.00  0.00    +0.000 OA
ATOM      4  O   UNL     1       4.229   3.032  17.197  0.00  0.00    +0.000 OA
BRANCH   2   5
ATOM      5  C   UNL     1       5.626   5.061  18.135  0.00  0.00    +0.000 A 
ATOM      6  C   UNL     1       6.744   5.221  18.966  0.00  0.00    +0.000 A 
ATOM      7  C   UNL     1       7.625   6.279  18.740  0.00  0.00    +0.000 A 
ATOM      8  C   UNL     1       7.378   7.162  17.687  0.00  0.00    +0.000 A 
ATOM      9  C   UNL     1       6.271   6.983  16.853  0.00  0.00    +0.000 A 
ATOM     10  C   UNL     1       5.391   5.925  17.069  0.00  0.00    +0.000 A 
ENDBRANCH   2   5
ENDBRANCH   1   2
BRANCH   1  12
ATOM     11  C   UNL     1       0.959   4.197  20.445  0.00  0.00    +0.000 C 
ATOM     12  C   UNL     1       2.169   3.535  19.777  0.00  0.00    +0.000 C 
BRANCH  12  13
ATOM     13  C   UNL     1       1.594   2.412  18.918  0.00  0.00    +0.000 C 
ATOM     14  O   UNL     1       0.505   2.450  18.364  0.00  0.00    +0.000 OA
BRANCH  13  15
ATOM     15  O   UNL     1       2.435   1.355  18.781  0.00  0.00    +0.000 OA
ATOM     16  H   UNL     1       3.114   1.499  18.092  0.00  0.00    +0.000 HD
ENDBRANCH  13  15
ENDBRANCH  12  13
ENDBRANCH   1  12
BRANCH   1  17
ATOM     17  C   UNL     1       3.345   5.772  19.767  0.00  0.00    +0.000 C 
BRANCH  17  18
ATOM     18  C   UNL     1       2.490   6.971  19.393  0.00  0.00    +0.000 A 
ATOM     19  C   UNL     1       2.539   7.508  18.097  0.00  0.00    +0.000 A 
ATOM     20  C   UNL     1       1.983   8.765  17.834  0.00  0.00    +0.000 A 
ATOM     21  C   UNL     1       1.366   9.481  18.867  0.00  0.00    +0.000 A 
ATOM     22  C   UNL     1       1.219   8.911  20.136  0.00  0.00    +0.000 A 
ATOM     23  C   UNL     1       1.763   7.648  20.389  0.00  0.00    +0.000 A 
BRANCH  21  24
ATOM     24  N   UNL     1       0.927  10.863  18.636  0.00  0.00    +0.000 N 
ATOM     25  O   UNL     1       1.802  11.717  18.433  0.00  0.00    +0.000 OA
ATOM     26  O   UNL     1      -0.290  11.097  18.664  0.00  0.00    +0.000 OA
ENDBRANCH  21  24
ENDBRANCH  17  18
ENDBRANCH   1  17
TORSDOF 8
ENDMDL
MODEL 9
REMARK VINA RESULT:      -7.6      1.692      4.631
REMARK  Name = 
REMARK  9 active torsions:
REMARK  status: ('A' for Active; 'I' for Inactive)
REMARK    1  A    between atoms: C_1  and  C_2
REMARK    2  A    between atoms: C_2  and  C_3
REMARK    3  A    between atoms: C_2  and  N_6
REMARK    4  A    between atoms: C_3  and  O_5
REMARK    5  A    between atoms: N_6  and  C_7
REMARK    6  A    between atoms: N_6  and  S_17
REMARK    7  A    between atoms: C_7  and  C_8
REMARK    8  A    between atoms: C_11  and  N_12
REMARK    9  A    between atoms: S_17  and  C_20
REMARK                            x       y       z     vdW  Elec       q    Type
REMARK                         _______ _______ _______ _____ _____    ______ ____
ROOT
ATOM      1  N   UNL     1       4.408   5.138  18.130  0.00  0.00    +0.000 NA
ENDROOT
BRANCH   1   2
ATOM      2  S   UNL     1       3.460   3.695  17.687  0.00  0.00    +0.000 S 
ATOM      3  O   UNL     1       2.395   4.021  16.775  0.00  0.00    +0.000 OA
ATOM      4  O   UNL     1       4.406   2.651  17.371  0.00  0.00    +0.000 OA
BRANCH   2   5
ATOM      5  C   UNL     1       2.632   3.310  19.206  0.00  0.00    +0.000 A 
ATOM      6  C   UNL     1       3.407   2.900  20.301  0.00  0.00    +0.000 A 
ATOM      7  C   UNL     1       2.783   2.604  21.513  0.00  0.00    +0.000 A 
ATOM      8  C   UNL     1       1.395   2.719  21.616  0.00  0.00    +0.000 A 
ATOM      9  C   UNL     1       0.635   3.146  20.524  0.00  0.00    +0.000 A 
ATOM     10  C   UNL     1       1.252   3.451  19.313  0.00  0.00    +0.000 A 
ENDBRANCH   2   5
ENDBRANCH   1   2
BRANCH   1  12
ATOM     11  C   UNL     1       6.302   5.346  16.402  0.00  0.00    +0.000 C 
ATOM     12  C   UNL     1       5.897   4.908  17.813  0.00  0.00    +0.000 C 
BRANCH  12  13
ATOM     13  C   UNL     1       6.831   5.661  18.757  0.00  0.00    +0.000 C 
ATOM     14  O   UNL     1       7.037   5.353  19.921  0.00  0.00    +0.000 OA
BRANCH  13  15
ATOM     15  O   UNL     1       7.465   6.705  18.165  0.00  0.00    +0.000 OA
ATOM     16  H   UNL     1       8.071   6.424  17.450  0.00  0.00    +0.000 HD
ENDBRANCH  13  15
ENDBRANCH  12  13
ENDBRANCH   1  12
BRANCH   1  17
ATOM     17  C   UNL     1       3.879   6.391  17.464  0.00  0.00    +0.000 C 
BRANCH  17  18
ATOM     18  C   UNL     1       2.827   7.140  18.266  0.00  0.00    +0.000 A 
ATOM     19  C   UNL     1       2.242   8.311  17.760  0.00  0.00    +0.000 A 
ATOM     20  C   UNL     1       1.500   9.148  18.601  0.00  0.00    +0.000 A 
ATOM     21  C   UNL     1       1.334   8.805  19.949  0.00  0.00    +0.000 A 
ATOM     22  C   UNL     1       1.823   7.590  20.438  0.00  0.00    +0.000 A 
ATOM     23  C   UNL     1       2.549   6.750  19.589  0.00  0.00    +0.000 A 
BRANCH  21  24
ATOM     24  N   UNL     1       0.697   9.756  20.870  0.00  0.00    +0.000 N 
ATOM     25  O   UNL     1       1.311  10.051  21.906  0.00  0.00    +0.000 OA
ATOM     26  O   UNL     1      -0.417  10.204  20.562  0.00  0.00    +0.000 OA
ENDBRANCH  21  24
ENDBRANCH  17  18
ENDBRANCH   1  17
TORSDOF 8
ENDMDL
