MODEL 1
REMARK VINA RESULT:      -7.8      0.000      0.000
REMARK  Name = 
REMARK  6 active torsions:
REMARK  status: ('A' for Active; 'I' for Inactive)
REMARK    1  A    between atoms: N_1  and  C_2
REMARK    2  A    between atoms: C_4  and  C_5
REMARK    3  A    between atoms: C_8  and  S_9
REMARK    4  A    between atoms: S_9  and  C_10
REMARK    5  A    between atoms: C_10  and  C_11
REMARK    6  A    between atoms: C_19  and  N_20
REMARK                            x       y       z     vdW  Elec       q    Type
REMARK                         _______ _______ _______ _____ _____    ______ ____
ROOT
ATOM      1  C   UNL     1       2.524   7.639  18.545  0.00  0.00    +0.000 A 
ATOM      2  N   UNL     1       2.746   8.231  17.389  0.00  0.00    +0.000 NA
ATOM      3  N   UNL     1       2.103   9.444  17.442  0.00  0.00    +0.000 NA
ATOM      4  C   UNL     1       1.537   9.530  18.629  0.00  0.00    +0.000 A 
ATOM      5  O   UNL     1       1.772   8.413  19.398  0.00  0.00    +0.000 OA
ENDROOT
BRANCH   1   8
ATOM      6  C   UNL     1       4.629   4.521  18.852  0.00  0.00    +0.000 A 
ATOM      7  C   UNL     1       4.174   5.800  18.509  0.00  0.00    +0.000 A 
ATOM      8  C   UNL     1       2.950   6.314  18.984  0.00  0.00    +0.000 A 
ATOM      9  C   UNL     1       2.189   5.524  19.853  0.00  0.00    +0.000 A 
ATOM     10  C   UNL     1       2.669   4.262  20.243  0.00  0.00    +0.000 A 
ATOM     11  C   UNL     1       3.891   3.772  19.764  0.00  0.00    +0.000 A 
BRANCH   6  12
ATOM     12  N   UNL     1       5.909   4.107  18.472  0.00  0.00    +0.000 N 
ATOM     13  H   UNL     1       6.209   4.433  17.558  0.00  0.00    +0.000 HD
ATOM     14  H   UNL     1       6.098   3.117  18.605  0.00  0.00    +0.000 HD
ENDBRANCH   6  12
BRANCH  10  15
ATOM     15  N   UNL     1       1.883   3.444  21.175  0.00  0.00    +0.000 N 
ATOM     16  O   UNL     1       2.377   3.207  22.286  0.00  0.00    +0.000 OA
ATOM     17  O   UNL     1       0.773   3.044  20.800  0.00  0.00    +0.000 OA
ENDBRANCH  10  15
ENDBRANCH   1   8
BRANCH   4  18
ATOM     18  S   UNL     1       0.528  10.867  19.072  0.00  0.00    +0.000 S 
BRANCH  18  19
ATOM     19  C   UNL     1      -1.090  10.092  19.312  0.00  0.00    +0.000 C 
BRANCH  19  20
ATOM     20  C   UNL     1      -2.004  10.421  18.149  0.00  0.00    +0.000 A 
ATOM     21  C   UNL     1      -3.085  11.300  18.319  0.00  0.00    +0.000 A 
ATOM     22  C   UNL     1      -3.975  11.544  17.271  0.00  0.00    +0.000 A 
ATOM     23  C   UNL     1      -3.798  10.914  16.040  0.00  0.00    +0.000 A 
ATOM     24  C   UNL     1      -2.726  10.043  15.856  0.00  0.00    +0.000 A 
ATOM     25  C   UNL     1      -1.833   9.796  16.903  0.00  0.00    +0.000 A 
ENDBRANCH  19  20
ENDBRANCH  18  19
ENDBRANCH   4  18
TORSDOF 6
ENDMDL
MODEL 2
REMARK VINA RESULT:      -7.7      3.429      7.068
REMARK  Name = 
REMARK  6 active torsions:
REMARK  status: ('A' for Active; 'I' for Inactive)
REMARK    1  A    between atoms: N_1  and  C_2
REMARK    2  A    between atoms: C_4  and  C_5
REMARK    3  A    between atoms: C_8  and  S_9
REMARK    4  A    between atoms: S_9  and  C_10
REMARK    5  A    between atoms: C_10  and  C_11
REMARK    6  A    between atoms: C_19  and  N_20
REMARK                            x       y       z     vdW  Elec       q    Type
REMARK                         _______ _______ _______ _____ _____    ______ ____
ROOT
ATOM      1  C   UNL     1       2.954   7.451  18.235  0.00  0.00    +0.000 A 
ATOM      2  N   UNL     1       3.641   7.647  17.129  0.00  0.00    +0.000 NA
ATOM      3  N   UNL     1       4.480   6.568  16.994  0.00  0.00    +0.000 NA
ATOM      4  C   UNL     1       4.251   5.770  18.017  0.00  0.00    +0.000 A 
ATOM      5  O   UNL     1       3.275   6.263  18.852  0.00  0.00    +0.000 OA
ENDROOT
BRANCH   1   8
ATOM      6  C   UNL     1       0.256  10.072  18.554  0.00  0.00    +0.000 A 
ATOM      7  C   UNL     1       1.199   9.179  18.031  0.00  0.00    +0.000 A 
ATOM      8  C   UNL     1       1.958   8.321  18.854  0.00  0.00    +0.000 A 
ATOM      9  C   UNL     1       1.730   8.348  20.234  0.00  0.00    +0.000 A 
ATOM     10  C   UNL     1       0.745   9.203  20.757  0.00  0.00    +0.000 A 
ATOM     11  C   UNL     1      -0.003  10.044  19.922  0.00  0.00    +0.000 A 
BRANCH   6  12
ATOM     12  N   UNL     1      -0.570  10.802  17.695  0.00  0.00    +0.000 N 
ATOM     13  H   UNL     1      -0.180  10.976  16.773  0.00  0.00    +0.000 HD
ATOM     14  H   UNL     1      -0.979  11.640  18.101  0.00  0.00    +0.000 HD
ENDBRANCH   6  12
BRANCH  10  15
ATOM     15  N   UNL     1       0.486   9.213  22.202  0.00  0.00    +0.000 N 
ATOM     16  O   UNL     1       1.446   9.430  22.955  0.00  0.00    +0.000 OA
ATOM     17  O   UNL     1      -0.674   9.010  22.584  0.00  0.00    +0.000 OA
ENDBRANCH  10  15
ENDBRANCH   1   8
BRANCH   4  18
ATOM     18  S   UNL     1       5.181   4.333  18.289  0.00  0.00    +0.000 S 
BRANCH  18  19
ATOM     19  C   UNL     1       3.980   3.011  17.995  0.00  0.00    +0.000 C 
BRANCH  19  20
ATOM     20  C   UNL     1       2.995   2.935  19.144  0.00  0.00    +0.000 A 
ATOM     21  C   UNL     1       1.644   3.261  18.948  0.00  0.00    +0.000 A 
ATOM     22  C   UNL     1       0.750   3.268  20.021  0.00  0.00    +0.000 A 
ATOM     23  C   UNL     1       1.194   2.951  21.303  0.00  0.00    +0.000 A 
ATOM     24  C   UNL     1       2.531   2.620  21.512  0.00  0.00    +0.000 A 
ATOM     25  C   UNL     1       3.429   2.612  20.440  0.00  0.00    +0.000 A 
ENDBRANCH  19  20
ENDBRANCH  18  19
ENDBRANCH   4  18
TORSDOF 6
ENDMDL
MODEL 3
REMARK VINA RESULT:      -7.6      3.315      7.351
REMARK  Name = 
REMARK  6 active torsions:
REMARK  status: ('A' for Active; 'I' for Inactive)
REMARK    1  A    between atoms: N_1  and  C_2
REMARK    2  A    between atoms: C_4  and  C_5
REMARK    3  A    between atoms: C_8  and  S_9
REMARK    4  A    between atoms: S_9  and  C_10
REMARK    5  A    between atoms: C_10  and  C_11
REMARK    6  A    between atoms: C_19  and  N_20
REMARK                            x       y       z     vdW  Elec       q    Type
REMARK                         _______ _______ _______ _____ _____    ______ ____
ROOT
ATOM      1  C   UNL     1       1.569   9.207  18.626  0.00  0.00    +0.000 A 
ATOM      2  N   UNL     1       2.026   9.428  17.411  0.00  0.00    +0.000 NA
ATOM      3  N   UNL     1       2.902   8.407  17.133  0.00  0.00    +0.000 NA
ATOM      4  C   UNL     1       2.922   7.617  18.186  0.00  0.00    +0.000 A 
ATOM      5  O   UNL     1       2.082   8.059  19.183  0.00  0.00    +0.000 OA
ENDROOT
BRANCH   1   8
ATOM      6  C   UNL     1      -0.982  11.865  19.448  0.00  0.00    +0.000 A 
ATOM      7  C   UNL     1      -0.106  11.019  18.757  0.00  0.00    +0.000 A 
ATOM      8  C   UNL     1       0.643  10.019  19.410  0.00  0.00    +0.000 A 
ATOM      9  C   UNL     1       0.472   9.853  20.789  0.00  0.00    +0.000 A 
ATOM     10  C   UNL     1      -0.447  10.663  21.476  0.00  0.00    +0.000 A 
ATOM     11  C   UNL     1      -1.187  11.648  20.808  0.00  0.00    +0.000 A 
BRANCH   6  12
ATOM     12  N   UNL     1      -1.806  12.748  18.744  0.00  0.00    +0.000 N 
ATOM     13  H   UNL     1      -2.272  12.344  17.935  0.00  0.00    +0.000 HD
ATOM     14  H   UNL     1      -1.388  13.650  18.531  0.00  0.00    +0.000 HD
ENDBRANCH   6  12
BRANCH  10  15
ATOM     15  N   UNL     1      -0.647  10.472  22.918  0.00  0.00    +0.000 N 
ATOM     16  O   UNL     1      -1.689  10.919  23.417  0.00  0.00    +0.000 OA
ATOM     17  O   UNL     1       0.233   9.871  23.550  0.00  0.00    +0.000 OA
ENDBRANCH  10  15
ENDBRANCH   1   8
BRANCH   4  18
ATOM     18  S   UNL     1       3.988   6.254  18.294  0.00  0.00    +0.000 S 
BRANCH  18  19
ATOM     19  C   UNL     1       2.947   4.881  17.741  0.00  0.00    +0.000 C 
BRANCH  19  20
ATOM     20  C   UNL     1       2.290   4.211  18.931  0.00  0.00    +0.000 A 
ATOM     21  C   UNL     1       2.698   4.521  20.238  0.00  0.00    +0.000 A 
ATOM     22  C   UNL     1       2.150   3.849  21.333  0.00  0.00    +0.000 A 
ATOM     23  C   UNL     1       1.189   2.860  21.137  0.00  0.00    +0.000 A 
ATOM     24  C   UNL     1       0.770   2.545  19.846  0.00  0.00    +0.000 A 
ATOM     25  C   UNL     1       1.317   3.216  18.748  0.00  0.00    +0.000 A 
ENDBRANCH  19  20
ENDBRANCH  18  19
ENDBRANCH   4  18
TORSDOF 6
ENDMDL
MODEL 4
REMARK VINA RESULT:      -7.6      2.643      3.661
REMARK  Name = 
REMARK  6 active torsions:
REMARK  status: ('A' for Active; 'I' for Inactive)
REMARK    1  A    between atoms: N_1  and  C_2
REMARK    2  A    between atoms: C_4  and  C_5
REMARK    3  A    between atoms: C_8  and  S_9
REMARK    4  A    between atoms: S_9  and  C_10
REMARK    5  A    between atoms: C_10  and  C_11
REMARK    6  A    between atoms: C_19  and  N_20
REMARK                            x       y       z     vdW  Elec       q    Type
REMARK                         _______ _______ _______ _____ _____    ______ ____
ROOT
ATOM      1  C   UNL     1       2.674   7.089  18.604  0.00  0.00    +0.000 A 
ATOM      2  N   UNL     1       2.235   7.133  19.844  0.00  0.00    +0.000 NA
ATOM      3  N   UNL     1       1.555   8.320  19.975  0.00  0.00    +0.000 NA
ATOM      4  C   UNL     1       1.608   8.927  18.806  0.00  0.00    +0.000 A 
ATOM      5  O   UNL     1       2.300   8.192  17.871  0.00  0.00    +0.000 OA
ENDROOT
BRANCH   1   8
ATOM      6  C   UNL     1       3.893   3.661  17.596  0.00  0.00    +0.000 A 
ATOM      7  C   UNL     1       3.137   4.706  18.142  0.00  0.00    +0.000 A 
ATOM      8  C   UNL     1       3.488   6.060  17.964  0.00  0.00    +0.000 A 
ATOM      9  C   UNL     1       4.613   6.359  17.187  0.00  0.00    +0.000 A 
ATOM     10  C   UNL     1       5.342   5.316  16.592  0.00  0.00    +0.000 A 
ATOM     11  C   UNL     1       4.973   3.977  16.775  0.00  0.00    +0.000 A 
BRANCH   6  12
ATOM     12  N   UNL     1       3.433   2.344  17.679  0.00  0.00    +0.000 N 
ATOM     13  H   UNL     1       4.161   1.636  17.662  0.00  0.00    +0.000 HD
ATOM     14  H   UNL     1       2.665   2.117  17.052  0.00  0.00    +0.000 HD
ENDBRANCH   6  12
BRANCH  10  15
ATOM     15  N   UNL     1       6.506   5.631  15.754  0.00  0.00    +0.000 N 
ATOM     16  O   UNL     1       7.472   6.183  16.300  0.00  0.00    +0.000 OA
ATOM     17  O   UNL     1       6.458   5.322  14.557  0.00  0.00    +0.000 OA
ENDBRANCH  10  15
ENDBRANCH   1   8
BRANCH   4  18
ATOM     18  S   UNL     1       0.961  10.516  18.565  0.00  0.00    +0.000 S 
BRANCH  18  19
ATOM     19  C   UNL     1      -0.652  10.426  19.381  0.00  0.00    +0.000 C 
BRANCH  19  20
ATOM     20  C   UNL     1      -1.762  10.521  18.355  0.00  0.00    +0.000 A 
ATOM     21  C   UNL     1      -1.684   9.804  17.151  0.00  0.00    +0.000 A 
ATOM     22  C   UNL     1      -2.667   9.951  16.170  0.00  0.00    +0.000 A 
ATOM     23  C   UNL     1      -3.740  10.815  16.378  0.00  0.00    +0.000 A 
ATOM     24  C   UNL     1      -3.834  11.529  17.571  0.00  0.00    +0.000 A 
ATOM     25  C   UNL     1      -2.852  11.385  18.555  0.00  0.00    +0.000 A 
ENDBRANCH  19  20
ENDBRANCH  18  19
ENDBRANCH   4  18
TORSDOF 6
ENDMDL
MODEL 5
REMARK VINA RESULT:      -7.6      3.406      7.085
REMARK  Name = 
REMARK  6 active torsions:
REMARK  status: ('A' for Active; 'I' for Inactive)
REMARK    1  A    between atoms: N_1  and  C_2
REMARK    2  A    between atoms: C_4  and  C_5
REMARK    3  A    between atoms: C_8  and  S_9
REMARK    4  A    between atoms: S_9  and  C_10
REMARK    5  A    between atoms: C_10  and  C_11
REMARK    6  A    between atoms: C_19  and  N_20
REMARK                            x       y       z     vdW  Elec       q    Type
REMARK                         _______ _______ _______ _____ _____    ______ ____
ROOT
ATOM      1  C   UNL     1       2.829   7.602  18.112  0.00  0.00    +0.000 A 
ATOM      2  N   UNL     1       3.475   7.824  16.986  0.00  0.00    +0.000 NA
ATOM      3  N   UNL     1       4.333   6.765  16.813  0.00  0.00    +0.000 NA
ATOM      4  C   UNL     1       4.155   5.952  17.834  0.00  0.00    +0.000 A 
ATOM      5  O   UNL     1       3.196   6.417  18.706  0.00  0.00    +0.000 OA
ENDROOT
BRANCH   1   8
ATOM      6  C   UNL     1       0.088  10.161  18.546  0.00  0.00    +0.000 A 
ATOM      7  C   UNL     1       1.033   9.294  17.983  0.00  0.00    +0.000 A 
ATOM      8  C   UNL     1       1.836   8.444  18.772  0.00  0.00    +0.000 A 
ATOM      9  C   UNL     1       1.651   8.451  20.158  0.00  0.00    +0.000 A 
ATOM     10  C   UNL     1       0.666   9.280  20.722  0.00  0.00    +0.000 A 
ATOM     11  C   UNL     1      -0.126  10.113  19.921  0.00  0.00    +0.000 A 
BRANCH   6  12
ATOM     12  N   UNL     1      -0.780  10.882  17.722  0.00  0.00    +0.000 N 
ATOM     13  H   UNL     1      -1.415  11.506  18.213  0.00  0.00    +0.000 HD
ATOM     14  H   UNL     1      -1.259  10.331  17.015  0.00  0.00    +0.000 HD
ENDBRANCH   6  12
BRANCH  10  15
ATOM     15  N   UNL     1       0.453   9.269  22.175  0.00  0.00    +0.000 N 
ATOM     16  O   UNL     1       1.438   9.467  22.899  0.00  0.00    +0.000 OA
ATOM     17  O   UNL     1      -0.696   9.068  22.590  0.00  0.00    +0.000 OA
ENDBRANCH  10  15
ENDBRANCH   1   8
BRANCH   4  18
ATOM     18  S   UNL     1       5.124   4.534  18.061  0.00  0.00    +0.000 S 
BRANCH  18  19
ATOM     19  C   UNL     1       3.932   3.189  17.844  0.00  0.00    +0.000 C 
BRANCH  19  20
ATOM     20  C   UNL     1       3.002   3.118  19.037  0.00  0.00    +0.000 A 
ATOM     21  C   UNL     1       3.500   2.803  20.311  0.00  0.00    +0.000 A 
ATOM     22  C   UNL     1       2.635   2.660  21.398  0.00  0.00    +0.000 A 
ATOM     23  C   UNL     1       1.262   2.829  21.227  0.00  0.00    +0.000 A 
ATOM     24  C   UNL     1       0.754   3.148  19.970  0.00  0.00    +0.000 A 
ATOM     25  C   UNL     1       1.617   3.292  18.879  0.00  0.00    +0.000 A 
ENDBRANCH  19  20
ENDBRANCH  18  19
ENDBRANCH   4  18
TORSDOF 6
ENDMDL
MODEL 6
REMARK VINA RESULT:      -7.6      0.885      1.128
REMARK  Name = 
REMARK  6 active torsions:
REMARK  status: ('A' for Active; 'I' for Inactive)
REMARK    1  A    between atoms: N_1  and  C_2
REMARK    2  A    between atoms: C_4  and  C_5
REMARK    3  A    between atoms: C_8  and  S_9
REMARK    4  A    between atoms: S_9  and  C_10
REMARK    5  A    between atoms: C_10  and  C_11
REMARK    6  A    between atoms: C_19  and  N_20
REMARK                            x       y       z     vdW  Elec       q    Type
REMARK                         _______ _______ _______ _____ _____    ______ ____
ROOT
ATOM      1  C   UNL     1       2.577   7.291  18.930  0.00  0.00    +0.000 A 
ATOM      2  N   UNL     1       2.635   8.028  17.840  0.00  0.00    +0.000 NA
ATOM      3  N   UNL     1       1.931   9.177  18.108  0.00  0.00    +0.000 NA
ATOM      4  C   UNL     1       1.493   9.081  19.347  0.00  0.00    +0.000 A 
ATOM      5  O   UNL     1       1.878   7.903  19.944  0.00  0.00    +0.000 OA
ENDROOT
BRANCH   1   8
ATOM      6  C   UNL     1       4.959   4.369  18.742  0.00  0.00    +0.000 A 
ATOM      7  C   UNL     1       4.385   5.638  18.605  0.00  0.00    +0.000 A 
ATOM      8  C   UNL     1       3.127   5.958  19.156  0.00  0.00    +0.000 A 
ATOM      9  C   UNL     1       2.454   4.976  19.891  0.00  0.00    +0.000 A 
ATOM     10  C   UNL     1       3.052   3.718  20.078  0.00  0.00    +0.000 A 
ATOM     11  C   UNL     1       4.306   3.422  19.527  0.00  0.00    +0.000 A 
BRANCH   6  12
ATOM     12  N   UNL     1       6.266   4.138  18.302  0.00  0.00    +0.000 N 
ATOM     13  H   UNL     1       6.984   4.645  18.811  0.00  0.00    +0.000 HD
ATOM     14  H   UNL     1       6.397   4.200  17.295  0.00  0.00    +0.000 HD
ENDBRANCH   6  12
BRANCH  10  15
ATOM     15  N   UNL     1       2.357   2.696  20.871  0.00  0.00    +0.000 N 
ATOM     16  O   UNL     1       1.386   2.129  20.351  0.00  0.00    +0.000 OA
ATOM     17  O   UNL     1       2.785   2.456  22.008  0.00  0.00    +0.000 OA
ENDBRANCH  10  15
ENDBRANCH   1   8
BRANCH   4  18
ATOM     18  S   UNL     1       0.459  10.281  20.053  0.00  0.00    +0.000 S 
BRANCH  18  19
ATOM     19  C   UNL     1       0.028  11.325  18.639  0.00  0.00    +0.000 C 
BRANCH  19  20
ATOM     20  C   UNL     1      -1.416  11.094  18.240  0.00  0.00    +0.000 A 
ATOM     21  C   UNL     1      -2.441  11.880  18.787  0.00  0.00    +0.000 A 
ATOM     22  C   UNL     1      -3.779  11.619  18.482  0.00  0.00    +0.000 A 
ATOM     23  C   UNL     1      -4.109  10.568  17.629  0.00  0.00    +0.000 A 
ATOM     24  C   UNL     1      -3.101   9.782  17.074  0.00  0.00    +0.000 A 
ATOM     25  C   UNL     1      -1.761  10.041  17.377  0.00  0.00    +0.000 A 
ENDBRANCH  19  20
ENDBRANCH  18  19
ENDBRANCH   4  18
TORSDOF 6
ENDMDL
MODEL 7
REMARK VINA RESULT:      -7.6      2.559      3.477
REMARK  Name = 
REMARK  6 active torsions:
REMARK  status: ('A' for Active; 'I' for Inactive)
REMARK    1  A    between atoms: N_1  and  C_2
REMARK    2  A    between atoms: C_4  and  C_5
REMARK    3  A    between atoms: C_8  and  S_9
REMARK    4  A    between atoms: S_9  and  C_10
REMARK    5  A    between atoms: C_10  and  C_11
REMARK    6  A    between atoms: C_19  and  N_20
REMARK                            x       y       z     vdW  Elec       q    Type
REMARK                         _______ _______ _______ _____ _____    ______ ____
ROOT
ATOM      1  C   UNL     1       2.805   7.880  18.019  0.00  0.00    +0.000 A 
ATOM      2  N   UNL     1       2.627   8.962  17.290  0.00  0.00    +0.000 NA
ATOM      3  N   UNL     1       1.742   9.755  17.980  0.00  0.00    +0.000 NA
ATOM      4  C   UNL     1       1.438   9.119  19.092  0.00  0.00    +0.000 A 
ATOM      5  O   UNL     1       2.091   7.912  19.194  0.00  0.00    +0.000 OA
ENDROOT
BRANCH   1   8
ATOM      6  C   UNL     1       3.795   4.251  17.700  0.00  0.00    +0.000 A 
ATOM      7  C   UNL     1       3.065   5.424  17.926  0.00  0.00    +0.000 A 
ATOM      8  C   UNL     1       3.617   6.705  17.717  0.00  0.00    +0.000 A 
ATOM      9  C   UNL     1       4.927   6.794  17.236  0.00  0.00    +0.000 A 
ATOM     10  C   UNL     1       5.645   5.619  16.956  0.00  0.00    +0.000 A 
ATOM     11  C   UNL     1       5.076   4.355  17.165  0.00  0.00    +0.000 A 
BRANCH   6  12
ATOM     12  N   UNL     1       3.166   3.006  17.787  0.00  0.00    +0.000 N 
ATOM     13  H   UNL     1       3.462   2.329  17.089  0.00  0.00    +0.000 HD
ATOM     14  H   UNL     1       2.154   3.040  17.879  0.00  0.00    +0.000 HD
ENDBRANCH   6  12
BRANCH  10  15
ATOM     15  N   UNL     1       7.011   5.712  16.427  0.00  0.00    +0.000 N 
ATOM     16  O   UNL     1       7.598   6.797  16.542  0.00  0.00    +0.000 OA
ATOM     17  O   UNL     1       7.498   4.702  15.902  0.00  0.00    +0.000 OA
ENDBRANCH  10  15
ENDBRANCH   1   8
BRANCH   4  18
ATOM     18  S   UNL     1       0.260   9.727  20.208  0.00  0.00    +0.000 S 
BRANCH  18  19
ATOM     19  C   UNL     1      -0.263  11.280  19.439  0.00  0.00    +0.000 C 
BRANCH  19  20
ATOM     20  C   UNL     1      -1.625  11.112  18.798  0.00  0.00    +0.000 A 
ATOM     21  C   UNL     1      -2.693  11.947  19.164  0.00  0.00    +0.000 A 
ATOM     22  C   UNL     1      -3.969  11.745  18.633  0.00  0.00    +0.000 A 
ATOM     23  C   UNL     1      -4.195  10.707  17.731  0.00  0.00    +0.000 A 
ATOM     24  C   UNL     1      -3.143   9.874  17.354  0.00  0.00    +0.000 A 
ATOM     25  C   UNL     1      -1.865  10.074  17.884  0.00  0.00    +0.000 A 
ENDBRANCH  19  20
ENDBRANCH  18  19
ENDBRANCH   4  18
TORSDOF 6
ENDMDL
MODEL 8
REMARK VINA RESULT:      -7.6      5.135      6.963
REMARK  Name = 
REMARK  6 active torsions:
REMARK  status: ('A' for Active; 'I' for Inactive)
REMARK    1  A    between atoms: N_1  and  C_2
REMARK    2  A    between atoms: C_4  and  C_5
REMARK    3  A    between atoms: C_8  and  S_9
REMARK    4  A    between atoms: S_9  and  C_10
REMARK    5  A    between atoms: C_10  and  C_11
REMARK    6  A    between atoms: C_19  and  N_20
REMARK                            x       y       z     vdW  Elec       q    Type
REMARK                         _______ _______ _______ _____ _____    ______ ____
ROOT
ATOM      1  C   UNL     1       5.496   4.433  16.329  0.00  0.00    +0.000 A 
ATOM      2  N   UNL     1       6.149   4.723  17.435  0.00  0.00    +0.000 NA
ATOM      3  N   UNL     1       5.222   4.713  18.449  0.00  0.00    +0.000 NA
ATOM      4  C   UNL     1       4.060   4.407  17.908  0.00  0.00    +0.000 A 
ATOM      5  O   UNL     1       4.158   4.201  16.550  0.00  0.00    +0.000 OA
ENDROOT
BRANCH   1   8
ATOM      6  C   UNL     1       7.658   5.144  13.317  0.00  0.00    +0.000 A 
ATOM      7  C   UNL     1       7.134   5.131  14.616  0.00  0.00    +0.000 A 
ATOM      8  C   UNL     1       6.009   4.357  14.964  0.00  0.00    +0.000 A 
ATOM      9  C   UNL     1       5.424   3.552  13.980  0.00  0.00    +0.000 A 
ATOM     10  C   UNL     1       5.981   3.519  12.690  0.00  0.00    +0.000 A 
ATOM     11  C   UNL     1       7.103   4.293  12.365  0.00  0.00    +0.000 A 
BRANCH   6  12
ATOM     12  N   UNL     1       8.854   5.816  13.050  0.00  0.00    +0.000 N 
ATOM     13  H   UNL     1       9.560   5.736  13.777  0.00  0.00    +0.000 HD
ATOM     14  H   UNL     1       8.747   6.774  12.728  0.00  0.00    +0.000 HD
ENDBRANCH   6  12
BRANCH  10  15
ATOM     15  N   UNL     1       5.384   2.655  11.664  0.00  0.00    +0.000 N 
ATOM     16  O   UNL     1       4.263   2.963  11.237  0.00  0.00    +0.000 OA
ATOM     17  O   UNL     1       6.037   1.675  11.282  0.00  0.00    +0.000 OA
ENDBRANCH  10  15
ENDBRANCH   1   8
BRANCH   4  18
ATOM     18  S   UNL     1       2.592   4.392  18.828  0.00  0.00    +0.000 S 
BRANCH  18  19
ATOM     19  C   UNL     1       2.882   5.672  20.075  0.00  0.00    +0.000 C 
BRANCH  19  20
ATOM     20  C   UNL     1       2.280   6.987  19.622  0.00  0.00    +0.000 A 
ATOM     21  C   UNL     1       2.476   7.446  18.310  0.00  0.00    +0.000 A 
ATOM     22  C   UNL     1       1.989   8.693  17.912  0.00  0.00    +0.000 A 
ATOM     23  C   UNL     1       1.303   9.498  18.820  0.00  0.00    +0.000 A 
ATOM     24  C   UNL     1       1.097   9.053  20.124  0.00  0.00    +0.000 A 
ATOM     25  C   UNL     1       1.582   7.805  20.525  0.00  0.00    +0.000 A 
ENDBRANCH  19  20
ENDBRANCH  18  19
ENDBRANCH   4  18
TORSDOF 6
ENDMDL
MODEL 9
REMARK VINA RESULT:      -7.5      2.104      2.302
REMARK  Name = 
REMARK  6 active torsions:
REMARK  status: ('A' for Active; 'I' for Inactive)
REMARK    1  A    between atoms: N_1  and  C_2
REMARK    2  A    between atoms: C_4  and  C_5
REMARK    3  A    between atoms: C_8  and  S_9
REMARK    4  A    between atoms: S_9  and  C_10
REMARK    5  A    between atoms: C_10  and  C_11
REMARK    6  A    between atoms: C_19  and  N_20
REMARK                            x       y       z     vdW  Elec       q    Type
REMARK                         _______ _______ _______ _____ _____    ______ ____
ROOT
ATOM      1  C   UNL     1       2.219   7.680  18.847  0.00  0.00    +0.000 A 
ATOM      2  N   UNL     1       1.916   7.768  20.125  0.00  0.00    +0.000 NA
ATOM      3  N   UNL     1       1.236   8.952  20.284  0.00  0.00    +0.000 NA
ATOM      4  C   UNL     1       1.152   9.512  19.094  0.00  0.00    +0.000 A 
ATOM      5  O   UNL     1       1.751   8.748  18.118  0.00  0.00    +0.000 OA
ENDROOT
BRANCH   1   8
ATOM      6  C   UNL     1       4.867   6.063  16.697  0.00  0.00    +0.000 A 
ATOM      7  C   UNL     1       4.115   7.000  17.414  0.00  0.00    +0.000 A 
ATOM      8  C   UNL     1       2.976   6.636  18.163  0.00  0.00    +0.000 A 
ATOM      9  C   UNL     1       2.615   5.285  18.210  0.00  0.00    +0.000 A 
ATOM     10  C   UNL     1       3.400   4.334  17.536  0.00  0.00    +0.000 A 
ATOM     11  C   UNL     1       4.531   4.716  16.802  0.00  0.00    +0.000 A 
BRANCH   6  12
ATOM     12  N   UNL     1       6.064   6.445  16.084  0.00  0.00    +0.000 N 
ATOM     13  H   UNL     1       6.464   7.312  16.433  0.00  0.00    +0.000 HD
ATOM     14  H   UNL     1       6.058   6.410  15.068  0.00  0.00    +0.000 HD
ENDBRANCH   6  12
BRANCH  10  15
ATOM     15  N   UNL     1       3.037   2.913  17.607  0.00  0.00    +0.000 N 
ATOM     16  O   UNL     1       1.840   2.621  17.482  0.00  0.00    +0.000 OA
ATOM     17  O   UNL     1       3.947   2.091  17.779  0.00  0.00    +0.000 OA
ENDBRANCH  10  15
ENDBRANCH   1   8
BRANCH   4  18
ATOM     18  S   UNL     1       0.458  11.083  18.864  0.00  0.00    +0.000 S 
BRANCH  18  19
ATOM     19  C   UNL     1      -1.269  10.837  19.346  0.00  0.00    +0.000 C 
BRANCH  19  20
ATOM     20  C   UNL     1      -2.157  10.821  18.118  0.00  0.00    +0.000 A 
ATOM     21  C   UNL     1      -3.337  11.581  18.082  0.00  0.00    +0.000 A 
ATOM     22  C   UNL     1      -4.197  11.508  16.983  0.00  0.00    +0.000 A 
ATOM     23  C   UNL     1      -3.889  10.676  15.908  0.00  0.00    +0.000 A 
ATOM     24  C   UNL     1      -2.719   9.921  15.928  0.00  0.00    +0.000 A 
ATOM     25  C   UNL     1      -1.856   9.992  17.026  0.00  0.00    +0.000 A 
ENDBRANCH  19  20
ENDBRANCH  18  19
ENDBRANCH   4  18
TORSDOF 6
ENDMDL
