MODEL 1
REMARK VINA RESULT:      -7.2      0.000      0.000
REMARK  Name = 
REMARK  6 active torsions:
REMARK  status: ('A' for Active; 'I' for Inactive)
REMARK    1  A    between atoms: C_1  and  C_2
REMARK    2  A    between atoms: C_2  and  C_3
REMARK    3  A    between atoms: C_2  and  O_4
REMARK    4  A    between atoms: O_4  and  C_5
REMARK    5  A    between atoms: C_8  and  C_9
REMARK    6  A    between atoms: N_11  and  C_12
REMARK                            x       y       z     vdW  Elec       q    Type
REMARK                         _______ _______ _______ _____ _____    ______ ____
ROOT
ATOM      1  C   UNL     1       1.927   6.802  20.094  0.00  0.00    +0.000 C 
ATOM      2  O   UNL     1       1.364   6.150  20.967  0.00  0.00    +0.000 OA
ATOM      3  N   UNL     1       1.852   8.174  19.954  0.00  0.00    +0.000 N 
ATOM      4  H   UNL     1       2.312   8.586  19.151  0.00  0.00    +0.000 HD
ENDROOT
BRANCH   3   5
ATOM      5  C   UNL     1       1.117   9.030  20.751  0.00  0.00    +0.000 A 
ATOM      6  C   UNL     1       1.192   9.069  22.260  0.00  0.00    +0.000 A 
ATOM      7  N   UNL     1       0.497   9.831  23.057  0.00  0.00    +0.000 NA
ATOM      8  C   UNL     1      -0.378  10.679  22.451  0.00  0.00    +0.000 A 
ATOM      9  C   UNL     1      -1.275  11.583  22.964  0.00  0.00    +0.000 A 
ATOM     10  C   UNL     1      -1.893  12.155  21.844  0.00  0.00    +0.000 A 
ATOM     11  N   UNL     1      -1.440  11.658  20.691  0.00  0.00    +0.000 NA
ATOM     12  N   UNL     1      -0.514  10.737  21.062  0.00  0.00    +0.000 N 
ATOM     13  C   UNL     1       0.241   9.909  20.235  0.00  0.00    +0.000 A 
ENDBRANCH   3   5
BRANCH   1  17
ATOM     14  C   UNL     1       4.164   4.819  17.007  0.00  0.00    +0.000 A 
ATOM     15  C   UNL     1       4.199   6.200  17.169  0.00  0.00    +0.000 A 
ATOM     16  C   UNL     1       3.489   6.806  18.203  0.00  0.00    +0.000 A 
ATOM     17  C   UNL     1       2.716   6.043  19.088  0.00  0.00    +0.000 A 
ATOM     18  C   UNL     1       2.665   4.656  18.931  0.00  0.00    +0.000 A 
ATOM     19  C   UNL     1       3.391   4.052  17.892  0.00  0.00    +0.000 A 
BRANCH  14  20
ATOM     20  O   UNL     1       4.816   4.121  16.028  0.00  0.00    +0.000 OA
BRANCH  20  22
ATOM     21  C   UNL     1       7.148   4.483  16.402  0.00  0.00    +0.000 C 
ATOM     22  C   UNL     1       5.988   4.707  15.438  0.00  0.00    +0.000 C 
ATOM     23  C   UNL     1       6.286   4.052  14.091  0.00  0.00    +0.000 C 
ENDBRANCH  20  22
ENDBRANCH  14  20
ENDBRANCH   1  17
TORSDOF 4
ENDMDL
MODEL 2
REMARK VINA RESULT:      -7.0      2.743      8.929
REMARK  Name = 
REMARK  6 active torsions:
REMARK  status: ('A' for Active; 'I' for Inactive)
REMARK    1  A    between atoms: C_1  and  C_2
REMARK    2  A    between atoms: C_2  and  C_3
REMARK    3  A    between atoms: C_2  and  O_4
REMARK    4  A    between atoms: O_4  and  C_5
REMARK    5  A    between atoms: C_8  and  C_9
REMARK    6  A    between atoms: N_11  and  C_12
REMARK                            x       y       z     vdW  Elec       q    Type
REMARK                         _______ _______ _______ _____ _____    ______ ____
ROOT
ATOM      1  C   UNL     1       1.934   8.345  18.633  0.00  0.00    +0.000 C 
ATOM      2  O   UNL     1       1.845   8.777  17.489  0.00  0.00    +0.000 OA
ATOM      3  N   UNL     1       2.648   7.223  19.006  0.00  0.00    +0.000 N 
ATOM      4  H   UNL     1       2.588   6.932  19.974  0.00  0.00    +0.000 HD
ENDROOT
BRANCH   3   5
ATOM      5  C   UNL     1       3.355   6.394  18.155  0.00  0.00    +0.000 A 
ATOM      6  C   UNL     1       2.989   4.958  17.863  0.00  0.00    +0.000 A 
ATOM      7  N   UNL     1       3.641   4.126  17.098  0.00  0.00    +0.000 NA
ATOM      8  C   UNL     1       4.760   4.622  16.504  0.00  0.00    +0.000 A 
ATOM      9  C   UNL     1       5.689   4.038  15.677  0.00  0.00    +0.000 A 
ATOM     10  C   UNL     1       6.611   5.053  15.396  0.00  0.00    +0.000 A 
ATOM     11  N   UNL     1       6.313   6.208  15.996  0.00  0.00    +0.000 NA
ATOM     12  N   UNL     1       5.178   5.942  16.692  0.00  0.00    +0.000 N 
ATOM     13  C   UNL     1       4.463   6.807  17.516  0.00  0.00    +0.000 A 
ENDBRANCH   3   5
BRANCH   1  17
ATOM     14  C   UNL     1      -0.284  10.188  21.819  0.00  0.00    +0.000 A 
ATOM     15  C   UNL     1       0.622   9.158  22.054  0.00  0.00    +0.000 A 
ATOM     16  C   UNL     1       1.349   8.608  21.001  0.00  0.00    +0.000 A 
ATOM     17  C   UNL     1       1.175   9.067  19.689  0.00  0.00    +0.000 A 
ATOM     18  C   UNL     1       0.263  10.094  19.439  0.00  0.00    +0.000 A 
ATOM     19  C   UNL     1      -0.460  10.650  20.506  0.00  0.00    +0.000 A 
BRANCH  14  20
ATOM     20  O   UNL     1      -1.052  10.798  22.773  0.00  0.00    +0.000 OA
BRANCH  20  22
ATOM     21  C   UNL     1      -2.982  12.128  23.236  0.00  0.00    +0.000 C 
ATOM     22  C   UNL     1      -1.679  12.049  22.448  0.00  0.00    +0.000 C 
ATOM     23  C   UNL     1      -0.763  13.212  22.821  0.00  0.00    +0.000 C 
ENDBRANCH  20  22
ENDBRANCH  14  20
ENDBRANCH   1  17
TORSDOF 4
ENDMDL
MODEL 3
REMARK VINA RESULT:      -7.0      2.704      8.926
REMARK  Name = 
REMARK  6 active torsions:
REMARK  status: ('A' for Active; 'I' for Inactive)
REMARK    1  A    between atoms: C_1  and  C_2
REMARK    2  A    between atoms: C_2  and  C_3
REMARK    3  A    between atoms: C_2  and  O_4
REMARK    4  A    between atoms: O_4  and  C_5
REMARK    5  A    between atoms: C_8  and  C_9
REMARK    6  A    between atoms: N_11  and  C_12
REMARK                            x       y       z     vdW  Elec       q    Type
REMARK                         _______ _______ _______ _____ _____    ______ ____
ROOT
ATOM      1  C   UNL     1       1.835   8.227  18.901  0.00  0.00    +0.000 C 
ATOM      2  O   UNL     1       1.716   8.694  17.774  0.00  0.00    +0.000 OA
ATOM      3  N   UNL     1       2.577   7.107  19.222  0.00  0.00    +0.000 N 
ATOM      4  H   UNL     1       2.542   6.784  20.181  0.00  0.00    +0.000 HD
ENDROOT
BRANCH   3   5
ATOM      5  C   UNL     1       3.282   6.320  18.331  0.00  0.00    +0.000 A 
ATOM      6  C   UNL     1       2.918   4.897  17.975  0.00  0.00    +0.000 A 
ATOM      7  N   UNL     1       3.568   4.104  17.169  0.00  0.00    +0.000 NA
ATOM      8  C   UNL     1       4.683   4.629  16.593  0.00  0.00    +0.000 A 
ATOM      9  C   UNL     1       5.609   4.086  15.736  0.00  0.00    +0.000 A 
ATOM     10  C   UNL     1       6.528   5.115  15.497  0.00  0.00    +0.000 A 
ATOM     11  N   UNL     1       6.229   6.241  16.151  0.00  0.00    +0.000 NA
ATOM     12  N   UNL     1       5.098   5.940  16.839  0.00  0.00    +0.000 N 
ATOM     13  C   UNL     1       4.385   6.764  17.706  0.00  0.00    +0.000 A 
ENDBRANCH   3   5
BRANCH   1  17
ATOM     14  C   UNL     1      -0.276  10.414  21.938  0.00  0.00    +0.000 A 
ATOM     15  C   UNL     1      -0.287  10.810  20.604  0.00  0.00    +0.000 A 
ATOM     16  C   UNL     1       0.380  10.057  19.641  0.00  0.00    +0.000 A 
ATOM     17  C   UNL     1       1.085   8.899  19.994  0.00  0.00    +0.000 A 
ATOM     18  C   UNL     1       1.112   8.496  21.331  0.00  0.00    +0.000 A 
ATOM     19  C   UNL     1       0.430   9.255  22.295  0.00  0.00    +0.000 A 
BRANCH  14  20
ATOM     20  O   UNL     1      -0.890  11.078  22.964  0.00  0.00    +0.000 OA
BRANCH  20  22
ATOM     21  C   UNL     1      -2.966  12.159  23.448  0.00  0.00    +0.000 C 
ATOM     22  C   UNL     1      -1.668  12.246  22.653  0.00  0.00    +0.000 C 
ATOM     23  C   UNL     1      -0.898  13.509  23.032  0.00  0.00    +0.000 C 
ENDBRANCH  20  22
ENDBRANCH  14  20
ENDBRANCH   1  17
TORSDOF 4
ENDMDL
MODEL 4
REMARK VINA RESULT:      -7.0      1.189      1.599
REMARK  Name = 
REMARK  6 active torsions:
REMARK  status: ('A' for Active; 'I' for Inactive)
REMARK    1  A    between atoms: C_1  and  C_2
REMARK    2  A    between atoms: C_2  and  C_3
REMARK    3  A    between atoms: C_2  and  O_4
REMARK    4  A    between atoms: O_4  and  C_5
REMARK    5  A    between atoms: C_8  and  C_9
REMARK    6  A    between atoms: N_11  and  C_12
REMARK                            x       y       z     vdW  Elec       q    Type
REMARK                         _______ _______ _______ _____ _____    ______ ____
ROOT
ATOM      1  C   UNL     1       1.823   8.475  18.945  0.00  0.00    +0.000 C 
ATOM      2  O   UNL     1       1.565   9.458  18.259  0.00  0.00    +0.000 OA
ATOM      3  N   UNL     1       1.435   8.299  20.259  0.00  0.00    +0.000 N 
ATOM      4  H   UNL     1       1.768   7.470  20.736  0.00  0.00    +0.000 HD
ENDROOT
BRANCH   3   5
ATOM      5  C   UNL     1       0.719   9.204  21.019  0.00  0.00    +0.000 A 
ATOM      6  C   UNL     1       0.750   9.263  22.529  0.00  0.00    +0.000 A 
ATOM      7  N   UNL     1       0.069  10.072  23.292  0.00  0.00    +0.000 NA
ATOM      8  C   UNL     1      -0.743  10.952  22.646  0.00  0.00    +0.000 A 
ATOM      9  C   UNL     1      -1.610  11.908  23.116  0.00  0.00    +0.000 A 
ATOM     10  C   UNL     1      -2.163  12.491  21.970  0.00  0.00    +0.000 A 
ATOM     11  N   UNL     1      -1.699  11.954  20.838  0.00  0.00    +0.000 NA
ATOM     12  N   UNL     1      -0.833  10.994  21.253  0.00  0.00    +0.000 N 
ATOM     13  C   UNL     1      -0.095  10.117  20.463  0.00  0.00    +0.000 A 
ENDBRANCH   3   5
BRANCH   1  17
ATOM     14  C   UNL     1       4.219   5.270  17.378  0.00  0.00    +0.000 A 
ATOM     15  C   UNL     1       3.186   5.042  18.281  0.00  0.00    +0.000 A 
ATOM     16  C   UNL     1       2.407   6.101  18.741  0.00  0.00    +0.000 A 
ATOM     17  C   UNL     1       2.655   7.413  18.319  0.00  0.00    +0.000 A 
ATOM     18  C   UNL     1       3.695   7.657  17.420  0.00  0.00    +0.000 A 
ATOM     19  C   UNL     1       4.470   6.584  16.953  0.00  0.00    +0.000 A 
BRANCH  14  20
ATOM     20  O   UNL     1       5.047   4.309  16.866  0.00  0.00    +0.000 OA
BRANCH  20  22
ATOM     21  C   UNL     1       7.428   4.492  16.953  0.00  0.00    +0.000 C 
ATOM     22  C   UNL     1       6.188   4.729  16.099  0.00  0.00    +0.000 C 
ATOM     23  C   UNL     1       6.277   3.928  14.802  0.00  0.00    +0.000 C 
ENDBRANCH  20  22
ENDBRANCH  14  20
ENDBRANCH   1  17
TORSDOF 4
ENDMDL
MODEL 5
REMARK VINA RESULT:      -7.0      2.958      8.969
REMARK  Name = 
REMARK  6 active torsions:
REMARK  status: ('A' for Active; 'I' for Inactive)
REMARK    1  A    between atoms: C_1  and  C_2
REMARK    2  A    between atoms: C_2  and  C_3
REMARK    3  A    between atoms: C_2  and  O_4
REMARK    4  A    between atoms: O_4  and  C_5
REMARK    5  A    between atoms: C_8  and  C_9
REMARK    6  A    between atoms: N_11  and  C_12
REMARK                            x       y       z     vdW  Elec       q    Type
REMARK                         _______ _______ _______ _____ _____    ______ ____
ROOT
ATOM      1  C   UNL     1       1.593   8.219  20.039  0.00  0.00    +0.000 C 
ATOM      2  O   UNL     1       1.812   8.524  18.871  0.00  0.00    +0.000 OA
ATOM      3  N   UNL     1       1.868   6.989  20.604  0.00  0.00    +0.000 N 
ATOM      4  H   UNL     1       1.580   6.842  21.563  0.00  0.00    +0.000 HD
ENDROOT
BRANCH   3   5
ATOM      5  C   UNL     1       2.409   5.899  19.947  0.00  0.00    +0.000 A 
ATOM      6  C   UNL     1       3.849   5.798  19.502  0.00  0.00    +0.000 A 
ATOM      7  N   UNL     1       4.398   4.810  18.851  0.00  0.00    +0.000 NA
ATOM      8  C   UNL     1       3.575   3.767  18.557  0.00  0.00    +0.000 A 
ATOM      9  C   UNL     1       3.795   2.598  17.871  0.00  0.00    +0.000 A 
ATOM     10  C   UNL     1       2.566   1.927  17.895  0.00  0.00    +0.000 A 
ATOM     11  N   UNL     1       1.615   2.608  18.539  0.00  0.00    +0.000 NA
ATOM     12  N   UNL     1       2.231   3.750  18.938  0.00  0.00    +0.000 N 
ATOM     13  C   UNL     1       1.672   4.821  19.631  0.00  0.00    +0.000 A 
ENDBRANCH   3   5
BRANCH   1  17
ATOM     14  C   UNL     1      -0.473  10.991  22.590  0.00  0.00    +0.000 A 
ATOM     15  C   UNL     1      -0.317   9.652  22.933  0.00  0.00    +0.000 A 
ATOM     16  C   UNL     1       0.389   8.790  22.098  0.00  0.00    +0.000 A 
ATOM     17  C   UNL     1       0.941   9.246  20.895  0.00  0.00    +0.000 A 
ATOM     18  C   UNL     1       0.784  10.585  20.534  0.00  0.00    +0.000 A 
ATOM     19  C   UNL     1       0.079  11.451  21.385  0.00  0.00    +0.000 A 
BRANCH  14  20
ATOM     20  O   UNL     1      -1.149  11.923  23.330  0.00  0.00    +0.000 OA
BRANCH  20  22
ATOM     21  C   UNL     1      -3.478  12.236  23.768  0.00  0.00    +0.000 C 
ATOM     22  C   UNL     1      -2.347  12.494  22.779  0.00  0.00    +0.000 C 
ATOM     23  C   UNL     1      -2.165  13.995  22.562  0.00  0.00    +0.000 C 
ENDBRANCH  20  22
ENDBRANCH  14  20
ENDBRANCH   1  17
TORSDOF 4
ENDMDL
MODEL 6
REMARK VINA RESULT:      -6.9      1.469      2.430
REMARK  Name = 
REMARK  6 active torsions:
REMARK  status: ('A' for Active; 'I' for Inactive)
REMARK    1  A    between atoms: C_1  and  C_2
REMARK    2  A    between atoms: C_2  and  C_3
REMARK    3  A    between atoms: C_2  and  O_4
REMARK    4  A    between atoms: O_4  and  C_5
REMARK    5  A    between atoms: C_8  and  C_9
REMARK    6  A    between atoms: N_11  and  C_12
REMARK                            x       y       z     vdW  Elec       q    Type
REMARK                         _______ _______ _______ _____ _____    ______ ____
ROOT
ATOM      1  C   UNL     1       2.806   6.274  18.438  0.00  0.00    +0.000 C 
ATOM      2  O   UNL     1       2.087   5.532  19.097  0.00  0.00    +0.000 OA
ATOM      3  N   UNL     1       2.744   7.654  18.446  0.00  0.00    +0.000 N 
ATOM      4  H   UNL     1       3.350   8.152  17.806  0.00  0.00    +0.000 HD
ENDROOT
BRANCH   3   5
ATOM      5  C   UNL     1       1.852   8.419  19.173  0.00  0.00    +0.000 A 
ATOM      6  C   UNL     1       0.974   9.498  18.583  0.00  0.00    +0.000 A 
ATOM      7  N   UNL     1       0.144  10.270  19.229  0.00  0.00    +0.000 NA
ATOM      8  C   UNL     1       0.068  10.063  20.572  0.00  0.00    +0.000 A 
ATOM      9  C   UNL     1      -0.658  10.694  21.552  0.00  0.00    +0.000 A 
ATOM     10  C   UNL     1      -0.312  10.037  22.739  0.00  0.00    +0.000 A 
ATOM     11  N   UNL     1       0.575   9.057  22.551  0.00  0.00    +0.000 NA
ATOM     12  N   UNL     1       0.822   9.079  21.216  0.00  0.00    +0.000 N 
ATOM     13  C   UNL     1       1.702   8.271  20.500  0.00  0.00    +0.000 A 
ENDBRANCH   3   5
BRANCH   1  17
ATOM     14  C   UNL     1       5.605   4.616  15.631  0.00  0.00    +0.000 A 
ATOM     15  C   UNL     1       5.455   5.989  15.795  0.00  0.00    +0.000 A 
ATOM     16  C   UNL     1       4.563   6.491  16.740  0.00  0.00    +0.000 A 
ATOM     17  C   UNL     1       3.791   5.629  17.530  0.00  0.00    +0.000 A 
ATOM     18  C   UNL     1       3.926   4.249  17.368  0.00  0.00    +0.000 A 
ATOM     19  C   UNL     1       4.834   3.750  16.420  0.00  0.00    +0.000 A 
BRANCH  14  20
ATOM     20  O   UNL     1       6.446   4.015  14.734  0.00  0.00    +0.000 OA
BRANCH  20  22
ATOM     21  C   UNL     1       7.781   5.036  13.035  0.00  0.00    +0.000 C 
ATOM     22  C   UNL     1       6.411   4.454  13.366  0.00  0.00    +0.000 C 
ATOM     23  C   UNL     1       6.096   3.281  12.441  0.00  0.00    +0.000 C 
ENDBRANCH  20  22
ENDBRANCH  14  20
ENDBRANCH   1  17
TORSDOF 4
ENDMDL
MODEL 7
REMARK VINA RESULT:      -6.8      2.979      9.013
REMARK  Name = 
REMARK  6 active torsions:
REMARK  status: ('A' for Active; 'I' for Inactive)
REMARK    1  A    between atoms: C_1  and  C_2
REMARK    2  A    between atoms: C_2  and  C_3
REMARK    3  A    between atoms: C_2  and  O_4
REMARK    4  A    between atoms: O_4  and  C_5
REMARK    5  A    between atoms: C_8  and  C_9
REMARK    6  A    between atoms: N_11  and  C_12
REMARK                            x       y       z     vdW  Elec       q    Type
REMARK                         _______ _______ _______ _____ _____    ______ ____
ROOT
ATOM      1  C   UNL     1       1.435   8.245  20.281  0.00  0.00    +0.000 C 
ATOM      2  O   UNL     1       1.833   8.621  19.184  0.00  0.00    +0.000 OA
ATOM      3  N   UNL     1       1.611   6.976  20.798  0.00  0.00    +0.000 N 
ATOM      4  H   UNL     1       1.177   6.772  21.690  0.00  0.00    +0.000 HD
ENDROOT
BRANCH   3   5
ATOM      5  C   UNL     1       2.240   5.923  20.161  0.00  0.00    +0.000 A 
ATOM      6  C   UNL     1       3.603   6.006  19.516  0.00  0.00    +0.000 A 
ATOM      7  N   UNL     1       4.223   5.054  18.875  0.00  0.00    +0.000 NA
ATOM      8  C   UNL     1       3.562   3.867  18.795  0.00  0.00    +0.000 A 
ATOM      9  C   UNL     1       3.888   2.681  18.183  0.00  0.00    +0.000 A 
ATOM     10  C   UNL     1       2.808   1.830  18.446  0.00  0.00    +0.000 A 
ATOM     11  N   UNL     1       1.848   2.415  19.167  0.00  0.00    +0.000 NA
ATOM     12  N   UNL     1       2.304   3.677  19.372  0.00  0.00    +0.000 N 
ATOM     13  C   UNL     1       1.666   4.713  20.049  0.00  0.00    +0.000 A 
ENDBRANCH   3   5
BRANCH   1  17
ATOM     14  C   UNL     1      -0.594  11.265  22.567  0.00  0.00    +0.000 A 
ATOM     15  C   UNL     1       0.077  11.564  21.385  0.00  0.00    +0.000 A 
ATOM     16  C   UNL     1       0.694  10.554  20.652  0.00  0.00    +0.000 A 
ATOM     17  C   UNL     1       0.665   9.225  21.093  0.00  0.00    +0.000 A 
ATOM     18  C   UNL     1       0.003   8.913  22.282  0.00  0.00    +0.000 A 
ATOM     19  C   UNL     1      -0.625   9.935  23.011  0.00  0.00    +0.000 A 
BRANCH  14  20
ATOM     20  O   UNL     1      -1.229  12.176  23.366  0.00  0.00    +0.000 OA
BRANCH  20  22
ATOM     21  C   UNL     1      -3.549  12.422  23.887  0.00  0.00    +0.000 C 
ATOM     22  C   UNL     1      -2.448  12.770  22.890  0.00  0.00    +0.000 C 
ATOM     23  C   UNL     1      -2.291  14.285  22.782  0.00  0.00    +0.000 C 
ENDBRANCH  20  22
ENDBRANCH  14  20
ENDBRANCH   1  17
TORSDOF 4
ENDMDL
MODEL 8
REMARK VINA RESULT:      -6.8      1.136      1.638
REMARK  Name = 
REMARK  6 active torsions:
REMARK  status: ('A' for Active; 'I' for Inactive)
REMARK    1  A    between atoms: C_1  and  C_2
REMARK    2  A    between atoms: C_2  and  C_3
REMARK    3  A    between atoms: C_2  and  O_4
REMARK    4  A    between atoms: O_4  and  C_5
REMARK    5  A    between atoms: C_8  and  C_9
REMARK    6  A    between atoms: N_11  and  C_12
REMARK                            x       y       z     vdW  Elec       q    Type
REMARK                         _______ _______ _______ _____ _____    ______ ____
ROOT
ATOM      1  C   UNL     1       1.812   7.869  19.646  0.00  0.00    +0.000 C 
ATOM      2  O   UNL     1       1.507   7.428  20.749  0.00  0.00    +0.000 OA
ATOM      3  N   UNL     1       1.427   9.098  19.148  0.00  0.00    +0.000 N 
ATOM      4  H   UNL     1       1.690   9.318  18.195  0.00  0.00    +0.000 HD
ENDROOT
BRANCH   3   5
ATOM      5  C   UNL     1       0.622  10.017  19.794  0.00  0.00    +0.000 A 
ATOM      6  C   UNL     1       0.895  10.572  21.173  0.00  0.00    +0.000 A 
ATOM      7  N   UNL     1       0.151  11.411  21.838  0.00  0.00    +0.000 NA
ATOM      8  C   UNL     1      -0.981  11.827  21.208  0.00  0.00    +0.000 A 
ATOM      9  C   UNL     1      -1.993  12.664  21.609  0.00  0.00    +0.000 A 
ATOM     10  C   UNL     1      -2.881  12.702  20.527  0.00  0.00    +0.000 A 
ATOM     11  N   UNL     1      -2.485  11.943  19.502  0.00  0.00    +0.000 NA
ATOM     12  N   UNL     1      -1.319  11.391  19.925  0.00  0.00    +0.000 N 
ATOM     13  C   UNL     1      -0.506  10.492  19.239  0.00  0.00    +0.000 A 
ENDBRANCH   3   5
BRANCH   1  17
ATOM     14  C   UNL     1       4.197   5.152  17.323  0.00  0.00    +0.000 A 
ATOM     15  C   UNL     1       3.335   4.706  18.321  0.00  0.00    +0.000 A 
ATOM     16  C   UNL     1       2.551   5.613  19.030  0.00  0.00    +0.000 A 
ATOM     17  C   UNL     1       2.623   6.986  18.766  0.00  0.00    +0.000 A 
ATOM     18  C   UNL     1       3.491   7.448  17.774  0.00  0.00    +0.000 A 
ATOM     19  C   UNL     1       4.271   6.528  17.057  0.00  0.00    +0.000 A 
BRANCH  14  20
ATOM     20  O   UNL     1       5.013   4.354  16.569  0.00  0.00    +0.000 OA
BRANCH  20  22
ATOM     21  C   UNL     1       7.335   4.553  17.102  0.00  0.00    +0.000 C 
ATOM     22  C   UNL     1       6.251   4.904  16.089  0.00  0.00    +0.000 C 
ATOM     23  C   UNL     1       6.595   4.318  14.721  0.00  0.00    +0.000 C 
ENDBRANCH  20  22
ENDBRANCH  14  20
ENDBRANCH   1  17
TORSDOF 4
ENDMDL
MODEL 9
REMARK VINA RESULT:      -6.8      1.172      1.327
REMARK  Name = 
REMARK  6 active torsions:
REMARK  status: ('A' for Active; 'I' for Inactive)
REMARK    1  A    between atoms: C_1  and  C_2
REMARK    2  A    between atoms: C_2  and  C_3
REMARK    3  A    between atoms: C_2  and  O_4
REMARK    4  A    between atoms: O_4  and  C_5
REMARK    5  A    between atoms: C_8  and  C_9
REMARK    6  A    between atoms: N_11  and  C_12
REMARK                            x       y       z     vdW  Elec       q    Type
REMARK                         _______ _______ _______ _____ _____    ______ ____
ROOT
ATOM      1  C   UNL     1       1.799   7.823  19.758  0.00  0.00    +0.000 C 
ATOM      2  O   UNL     1       1.436   7.444  20.866  0.00  0.00    +0.000 OA
ATOM      3  N   UNL     1       1.471   9.038  19.188  0.00  0.00    +0.000 N 
ATOM      4  H   UNL     1       1.780   9.206  18.238  0.00  0.00    +0.000 HD
ENDROOT
BRANCH   3   5
ATOM      5  C   UNL     1       0.668  10.009  19.757  0.00  0.00    +0.000 A 
ATOM      6  C   UNL     1       0.960  10.697  21.069  0.00  0.00    +0.000 A 
ATOM      7  N   UNL     1       0.220  11.591  21.664  0.00  0.00    +0.000 NA
ATOM      8  C   UNL     1      -0.928  11.934  21.017  0.00  0.00    +0.000 A 
ATOM      9  C   UNL     1      -1.941  12.797  21.354  0.00  0.00    +0.000 A 
ATOM     10  C   UNL     1      -2.849  12.722  20.291  0.00  0.00    +0.000 A 
ATOM     11  N   UNL     1      -2.463  11.870  19.337  0.00  0.00    +0.000 NA
ATOM     12  N   UNL     1      -1.284  11.372  19.789  0.00  0.00    +0.000 N 
ATOM     13  C   UNL     1      -0.474  10.417  19.179  0.00  0.00    +0.000 A 
ENDBRANCH   3   5
BRANCH   1  17
ATOM     14  C   UNL     1       4.130   5.260  17.217  0.00  0.00    +0.000 A 
ATOM     15  C   UNL     1       4.157   6.645  17.088  0.00  0.00    +0.000 A 
ATOM     16  C   UNL     1       3.415   7.447  17.952  0.00  0.00    +0.000 A 
ATOM     17  C   UNL     1       2.619   6.878  18.954  0.00  0.00    +0.000 A 
ATOM     18  C   UNL     1       2.575   5.489  19.088  0.00  0.00    +0.000 A 
ATOM     19  C   UNL     1       3.333   4.688  18.219  0.00  0.00    +0.000 A 
BRANCH  14  20
ATOM     20  O   UNL     1       4.813   4.379  16.423  0.00  0.00    +0.000 OA
BRANCH  20  22
ATOM     21  C   UNL     1       7.175   4.556  16.742  0.00  0.00    +0.000 C 
ATOM     22  C   UNL     1       6.020   4.829  15.785  0.00  0.00    +0.000 C 
ATOM     23  C   UNL     1       6.233   4.082  14.470  0.00  0.00    +0.000 C 
ENDBRANCH  20  22
ENDBRANCH  14  20
ENDBRANCH   1  17
TORSDOF 4
ENDMDL
