MODEL 1
REMARK VINA RESULT:      -8.1      0.000      0.000
REMARK  Name = 
REMARK  6 active torsions:
REMARK  status: ('A' for Active; 'I' for Inactive)
REMARK    1  A    between atoms: C_2  and  C_5
REMARK    2  A    between atoms: N_3  and  O_4
REMARK    3  A    between atoms: C_8  and  C_9
REMARK    4  A    between atoms: C_9  and  N_10
REMARK    5  A    between atoms: C_11  and  C_13
REMARK    6  A    between atoms: C_16  and  C_17
REMARK                            x       y       z     vdW  Elec       q    Type
REMARK                         _______ _______ _______ _____ _____    ______ ____
ROOT
ATOM      1  N   UNL     1       1.421   9.078  17.919  0.00  0.00    +0.000 N 
ATOM      2  C   UNL     1       1.130  10.384  18.253  0.00  0.00    +0.000 C 
ATOM      3  O   UNL     1       1.979  11.252  18.410  0.00  0.00    +0.000 OA
ATOM      4  H   UNL     1       0.684   8.496  17.548  0.00  0.00    +0.000 HD
ENDROOT
BRANCH   2   5
ATOM      5  C   UNL     1      -0.317  10.709  18.397  0.00  0.00    +0.000 A 
ATOM      6  C   UNL     1      -0.752  11.692  19.286  0.00  0.00    +0.000 A 
ATOM      7  C   UNL     1      -2.116  11.965  19.421  0.00  0.00    +0.000 A 
ATOM      8  C   UNL     1      -3.087  11.291  18.654  0.00  0.00    +0.000 A 
ATOM      9  C   UNL     1      -2.623  10.325  17.743  0.00  0.00    +0.000 A 
ATOM     10  C   UNL     1      -1.256  10.034  17.612  0.00  0.00    +0.000 A 
BRANCH   8  11
ATOM     11  C   UNL     1      -4.529  11.597  18.823  0.00  0.00    +0.000 A 
ATOM     12  C   UNL     1      -4.981  12.438  19.858  0.00  0.00    +0.000 A 
ATOM     13  C   UNL     1      -6.342  12.688  20.062  0.00  0.00    +0.000 A 
ATOM     14  C   UNL     1      -7.287  12.116  19.219  0.00  0.00    +0.000 A 
ATOM     15  C   UNL     1      -6.871  11.301  18.173  0.00  0.00    +0.000 A 
ATOM     16  C   UNL     1      -5.508  11.040  17.979  0.00  0.00    +0.000 A 
ENDBRANCH   8  11
ENDBRANCH   2   5
BRANCH   1  17
ATOM     17  C   UNL     1       2.780   8.651  17.682  0.00  0.00    +0.000 C 
BRANCH  17  21
ATOM     18  C   UNL     1       3.382   4.657  19.220  0.00  0.00    +0.000 A 
ATOM     19  C   UNL     1       3.995   5.044  18.023  0.00  0.00    +0.000 A 
ATOM     20  C   UNL     1       3.794   6.335  17.517  0.00  0.00    +0.000 A 
ATOM     21  C   UNL     1       3.001   7.257  18.215  0.00  0.00    +0.000 A 
ATOM     22  C   UNL     1       2.392   6.859  19.413  0.00  0.00    +0.000 A 
ATOM     23  C   UNL     1       2.588   5.572  19.919  0.00  0.00    +0.000 A 
BRANCH  18  25
ATOM     24  O   UNL     1       2.733   2.652  20.310  0.00  0.00    +0.000 OA
ATOM     25  C   UNL     1       3.617   3.283  19.739  0.00  0.00    +0.000 C 
ATOM     26  N   UNL     1       4.893   2.790  19.573  0.00  0.00    +0.000 N 
ATOM     27  H   UNL     1       5.696   3.396  19.446  0.00  0.00    +0.000 HD
BRANCH  26  28
ATOM     28  O   UNL     1       5.147   1.540  20.186  0.00  0.00    +0.000 OA
ATOM     29  H   UNL     1       4.783   0.908  19.527  0.00  0.00    +0.000 HD
ENDBRANCH  26  28
ENDBRANCH  18  25
ENDBRANCH  17  21
ENDBRANCH   1  17
TORSDOF 6
ENDMDL
MODEL 2
REMARK VINA RESULT:      -8.1      3.918      5.630
REMARK  Name = 
REMARK  6 active torsions:
REMARK  status: ('A' for Active; 'I' for Inactive)
REMARK    1  A    between atoms: C_2  and  C_5
REMARK    2  A    between atoms: N_3  and  O_4
REMARK    3  A    between atoms: C_8  and  C_9
REMARK    4  A    between atoms: C_9  and  N_10
REMARK    5  A    between atoms: C_11  and  C_13
REMARK    6  A    between atoms: C_16  and  C_17
REMARK                            x       y       z     vdW  Elec       q    Type
REMARK                         _______ _______ _______ _____ _____    ______ ____
ROOT
ATOM      1  N   UNL     1       3.907   5.682  19.750  0.00  0.00    +0.000 N 
ATOM      2  C   UNL     1       2.548   5.800  19.556  0.00  0.00    +0.000 C 
ATOM      3  O   UNL     1       1.845   4.906  19.103  0.00  0.00    +0.000 OA
ATOM      4  H   UNL     1       4.369   6.339  20.363  0.00  0.00    +0.000 HD
ENDROOT
BRANCH   2   5
ATOM      5  C   UNL     1       1.947   7.103  19.958  0.00  0.00    +0.000 A 
ATOM      6  C   UNL     1       1.406   7.286  21.232  0.00  0.00    +0.000 A 
ATOM      7  C   UNL     1       0.827   8.509  21.580  0.00  0.00    +0.000 A 
ATOM      8  C   UNL     1       0.795   9.597  20.685  0.00  0.00    +0.000 A 
ATOM      9  C   UNL     1       1.372   9.398  19.418  0.00  0.00    +0.000 A 
ATOM     10  C   UNL     1       1.942   8.168  19.055  0.00  0.00    +0.000 A 
BRANCH   8  11
ATOM     11  C   UNL     1       0.168  10.882  21.081  0.00  0.00    +0.000 A 
ATOM     12  C   UNL     1       0.286  12.031  20.275  0.00  0.00    +0.000 A 
ATOM     13  C   UNL     1      -0.251  13.262  20.665  0.00  0.00    +0.000 A 
ATOM     14  C   UNL     1      -0.941  13.370  21.866  0.00  0.00    +0.000 A 
ATOM     15  C   UNL     1      -1.096  12.248  22.672  0.00  0.00    +0.000 A 
ATOM     16  C   UNL     1      -0.545  11.019  22.286  0.00  0.00    +0.000 A 
ENDBRANCH   8  11
ENDBRANCH   2   5
BRANCH   1  17
ATOM     17  C   UNL     1       4.600   4.447  19.467  0.00  0.00    +0.000 C 
BRANCH  17  21
ATOM     18  C   UNL     1       6.391   4.544  15.535  0.00  0.00    +0.000 A 
ATOM     19  C   UNL     1       5.035   4.229  15.677  0.00  0.00    +0.000 A 
ATOM     20  C   UNL     1       4.454   4.188  16.950  0.00  0.00    +0.000 A 
ATOM     21  C   UNL     1       5.216   4.485  18.090  0.00  0.00    +0.000 A 
ATOM     22  C   UNL     1       6.573   4.799  17.936  0.00  0.00    +0.000 A 
ATOM     23  C   UNL     1       7.157   4.839  16.668  0.00  0.00    +0.000 A 
BRANCH  18  25
ATOM     24  O   UNL     1       7.809   5.437  13.856  0.00  0.00    +0.000 OA
ATOM     25  C   UNL     1       6.982   4.587  14.171  0.00  0.00    +0.000 C 
ATOM     26  N   UNL     1       6.510   3.645  13.282  0.00  0.00    +0.000 N 
ATOM     27  H   UNL     1       5.610   3.194  13.398  0.00  0.00    +0.000 HD
BRANCH  26  28
ATOM     28  O   UNL     1       6.975   3.776  11.952  0.00  0.00    +0.000 OA
ATOM     29  H   UNL     1       7.715   3.128  11.926  0.00  0.00    +0.000 HD
ENDBRANCH  26  28
ENDBRANCH  18  25
ENDBRANCH  17  21
ENDBRANCH   1  17
TORSDOF 6
ENDMDL
MODEL 3
REMARK VINA RESULT:      -8.1      3.544     10.492
REMARK  Name = 
REMARK  6 active torsions:
REMARK  status: ('A' for Active; 'I' for Inactive)
REMARK    1  A    between atoms: C_2  and  C_5
REMARK    2  A    between atoms: N_3  and  O_4
REMARK    3  A    between atoms: C_8  and  C_9
REMARK    4  A    between atoms: C_9  and  N_10
REMARK    5  A    between atoms: C_11  and  C_13
REMARK    6  A    between atoms: C_16  and  C_17
REMARK                            x       y       z     vdW  Elec       q    Type
REMARK                         _______ _______ _______ _____ _____    ______ ____
ROOT
ATOM      1  N   UNL     1       2.585   7.144  19.340  0.00  0.00    +0.000 N 
ATOM      2  C   UNL     1       3.197   5.910  19.310  0.00  0.00    +0.000 C 
ATOM      3  O   UNL     1       3.152   5.105  20.232  0.00  0.00    +0.000 OA
ATOM      4  H   UNL     1       2.436   7.633  18.468  0.00  0.00    +0.000 HD
ENDROOT
BRANCH   2   5
ATOM      5  C   UNL     1       3.922   5.576  18.052  0.00  0.00    +0.000 A 
ATOM      6  C   UNL     1       4.598   6.557  17.325  0.00  0.00    +0.000 A 
ATOM      7  C   UNL     1       5.252   6.226  16.135  0.00  0.00    +0.000 A 
ATOM      8  C   UNL     1       5.281   4.904  15.648  0.00  0.00    +0.000 A 
ATOM      9  C   UNL     1       4.619   3.927  16.412  0.00  0.00    +0.000 A 
ATOM     10  C   UNL     1       3.946   4.254  17.600  0.00  0.00    +0.000 A 
BRANCH   8  11
ATOM     11  C   UNL     1       5.979   4.582  14.378  0.00  0.00    +0.000 A 
ATOM     12  C   UNL     1       7.180   5.225  14.022  0.00  0.00    +0.000 A 
ATOM     13  C   UNL     1       7.816   4.973  12.802  0.00  0.00    +0.000 A 
ATOM     14  C   UNL     1       7.275   4.051  11.914  0.00  0.00    +0.000 A 
ATOM     15  C   UNL     1       6.102   3.382  12.248  0.00  0.00    +0.000 A 
ATOM     16  C   UNL     1       5.459   3.647  13.464  0.00  0.00    +0.000 A 
ENDBRANCH   8  11
ENDBRANCH   2   5
BRANCH   1  17
ATOM     17  C   UNL     1       1.792   7.560  20.472  0.00  0.00    +0.000 C 
BRANCH  17  21
ATOM     18  C   UNL     1      -0.266  11.271  19.648  0.00  0.00    +0.000 A 
ATOM     19  C   UNL     1       0.589  10.718  18.687  0.00  0.00    +0.000 A 
ATOM     20  C   UNL     1       1.264   9.520  18.955  0.00  0.00    +0.000 A 
ATOM     21  C   UNL     1       1.073   8.853  20.173  0.00  0.00    +0.000 A 
ATOM     22  C   UNL     1       0.213   9.414  21.128  0.00  0.00    +0.000 A 
ATOM     23  C   UNL     1      -0.460  10.610  20.866  0.00  0.00    +0.000 A 
BRANCH  18  25
ATOM     24  O   UNL     1      -0.813  13.121  18.268  0.00  0.00    +0.000 OA
ATOM     25  C   UNL     1      -0.977  12.539  19.335  0.00  0.00    +0.000 C 
ATOM     26  N   UNL     1      -1.789  13.033  20.333  0.00  0.00    +0.000 N 
ATOM     27  H   UNL     1      -1.662  12.785  21.308  0.00  0.00    +0.000 HD
BRANCH  26  28
ATOM     28  O   UNL     1      -2.355  14.305  20.083  0.00  0.00    +0.000 OA
ATOM     29  H   UNL     1      -2.924  14.129  19.300  0.00  0.00    +0.000 HD
ENDBRANCH  26  28
ENDBRANCH  18  25
ENDBRANCH  17  21
ENDBRANCH   1  17
TORSDOF 6
ENDMDL
MODEL 4
REMARK VINA RESULT:      -8.1      0.184      1.348
REMARK  Name = 
REMARK  6 active torsions:
REMARK  status: ('A' for Active; 'I' for Inactive)
REMARK    1  A    between atoms: C_2  and  C_5
REMARK    2  A    between atoms: N_3  and  O_4
REMARK    3  A    between atoms: C_8  and  C_9
REMARK    4  A    between atoms: C_9  and  N_10
REMARK    5  A    between atoms: C_11  and  C_13
REMARK    6  A    between atoms: C_16  and  C_17
REMARK                            x       y       z     vdW  Elec       q    Type
REMARK                         _______ _______ _______ _____ _____    ______ ____
ROOT
ATOM      1  N   UNL     1       1.465   9.055  17.890  0.00  0.00    +0.000 N 
ATOM      2  C   UNL     1       1.166  10.358  18.226  0.00  0.00    +0.000 C 
ATOM      3  O   UNL     1       2.010  11.231  18.387  0.00  0.00    +0.000 OA
ATOM      4  H   UNL     1       0.732   8.469  17.517  0.00  0.00    +0.000 HD
ENDROOT
BRANCH   2   5
ATOM      5  C   UNL     1      -0.283  10.674  18.367  0.00  0.00    +0.000 A 
ATOM      6  C   UNL     1      -1.246   9.998  17.617  0.00  0.00    +0.000 A 
ATOM      7  C   UNL     1      -2.599  10.327  17.749  0.00  0.00    +0.000 A 
ATOM      8  C   UNL     1      -3.037  11.315  18.652  0.00  0.00    +0.000 A 
ATOM      9  C   UNL     1      -2.052  11.962  19.419  0.00  0.00    +0.000 A 
ATOM     10  C   UNL     1      -0.690  11.649  19.282  0.00  0.00    +0.000 A 
BRANCH   8  11
ATOM     11  C   UNL     1      -4.479  11.647  18.766  0.00  0.00    +0.000 A 
ATOM     12  C   UNL     1      -4.935  12.613  19.684  0.00  0.00    +0.000 A 
ATOM     13  C   UNL     1      -6.296  12.893  19.842  0.00  0.00    +0.000 A 
ATOM     14  C   UNL     1      -7.237  12.226  19.067  0.00  0.00    +0.000 A 
ATOM     15  C   UNL     1      -6.816  11.284  18.135  0.00  0.00    +0.000 A 
ATOM     16  C   UNL     1      -5.454  10.995  17.989  0.00  0.00    +0.000 A 
ENDBRANCH   8  11
ENDBRANCH   2   5
BRANCH   1  17
ATOM     17  C   UNL     1       2.827   8.636  17.655  0.00  0.00    +0.000 C 
BRANCH  17  21
ATOM     18  C   UNL     1       3.552   4.704  19.295  0.00  0.00    +0.000 A 
ATOM     19  C   UNL     1       2.624   5.555  19.907  0.00  0.00    +0.000 A 
ATOM     20  C   UNL     1       2.394   6.833  19.383  0.00  0.00    +0.000 A 
ATOM     21  C   UNL     1       3.069   7.262  18.231  0.00  0.00    +0.000 A 
ATOM     22  C   UNL     1       3.995   6.401  17.626  0.00  0.00    +0.000 A 
ATOM     23  C   UNL     1       4.230   5.127  18.147  0.00  0.00    +0.000 A 
BRANCH  18  25
ATOM     24  O   UNL     1       3.038   2.892  20.738  0.00  0.00    +0.000 OA
ATOM     25  C   UNL     1       3.772   3.349  19.868  0.00  0.00    +0.000 C 
ATOM     26  N   UNL     1       4.871   2.667  19.389  0.00  0.00    +0.000 N 
ATOM     27  H   UNL     1       5.661   3.141  18.967  0.00  0.00    +0.000 HD
BRANCH  26  28
ATOM     28  O   UNL     1       5.152   1.439  20.032  0.00  0.00    +0.000 OA
ATOM     29  H   UNL     1       6.126   1.486  20.154  0.00  0.00    +0.000 HD
ENDBRANCH  26  28
ENDBRANCH  18  25
ENDBRANCH  17  21
ENDBRANCH   1  17
TORSDOF 6
ENDMDL
MODEL 5
REMARK VINA RESULT:      -8.0      4.038      5.733
REMARK  Name = 
REMARK  6 active torsions:
REMARK  status: ('A' for Active; 'I' for Inactive)
REMARK    1  A    between atoms: C_2  and  C_5
REMARK    2  A    between atoms: N_3  and  O_4
REMARK    3  A    between atoms: C_8  and  C_9
REMARK    4  A    between atoms: C_9  and  N_10
REMARK    5  A    between atoms: C_11  and  C_13
REMARK    6  A    between atoms: C_16  and  C_17
REMARK                            x       y       z     vdW  Elec       q    Type
REMARK                         _______ _______ _______ _____ _____    ______ ____
ROOT
ATOM      1  N   UNL     1       3.906   5.598  19.701  0.00  0.00    +0.000 N 
ATOM      2  C   UNL     1       2.600   5.842  19.335  0.00  0.00    +0.000 C 
ATOM      3  O   UNL     1       1.921   5.064  18.677  0.00  0.00    +0.000 OA
ATOM      4  H   UNL     1       4.310   6.141  20.451  0.00  0.00    +0.000 HD
ENDROOT
BRANCH   2   5
ATOM      5  C   UNL     1       2.023   7.130  19.813  0.00  0.00    +0.000 A 
ATOM      6  C   UNL     1       1.943   8.241  18.972  0.00  0.00    +0.000 A 
ATOM      7  C   UNL     1       1.418   9.447  19.448  0.00  0.00    +0.000 A 
ATOM      8  C   UNL     1       0.930   9.575  20.763  0.00  0.00    +0.000 A 
ATOM      9  C   UNL     1       0.993   8.434  21.582  0.00  0.00    +0.000 A 
ATOM     10  C   UNL     1       1.533   7.224  21.117  0.00  0.00    +0.000 A 
BRANCH   8  11
ATOM     11  C   UNL     1       0.384  10.869  21.243  0.00  0.00    +0.000 A 
ATOM     12  C   UNL     1      -0.551  10.922  22.295  0.00  0.00    +0.000 A 
ATOM     13  C   UNL     1      -1.116  12.130  22.717  0.00  0.00    +0.000 A 
ATOM     14  C   UNL     1      -0.742  13.322  22.108  0.00  0.00    +0.000 A 
ATOM     15  C   UNL     1       0.197  13.305  21.083  0.00  0.00    +0.000 A 
ATOM     16  C   UNL     1       0.751  12.093  20.653  0.00  0.00    +0.000 A 
ENDBRANCH   8  11
ENDBRANCH   2   5
BRANCH   1  17
ATOM     17  C   UNL     1       4.560   4.356  19.362  0.00  0.00    +0.000 C 
BRANCH  17  21
ATOM     18  C   UNL     1       6.390   4.623  15.455  0.00  0.00    +0.000 A 
ATOM     19  C   UNL     1       6.995   5.244  16.554  0.00  0.00    +0.000 A 
ATOM     20  C   UNL     1       6.400   5.167  17.819  0.00  0.00    +0.000 A 
ATOM     21  C   UNL     1       5.209   4.449  18.003  0.00  0.00    +0.000 A 
ATOM     22  C   UNL     1       4.612   3.830  16.896  0.00  0.00    +0.000 A 
ATOM     23  C   UNL     1       5.201   3.907  15.632  0.00  0.00    +0.000 A 
BRANCH  18  25
ATOM     24  O   UNL     1       7.899   5.563  13.885  0.00  0.00    +0.000 OA
ATOM     25  C   UNL     1       7.046   4.714  14.124  0.00  0.00    +0.000 C 
ATOM     26  N   UNL     1       6.605   3.818  13.175  0.00  0.00    +0.000 N 
ATOM     27  H   UNL     1       5.693   3.377  13.228  0.00  0.00    +0.000 HD
BRANCH  26  28
ATOM     28  O   UNL     1       7.135   3.997  11.875  0.00  0.00    +0.000 OA
ATOM     29  H   UNL     1       7.653   4.827  11.975  0.00  0.00    +0.000 HD
ENDBRANCH  26  28
ENDBRANCH  18  25
ENDBRANCH  17  21
ENDBRANCH   1  17
TORSDOF 6
ENDMDL
MODEL 6
REMARK VINA RESULT:      -8.0      3.973      5.583
REMARK  Name = 
REMARK  6 active torsions:
REMARK  status: ('A' for Active; 'I' for Inactive)
REMARK    1  A    between atoms: C_2  and  C_5
REMARK    2  A    between atoms: N_3  and  O_4
REMARK    3  A    between atoms: C_8  and  C_9
REMARK    4  A    between atoms: C_9  and  N_10
REMARK    5  A    between atoms: C_11  and  C_13
REMARK    6  A    between atoms: C_16  and  C_17
REMARK                            x       y       z     vdW  Elec       q    Type
REMARK                         _______ _______ _______ _____ _____    ______ ____
ROOT
ATOM      1  N   UNL     1       3.764   5.619  19.821  0.00  0.00    +0.000 N 
ATOM      2  C   UNL     1       2.577   5.995  19.230  0.00  0.00    +0.000 C 
ATOM      3  O   UNL     1       2.019   5.348  18.352  0.00  0.00    +0.000 OA
ATOM      4  H   UNL     1       4.023   6.041  20.701  0.00  0.00    +0.000 HD
ENDROOT
BRANCH   2   5
ATOM      5  C   UNL     1       1.969   7.255  19.741  0.00  0.00    +0.000 A 
ATOM      6  C   UNL     1       1.514   7.355  21.057  0.00  0.00    +0.000 A 
ATOM      7  C   UNL     1       0.926   8.540  21.509  0.00  0.00    +0.000 A 
ATOM      8  C   UNL     1       0.799   9.670  20.677  0.00  0.00    +0.000 A 
ATOM      9  C   UNL     1       1.292   9.555  19.365  0.00  0.00    +0.000 A 
ATOM     10  C   UNL     1       1.870   8.364  18.898  0.00  0.00    +0.000 A 
BRANCH   8  11
ATOM     11  C   UNL     1       0.165  10.913  21.183  0.00  0.00    +0.000 A 
ATOM     12  C   UNL     1       0.319  12.139  20.507  0.00  0.00    +0.000 A 
ATOM     13  C   UNL     1      -0.225  13.327  21.004  0.00  0.00    +0.000 A 
ATOM     14  C   UNL     1      -0.958  13.314  22.185  0.00  0.00    +0.000 A 
ATOM     15  C   UNL     1      -1.148  12.115  22.863  0.00  0.00    +0.000 A 
ATOM     16  C   UNL     1      -0.590  10.929  22.370  0.00  0.00    +0.000 A 
ENDBRANCH   8  11
ENDBRANCH   2   5
BRANCH   1  17
ATOM     17  C   UNL     1       4.420   4.382  19.465  0.00  0.00    +0.000 C 
BRANCH  17  21
ATOM     18  C   UNL     1       6.312   4.723  15.594  0.00  0.00    +0.000 A 
ATOM     19  C   UNL     1       6.786   5.480  16.672  0.00  0.00    +0.000 A 
ATOM     20  C   UNL     1       6.169   5.378  17.925  0.00  0.00    +0.000 A 
ATOM     21  C   UNL     1       5.090   4.503  18.119  0.00  0.00    +0.000 A 
ATOM     22  C   UNL     1       4.624   3.749  17.032  0.00  0.00    +0.000 A 
ATOM     23  C   UNL     1       5.235   3.850  15.780  0.00  0.00    +0.000 A 
BRANCH  18  25
ATOM     24  O   UNL     1       6.661   4.150  13.319  0.00  0.00    +0.000 OA
ATOM     25  C   UNL     1       6.989   4.844  14.276  0.00  0.00    +0.000 C 
ATOM     26  N   UNL     1       8.027   5.750  14.215  0.00  0.00    +0.000 N 
ATOM     27  H   UNL     1       8.532   6.050  15.041  0.00  0.00    +0.000 HD
BRANCH  26  28
ATOM     28  O   UNL     1       8.752   5.764  13.000  0.00  0.00    +0.000 OA
ATOM     29  H   UNL     1       9.665   5.560  13.302  0.00  0.00    +0.000 HD
ENDBRANCH  26  28
ENDBRANCH  18  25
ENDBRANCH  17  21
ENDBRANCH   1  17
TORSDOF 6
ENDMDL
MODEL 7
REMARK VINA RESULT:      -8.0      3.493     10.452
REMARK  Name = 
REMARK  6 active torsions:
REMARK  status: ('A' for Active; 'I' for Inactive)
REMARK    1  A    between atoms: C_2  and  C_5
REMARK    2  A    between atoms: N_3  and  O_4
REMARK    3  A    between atoms: C_8  and  C_9
REMARK    4  A    between atoms: C_9  and  N_10
REMARK    5  A    between atoms: C_11  and  C_13
REMARK    6  A    between atoms: C_16  and  C_17
REMARK                            x       y       z     vdW  Elec       q    Type
REMARK                         _______ _______ _______ _____ _____    ______ ____
ROOT
ATOM      1  N   UNL     1       2.613   6.772  19.691  0.00  0.00    +0.000 N 
ATOM      2  C   UNL     1       3.181   5.527  19.529  0.00  0.00    +0.000 C 
ATOM      3  O   UNL     1       3.111   4.633  20.364  0.00  0.00    +0.000 OA
ATOM      4  H   UNL     1       2.479   7.354  18.876  0.00  0.00    +0.000 HD
ENDROOT
BRANCH   2   5
ATOM      5  C   UNL     1       3.890   5.300  18.238  0.00  0.00    +0.000 A 
ATOM      6  C   UNL     1       4.407   6.366  17.501  0.00  0.00    +0.000 A 
ATOM      7  C   UNL     1       5.047   6.131  16.281  0.00  0.00    +0.000 A 
ATOM      8  C   UNL     1       5.222   4.829  15.772  0.00  0.00    +0.000 A 
ATOM      9  C   UNL     1       4.720   3.769  16.548  0.00  0.00    +0.000 A 
ATOM     10  C   UNL     1       4.061   3.996  17.766  0.00  0.00    +0.000 A 
BRANCH   8  11
ATOM     11  C   UNL     1       5.902   4.611  14.471  0.00  0.00    +0.000 A 
ATOM     12  C   UNL     1       5.373   3.728  13.510  0.00  0.00    +0.000 A 
ATOM     13  C   UNL     1       6.034   3.470  12.305  0.00  0.00    +0.000 A 
ATOM     14  C   UNL     1       7.235   4.108  12.022  0.00  0.00    +0.000 A 
ATOM     15  C   UNL     1       7.771   5.004  12.940  0.00  0.00    +0.000 A 
ATOM     16  C   UNL     1       7.114   5.250  14.153  0.00  0.00    +0.000 A 
ENDBRANCH   8  11
ENDBRANCH   2   5
BRANCH   1  17
ATOM     17  C   UNL     1       1.839   7.096  20.866  0.00  0.00    +0.000 C 
BRANCH  17  21
ATOM     18  C   UNL     1      -0.166  10.890  20.344  0.00  0.00    +0.000 A 
ATOM     19  C   UNL     1      -0.308  10.184  21.544  0.00  0.00    +0.000 A 
ATOM     20  C   UNL     1       0.333   8.950  21.713  0.00  0.00    +0.000 A 
ATOM     21  C   UNL     1       1.141   8.423  20.694  0.00  0.00    +0.000 A 
ATOM     22  C   UNL     1       1.278   9.139  19.497  0.00  0.00    +0.000 A 
ATOM     23  C   UNL     1       0.638  10.368  19.324  0.00  0.00    +0.000 A 
BRANCH  18  25
ATOM     24  O   UNL     1      -1.779  12.528  20.926  0.00  0.00    +0.000 OA
ATOM     25  C   UNL     1      -0.851  12.201  20.193  0.00  0.00    +0.000 C 
ATOM     26  N   UNL     1      -0.406  12.995  19.159  0.00  0.00    +0.000 N 
ATOM     27  H   UNL     1       0.079  12.615  18.354  0.00  0.00    +0.000 HD
BRANCH  26  28
ATOM     28  O   UNL     1      -1.149  14.179  18.937  0.00  0.00    +0.000 OA
ATOM     29  H   UNL     1      -0.670  14.832  19.494  0.00  0.00    +0.000 HD
ENDBRANCH  26  28
ENDBRANCH  18  25
ENDBRANCH  17  21
ENDBRANCH   1  17
TORSDOF 6
ENDMDL
MODEL 8
REMARK VINA RESULT:      -8.0      3.812      5.552
REMARK  Name = 
REMARK  6 active torsions:
REMARK  status: ('A' for Active; 'I' for Inactive)
REMARK    1  A    between atoms: C_2  and  C_5
REMARK    2  A    between atoms: N_3  and  O_4
REMARK    3  A    between atoms: C_8  and  C_9
REMARK    4  A    between atoms: C_9  and  N_10
REMARK    5  A    between atoms: C_11  and  C_13
REMARK    6  A    between atoms: C_16  and  C_17
REMARK                            x       y       z     vdW  Elec       q    Type
REMARK                         _______ _______ _______ _____ _____    ______ ____
ROOT
ATOM      1  N   UNL     1       3.905   5.816  19.729  0.00  0.00    +0.000 N 
ATOM      2  C   UNL     1       2.644   6.034  19.215  0.00  0.00    +0.000 C 
ATOM      3  O   UNL     1       2.063   5.245  18.480  0.00  0.00    +0.000 OA
ATOM      4  H   UNL     1       4.206   6.363  20.522  0.00  0.00    +0.000 HD
ENDROOT
BRANCH   2   5
ATOM      5  C   UNL     1       1.986   7.305  19.627  0.00  0.00    +0.000 A 
ATOM      6  C   UNL     1       1.860   8.374  18.739  0.00  0.00    +0.000 A 
ATOM      7  C   UNL     1       1.260   9.566  19.155  0.00  0.00    +0.000 A 
ATOM      8  C   UNL     1       0.740   9.721  20.455  0.00  0.00    +0.000 A 
ATOM      9  C   UNL     1       0.852   8.620  21.323  0.00  0.00    +0.000 A 
ATOM     10  C   UNL     1       1.467   7.425  20.919  0.00  0.00    +0.000 A 
BRANCH   8  11
ATOM     11  C   UNL     1       0.113  11.001  20.870  0.00  0.00    +0.000 A 
ATOM     12  C   UNL     1       0.089  12.115  20.009  0.00  0.00    +0.000 A 
ATOM     13  C   UNL     1      -0.447  13.343  20.411  0.00  0.00    +0.000 A 
ATOM     14  C   UNL     1      -0.995  13.480  21.681  0.00  0.00    +0.000 A 
ATOM     15  C   UNL     1      -1.008  12.391  22.545  0.00  0.00    +0.000 A 
ATOM     16  C   UNL     1      -0.457  11.166  22.146  0.00  0.00    +0.000 A 
ENDBRANCH   8  11
ENDBRANCH   2   5
BRANCH   1  17
ATOM     17  C   UNL     1       4.621   4.591  19.463  0.00  0.00    +0.000 C 
BRANCH  17  21
ATOM     18  C   UNL     1       6.404   4.678  15.526  0.00  0.00    +0.000 A 
ATOM     19  C   UNL     1       5.273   3.888  15.763  0.00  0.00    +0.000 A 
ATOM     20  C   UNL     1       4.698   3.851  17.040  0.00  0.00    +0.000 A 
ATOM     21  C   UNL     1       5.233   4.620  18.083  0.00  0.00    +0.000 A 
ATOM     22  C   UNL     1       6.365   5.409  17.835  0.00  0.00    +0.000 A 
ATOM     23  C   UNL     1       6.943   5.446  16.564  0.00  0.00    +0.000 A 
BRANCH  18  25
ATOM     24  O   UNL     1       7.797   5.566  13.823  0.00  0.00    +0.000 OA
ATOM     25  C   UNL     1       6.990   4.705  14.159  0.00  0.00    +0.000 C 
ATOM     26  N   UNL     1       6.538   3.733  13.293  0.00  0.00    +0.000 N 
ATOM     27  H   UNL     1       5.648   3.264  13.422  0.00  0.00    +0.000 HD
BRANCH  26  28
ATOM     28  O   UNL     1       6.996   3.845  11.959  0.00  0.00    +0.000 OA
ATOM     29  H   UNL     1       7.126   4.815  11.866  0.00  0.00    +0.000 HD
ENDBRANCH  26  28
ENDBRANCH  18  25
ENDBRANCH  17  21
ENDBRANCH   1  17
TORSDOF 6
ENDMDL
MODEL 9
REMARK VINA RESULT:      -8.0      3.500      5.328
REMARK  Name = 
REMARK  6 active torsions:
REMARK  status: ('A' for Active; 'I' for Inactive)
REMARK    1  A    between atoms: C_2  and  C_5
REMARK    2  A    between atoms: N_3  and  O_4
REMARK    3  A    between atoms: C_8  and  C_9
REMARK    4  A    between atoms: C_9  and  N_10
REMARK    5  A    between atoms: C_11  and  C_13
REMARK    6  A    between atoms: C_16  and  C_17
REMARK                            x       y       z     vdW  Elec       q    Type
REMARK                         _______ _______ _______ _____ _____    ______ ____
ROOT
ATOM      1  N   UNL     1       3.948   6.132  19.607  0.00  0.00    +0.000 N 
ATOM      2  C   UNL     1       2.603   6.000  19.875  0.00  0.00    +0.000 C 
ATOM      3  O   UNL     1       2.033   4.921  19.981  0.00  0.00    +0.000 OA
ATOM      4  H   UNL     1       4.397   7.017  19.797  0.00  0.00    +0.000 HD
ENDROOT
BRANCH   2   5
ATOM      5  C   UNL     1       1.851   7.273  20.062  0.00  0.00    +0.000 A 
ATOM      6  C   UNL     1       1.875   8.274  19.090  0.00  0.00    +0.000 A 
ATOM      7  C   UNL     1       1.180   9.470  19.296  0.00  0.00    +0.000 A 
ATOM      8  C   UNL     1       0.416   9.694  20.459  0.00  0.00    +0.000 A 
ATOM      9  C   UNL     1       0.383   8.658  21.410  0.00  0.00    +0.000 A 
ATOM     10  C   UNL     1       1.090   7.461  21.218  0.00  0.00    +0.000 A 
BRANCH   8  11
ATOM     11  C   UNL     1      -0.307  10.975  20.653  0.00  0.00    +0.000 A 
ATOM     12  C   UNL     1      -0.409  11.571  21.925  0.00  0.00    +0.000 A 
ATOM     13  C   UNL     1      -1.136  12.747  22.130  0.00  0.00    +0.000 A 
ATOM     14  C   UNL     1      -1.764  13.372  21.059  0.00  0.00    +0.000 A 
ATOM     15  C   UNL     1      -1.661  12.821  19.786  0.00  0.00    +0.000 A 
ATOM     16  C   UNL     1      -0.944  11.635  19.586  0.00  0.00    +0.000 A 
ENDBRANCH   8  11
ENDBRANCH   2   5
BRANCH   1  17
ATOM     17  C   UNL     1       4.803   4.976  19.475  0.00  0.00    +0.000 C 
BRANCH  17  21
ATOM     18  C   UNL     1       6.333   4.624  15.448  0.00  0.00    +0.000 A 
ATOM     19  C   UNL     1       4.957   4.771  15.662  0.00  0.00    +0.000 A 
ATOM     20  C   UNL     1       4.458   4.877  16.966  0.00  0.00    +0.000 A 
ATOM     21  C   UNL     1       5.329   4.860  18.065  0.00  0.00    +0.000 A 
ATOM     22  C   UNL     1       6.705   4.713  17.839  0.00  0.00    +0.000 A 
ATOM     23  C   UNL     1       7.206   4.605  16.540  0.00  0.00    +0.000 A 
BRANCH  18  25
ATOM     24  O   UNL     1       7.611   5.352  13.587  0.00  0.00    +0.000 OA
ATOM     25  C   UNL     1       6.838   4.521  14.053  0.00  0.00    +0.000 C 
ATOM     26  N   UNL     1       6.350   3.465  13.314  0.00  0.00    +0.000 N 
ATOM     27  H   UNL     1       5.476   3.003  13.541  0.00  0.00    +0.000 HD
BRANCH  26  28
ATOM     28  O   UNL     1       6.728   3.449  11.951  0.00  0.00    +0.000 OA
ATOM     29  H   UNL     1       7.631   3.062  11.991  0.00  0.00    +0.000 HD
ENDBRANCH  26  28
ENDBRANCH  18  25
ENDBRANCH  17  21
ENDBRANCH   1  17
TORSDOF 6
ENDMDL
