MODEL 1
REMARK VINA RESULT:      -8.6      0.000      0.000
REMARK  Name = 
REMARK  3 active torsions:
REMARK  status: ('A' for Active; 'I' for Inactive)
REMARK    1  A    between atoms: C_7  and  C_8
REMARK    2  A    between atoms: N_14  and  C_15
REMARK    3  A    between atoms: C_15  and  C_16
REMARK                            x       y       z     vdW  Elec       q    Type
REMARK                         _______ _______ _______ _____ _____    ______ ____
ROOT
ATOM      1  C   UNL     1       4.037   3.376  18.128  0.00  0.00    +0.000 A 
ATOM      2  C   UNL     1       3.681   2.036  18.313  0.00  0.00    +0.000 A 
ATOM      3  N   UNL     1       2.602   1.876  19.164  0.00  0.00    +0.000 NA
ATOM      4  C   UNL     1       2.320   3.104  19.490  0.00  0.00    +0.000 A 
ATOM      5  S   UNL     1       1.099   3.866  20.412  0.00  0.00    +0.000 S 
ATOM      6  C   UNL     1       1.910   5.402  20.013  0.00  0.00    +0.000 A 
ATOM      7  N   UNL     1       1.347   6.515  20.545  0.00  0.00    +0.000 N 
ATOM      8  N   UNL     1       2.968   5.348  19.258  0.00  0.00    +0.000 NA
ATOM      9  N   UNL     1       3.154   4.032  18.959  0.00  0.00    +0.000 N 
ATOM     10  H   UNL     1       0.427   6.437  20.960  0.00  0.00    +0.000 HD
ENDROOT
BRANCH   1  17
ATOM     11 CL   UNL     1       6.388   5.130  19.389  0.00  0.00    +0.000 Cl
ATOM     12  C   UNL     1       6.111   4.790  17.714  0.00  0.00    +0.000 A 
ATOM     13  C   UNL     1       7.032   5.354  16.815  0.00  0.00    +0.000 A 
ATOM     14  C   UNL     1       6.886   5.173  15.443  0.00  0.00    +0.000 A 
ATOM     15  C   UNL     1       5.826   4.416  14.962  0.00  0.00    +0.000 A 
ATOM     16  C   UNL     1       4.914   3.843  15.854  0.00  0.00    +0.000 A 
ATOM     17  C   UNL     1       5.025   4.023  17.248  0.00  0.00    +0.000 A 
ENDBRANCH   1  17
BRANCH   7  18
ATOM     18  C   UNL     1       2.032   7.776  20.679  0.00  0.00    +0.000 C 
BRANCH  18  19
ATOM     19  C   UNL     1       1.024   8.889  20.882  0.00  0.00    +0.000 A 
ATOM     20  C   UNL     1       0.568   9.650  19.780  0.00  0.00    +0.000 A 
ATOM     21  C   UNL     1      -0.349  10.694  19.957  0.00  0.00    +0.000 A 
ATOM     22  C   UNL     1      -0.793  10.952  21.236  0.00  0.00    +0.000 A 
ATOM     23  C   UNL     1      -0.356  10.225  22.312  0.00  0.00    +0.000 A 
ATOM     24  C   UNL     1       0.553   9.195  22.173  0.00  0.00    +0.000 A 
ATOM     25  O   UNL     1      -0.909  10.641  23.483  0.00  0.00    +0.000 OA
ATOM     26  C   UNL     1      -1.734  11.728  23.019  0.00  0.00    +0.000 C 
ATOM     27  O   UNL     1      -1.674  11.923  21.590  0.00  0.00    +0.000 OA
ENDBRANCH  18  19
ENDBRANCH   7  18
TORSDOF 3
ENDMDL
MODEL 2
REMARK VINA RESULT:      -8.6      0.866      1.428
REMARK  Name = 
REMARK  3 active torsions:
REMARK  status: ('A' for Active; 'I' for Inactive)
REMARK    1  A    between atoms: C_7  and  C_8
REMARK    2  A    between atoms: N_14  and  C_15
REMARK    3  A    between atoms: C_15  and  C_16
REMARK                            x       y       z     vdW  Elec       q    Type
REMARK                         _______ _______ _______ _____ _____    ______ ____
ROOT
ATOM      1  C   UNL     1       4.598   3.734  18.746  0.00  0.00    +0.000 A 
ATOM      2  C   UNL     1       4.594   2.454  19.309  0.00  0.00    +0.000 A 
ATOM      3  N   UNL     1       3.660   2.310  20.319  0.00  0.00    +0.000 NA
ATOM      4  C   UNL     1       3.116   3.491  20.366  0.00  0.00    +0.000 A 
ATOM      5  S   UNL     1       1.827   4.201  21.234  0.00  0.00    +0.000 S 
ATOM      6  C   UNL     1       2.205   5.703  20.352  0.00  0.00    +0.000 A 
ATOM      7  N   UNL     1       1.434   6.774  20.665  0.00  0.00    +0.000 N 
ATOM      8  N   UNL     1       3.179   5.668  19.491  0.00  0.00    +0.000 NA
ATOM      9  N   UNL     1       3.653   4.391  19.506  0.00  0.00    +0.000 N 
ATOM     10  H   UNL     1       0.598   6.620  21.215  0.00  0.00    +0.000 HD
ENDROOT
BRANCH   1  17
ATOM     11 CL   UNL     1       7.111   5.640  19.241  0.00  0.00    +0.000 Cl
ATOM     12  C   UNL     1       6.458   5.133  17.719  0.00  0.00    +0.000 A 
ATOM     13  C   UNL     1       7.117   5.621  16.578  0.00  0.00    +0.000 A 
ATOM     14  C   UNL     1       6.657   5.304  15.304  0.00  0.00    +0.000 A 
ATOM     15  C   UNL     1       5.543   4.486  15.162  0.00  0.00    +0.000 A 
ATOM     16  C   UNL     1       4.892   3.990  16.296  0.00  0.00    +0.000 A 
ATOM     17  C   UNL     1       5.323   4.307  17.600  0.00  0.00    +0.000 A 
ENDBRANCH   1  17
BRANCH   7  18
ATOM     18  C   UNL     1       1.801   8.139  20.380  0.00  0.00    +0.000 C 
BRANCH  18  19
ATOM     19  C   UNL     1       0.884   9.084  21.128  0.00  0.00    +0.000 A 
ATOM     20  C   UNL     1       0.645   8.905  22.511  0.00  0.00    +0.000 A 
ATOM     21  C   UNL     1      -0.217   9.760  23.209  0.00  0.00    +0.000 A 
ATOM     22  C   UNL     1      -0.820  10.781  22.507  0.00  0.00    +0.000 A 
ATOM     23  C   UNL     1      -0.601  10.963  21.166  0.00  0.00    +0.000 A 
ATOM     24  C   UNL     1       0.236  10.134  20.447  0.00  0.00    +0.000 A 
ATOM     25  O   UNL     1      -1.293  12.020  20.663  0.00  0.00    +0.000 OA
ATOM     26  C   UNL     1      -1.988  12.473  21.841  0.00  0.00    +0.000 C 
ATOM     27  O   UNL     1      -1.683  11.697  23.020  0.00  0.00    +0.000 OA
ENDBRANCH  18  19
ENDBRANCH   7  18
TORSDOF 3
ENDMDL
MODEL 3
REMARK VINA RESULT:      -8.3      1.150      1.543
REMARK  Name = 
REMARK  3 active torsions:
REMARK  status: ('A' for Active; 'I' for Inactive)
REMARK    1  A    between atoms: C_7  and  C_8
REMARK    2  A    between atoms: N_14  and  C_15
REMARK    3  A    between atoms: C_15  and  C_16
REMARK                            x       y       z     vdW  Elec       q    Type
REMARK                         _______ _______ _______ _____ _____    ______ ____
ROOT
ATOM      1  C   UNL     1       4.212   3.604  18.401  0.00  0.00    +0.000 A 
ATOM      2  C   UNL     1       3.969   2.247  18.636  0.00  0.00    +0.000 A 
ATOM      3  N   UNL     1       2.943   2.030  19.538  0.00  0.00    +0.000 NA
ATOM      4  C   UNL     1       2.581   3.241  19.845  0.00  0.00    +0.000 A 
ATOM      5  S   UNL     1       1.346   3.935  20.801  0.00  0.00    +0.000 S 
ATOM      6  C   UNL     1       2.018   5.516  20.327  0.00  0.00    +0.000 A 
ATOM      7  N   UNL     1       1.394   6.598  20.855  0.00  0.00    +0.000 N 
ATOM      8  N   UNL     1       3.043   5.520  19.527  0.00  0.00    +0.000 NA
ATOM      9  N   UNL     1       3.317   4.215  19.254  0.00  0.00    +0.000 N 
ATOM     10  H   UNL     1       0.501   6.462  21.312  0.00  0.00    +0.000 HD
ENDROOT
BRANCH   1  17
ATOM     11 CL   UNL     1       6.622   5.379  19.513  0.00  0.00    +0.000 Cl
ATOM     12  C   UNL     1       6.213   5.078  17.857  0.00  0.00    +0.000 A 
ATOM     13  C   UNL     1       7.043   5.689  16.902  0.00  0.00    +0.000 A 
ATOM     14  C   UNL     1       6.786   5.542  15.542  0.00  0.00    +0.000 A 
ATOM     15  C   UNL     1       5.706   4.773  15.129  0.00  0.00    +0.000 A 
ATOM     16  C   UNL     1       4.885   4.154  16.077  0.00  0.00    +0.000 A 
ATOM     17  C   UNL     1       5.109   4.298  17.461  0.00  0.00    +0.000 A 
ENDBRANCH   1  17
BRANCH   7  18
ATOM     18  C   UNL     1       1.984   7.911  20.926  0.00  0.00    +0.000 C 
BRANCH  18  19
ATOM     19  C   UNL     1       1.149   8.893  20.130  0.00  0.00    +0.000 A 
ATOM     20  C   UNL     1       1.319   9.007  18.730  0.00  0.00    +0.000 A 
ATOM     21  C   UNL     1       0.566   9.926  17.987  0.00  0.00    +0.000 A 
ATOM     22  C   UNL     1      -0.344  10.709  18.662  0.00  0.00    +0.000 A 
ATOM     23  C   UNL     1      -0.516  10.612  20.018  0.00  0.00    +0.000 A 
ATOM     24  C   UNL     1       0.215   9.722  20.781  0.00  0.00    +0.000 A 
ATOM     25  O   UNL     1      -1.457  11.473  20.489  0.00  0.00    +0.000 OA
ATOM     26  C   UNL     1      -1.846  12.138  19.272  0.00  0.00    +0.000 C 
ATOM     27  O   UNL     1      -1.151  11.649  18.104  0.00  0.00    +0.000 OA
ENDBRANCH  18  19
ENDBRANCH   7  18
TORSDOF 3
ENDMDL
MODEL 4
REMARK VINA RESULT:      -8.2      1.579      2.219
REMARK  Name = 
REMARK  3 active torsions:
REMARK  status: ('A' for Active; 'I' for Inactive)
REMARK    1  A    between atoms: C_7  and  C_8
REMARK    2  A    between atoms: N_14  and  C_15
REMARK    3  A    between atoms: C_15  and  C_16
REMARK                            x       y       z     vdW  Elec       q    Type
REMARK                         _______ _______ _______ _____ _____    ______ ____
ROOT
ATOM      1  C   UNL     1       4.601   4.021  19.035  0.00  0.00    +0.000 A 
ATOM      2  C   UNL     1       4.376   2.641  19.079  0.00  0.00    +0.000 A 
ATOM      3  N   UNL     1       3.165   2.309  19.660  0.00  0.00    +0.000 NA
ATOM      4  C   UNL     1       2.674   3.474  19.967  0.00  0.00    +0.000 A 
ATOM      5  S   UNL     1       1.201   4.036  20.624  0.00  0.00    +0.000 S 
ATOM      6  C   UNL     1       1.889   5.674  20.482  0.00  0.00    +0.000 A 
ATOM      7  N   UNL     1       1.095   6.682  20.922  0.00  0.00    +0.000 N 
ATOM      8  N   UNL     1       3.084   5.785  19.981  0.00  0.00    +0.000 NA
ATOM      9  N   UNL     1       3.486   4.520  19.675  0.00  0.00    +0.000 N 
ATOM     10  H   UNL     1       0.122   6.477  21.117  0.00  0.00    +0.000 HD
ENDROOT
BRANCH   1  17
ATOM     11 CL   UNL     1       4.780   4.300  15.859  0.00  0.00    +0.000 Cl
ATOM     12  C   UNL     1       5.813   5.033  17.040  0.00  0.00    +0.000 A 
ATOM     13  C   UNL     1       6.844   5.841  16.533  0.00  0.00    +0.000 A 
ATOM     14  C   UNL     1       7.753   6.453  17.391  0.00  0.00    +0.000 A 
ATOM     15  C   UNL     1       7.629   6.270  18.762  0.00  0.00    +0.000 A 
ATOM     16  C   UNL     1       6.597   5.475  19.271  0.00  0.00    +0.000 A 
ATOM     17  C   UNL     1       5.672   4.829  18.427  0.00  0.00    +0.000 A 
ENDBRANCH   1  17
BRANCH   7  18
ATOM     18  C   UNL     1       1.578   7.997  21.259  0.00  0.00    +0.000 C 
BRANCH  18  19
ATOM     19  C   UNL     1       0.894   9.033  20.391  0.00  0.00    +0.000 A 
ATOM     20  C   UNL     1       1.258   9.180  19.031  0.00  0.00    +0.000 A 
ATOM     21  C   UNL     1       0.646  10.148  18.224  0.00  0.00    +0.000 A 
ATOM     22  C   UNL     1      -0.320  10.947  18.795  0.00  0.00    +0.000 A 
ATOM     23  C   UNL     1      -0.678  10.819  20.111  0.00  0.00    +0.000 A 
ATOM     24  C   UNL     1      -0.090   9.880  20.936  0.00  0.00    +0.000 A 
ATOM     25  O   UNL     1      -1.643  11.703  20.479  0.00  0.00    +0.000 OA
ATOM     26  C   UNL     1      -1.839  12.417  19.243  0.00  0.00    +0.000 C 
ATOM     27  O   UNL     1      -1.009  11.934  18.164  0.00  0.00    +0.000 OA
ENDBRANCH  18  19
ENDBRANCH   7  18
TORSDOF 3
ENDMDL
MODEL 5
REMARK VINA RESULT:      -8.1      1.770      2.423
REMARK  Name = 
REMARK  3 active torsions:
REMARK  status: ('A' for Active; 'I' for Inactive)
REMARK    1  A    between atoms: C_7  and  C_8
REMARK    2  A    between atoms: N_14  and  C_15
REMARK    3  A    between atoms: C_15  and  C_16
REMARK                            x       y       z     vdW  Elec       q    Type
REMARK                         _______ _______ _______ _____ _____    ______ ____
ROOT
ATOM      1  C   UNL     1       4.633   3.980  18.512  0.00  0.00    +0.000 A 
ATOM      2  C   UNL     1       4.571   2.803  19.264  0.00  0.00    +0.000 A 
ATOM      3  N   UNL     1       3.623   2.853  20.270  0.00  0.00    +0.000 NA
ATOM      4  C   UNL     1       3.128   4.047  20.127  0.00  0.00    +0.000 A 
ATOM      5  S   UNL     1       1.861   4.932  20.857  0.00  0.00    +0.000 S 
ATOM      6  C   UNL     1       2.308   6.264  19.761  0.00  0.00    +0.000 A 
ATOM      7  N   UNL     1       1.580   7.400  19.895  0.00  0.00    +0.000 N 
ATOM      8  N   UNL     1       3.288   6.060  18.930  0.00  0.00    +0.000 NA
ATOM      9  N   UNL     1       3.709   4.783  19.148  0.00  0.00    +0.000 N 
ATOM     10  H   UNL     1       0.732   7.365  20.448  0.00  0.00    +0.000 HD
ENDROOT
BRANCH   1  17
ATOM     11 CL   UNL     1       7.444   5.470  18.781  0.00  0.00    +0.000 Cl
ATOM     12  C   UNL     1       6.651   4.973  17.323  0.00  0.00    +0.000 A 
ATOM     13  C   UNL     1       7.331   5.263  16.128  0.00  0.00    +0.000 A 
ATOM     14  C   UNL     1       6.770   4.937  14.897  0.00  0.00    +0.000 A 
ATOM     15  C   UNL     1       5.532   4.310  14.853  0.00  0.00    +0.000 A 
ATOM     16  C   UNL     1       4.858   4.010  16.041  0.00  0.00    +0.000 A 
ATOM     17  C   UNL     1       5.392   4.342  17.303  0.00  0.00    +0.000 A 
ENDBRANCH   1  17
BRANCH   7  18
ATOM     18  C   UNL     1       2.005   8.690  19.410  0.00  0.00    +0.000 C 
BRANCH  18  19
ATOM     19  C   UNL     1       0.804   9.599  19.249  0.00  0.00    +0.000 A 
ATOM     20  C   UNL     1       0.449  10.505  20.276  0.00  0.00    +0.000 A 
ATOM     21  C   UNL     1      -0.671  11.336  20.147  0.00  0.00    +0.000 A 
ATOM     22  C   UNL     1      -1.410  11.245  18.988  0.00  0.00    +0.000 A 
ATOM     23  C   UNL     1      -1.081  10.370  17.987  0.00  0.00    +0.000 A 
ATOM     24  C   UNL     1       0.012   9.531  18.086  0.00  0.00    +0.000 A 
ATOM     25  O   UNL     1      -1.938  10.432  16.934  0.00  0.00    +0.000 OA
ATOM     26  C   UNL     1      -2.859  11.439  17.396  0.00  0.00    +0.000 C 
ATOM     27  O   UNL     1      -2.523  11.970  18.697  0.00  0.00    +0.000 OA
ENDBRANCH  18  19
ENDBRANCH   7  18
TORSDOF 3
ENDMDL
MODEL 6
REMARK VINA RESULT:      -8.0      1.201      1.666
REMARK  Name = 
REMARK  3 active torsions:
REMARK  status: ('A' for Active; 'I' for Inactive)
REMARK    1  A    between atoms: C_7  and  C_8
REMARK    2  A    between atoms: N_14  and  C_15
REMARK    3  A    between atoms: C_15  and  C_16
REMARK                            x       y       z     vdW  Elec       q    Type
REMARK                         _______ _______ _______ _____ _____    ______ ____
ROOT
ATOM      1  C   UNL     1       4.479   4.027  18.925  0.00  0.00    +0.000 A 
ATOM      2  C   UNL     1       4.149   2.668  18.885  0.00  0.00    +0.000 A 
ATOM      3  N   UNL     1       2.920   2.393  19.456  0.00  0.00    +0.000 NA
ATOM      4  C   UNL     1       2.522   3.570  19.840  0.00  0.00    +0.000 A 
ATOM      5  S   UNL     1       1.099   4.200  20.546  0.00  0.00    +0.000 S 
ATOM      6  C   UNL     1       1.909   5.787  20.500  0.00  0.00    +0.000 A 
ATOM      7  N   UNL     1       1.198   6.822  21.011  0.00  0.00    +0.000 N 
ATOM      8  N   UNL     1       3.107   5.838  19.995  0.00  0.00    +0.000 NA
ATOM      9  N   UNL     1       3.410   4.568  19.607  0.00  0.00    +0.000 N 
ATOM     10  H   UNL     1       0.213   6.680  21.202  0.00  0.00    +0.000 HD
ENDROOT
BRANCH   1  17
ATOM     11 CL   UNL     1       4.812   4.261  15.758  0.00  0.00    +0.000 Cl
ATOM     12  C   UNL     1       5.818   4.970  16.978  0.00  0.00    +0.000 A 
ATOM     13  C   UNL     1       6.899   5.734  16.510  0.00  0.00    +0.000 A 
ATOM     14  C   UNL     1       7.791   6.322  17.403  0.00  0.00    +0.000 A 
ATOM     15  C   UNL     1       7.598   6.160  18.768  0.00  0.00    +0.000 A 
ATOM     16  C   UNL     1       6.516   5.410  19.237  0.00  0.00    +0.000 A 
ATOM     17  C   UNL     1       5.606   4.788  18.358  0.00  0.00    +0.000 A 
ENDBRANCH   1  17
BRANCH   7  18
ATOM     18  C   UNL     1       1.782   8.073  21.425  0.00  0.00    +0.000 C 
BRANCH  18  19
ATOM     19  C   UNL     1       0.746   9.174  21.346  0.00  0.00    +0.000 A 
ATOM     20  C   UNL     1       0.316   9.665  20.090  0.00  0.00    +0.000 A 
ATOM     21  C   UNL     1      -0.627  10.697  20.005  0.00  0.00    +0.000 A 
ATOM     22  C   UNL     1      -1.123  11.215  21.182  0.00  0.00    +0.000 A 
ATOM     23  C   UNL     1      -0.712  10.753  22.405  0.00  0.00    +0.000 A 
ATOM     24  C   UNL     1       0.221   9.742  22.524  0.00  0.00    +0.000 A 
ATOM     25  O   UNL     1      -1.317  11.399  23.437  0.00  0.00    +0.000 OA
ATOM     26  C   UNL     1      -2.145  12.336  22.721  0.00  0.00    +0.000 C 
ATOM     27  O   UNL     1      -2.036  12.216  21.286  0.00  0.00    +0.000 OA
ENDBRANCH  18  19
ENDBRANCH   7  18
TORSDOF 3
ENDMDL
MODEL 7
REMARK VINA RESULT:      -8.0      1.804      2.570
REMARK  Name = 
REMARK  3 active torsions:
REMARK  status: ('A' for Active; 'I' for Inactive)
REMARK    1  A    between atoms: C_7  and  C_8
REMARK    2  A    between atoms: N_14  and  C_15
REMARK    3  A    between atoms: C_15  and  C_16
REMARK                            x       y       z     vdW  Elec       q    Type
REMARK                         _______ _______ _______ _____ _____    ______ ____
ROOT
ATOM      1  C   UNL     1       4.625   4.645  18.921  0.00  0.00    +0.000 A 
ATOM      2  C   UNL     1       4.382   3.286  18.698  0.00  0.00    +0.000 A 
ATOM      3  N   UNL     1       3.122   2.888  19.107  0.00  0.00    +0.000 NA
ATOM      4  C   UNL     1       2.619   3.992  19.575  0.00  0.00    +0.000 A 
ATOM      5  S   UNL     1       1.101   4.468  20.198  0.00  0.00    +0.000 S 
ATOM      6  C   UNL     1       1.816   6.086  20.409  0.00  0.00    +0.000 A 
ATOM      7  N   UNL     1       0.999   7.021  20.954  0.00  0.00    +0.000 N 
ATOM      8  N   UNL     1       3.052   6.253  20.037  0.00  0.00    +0.000 NA
ATOM      9  N   UNL     1       3.465   5.052  19.545  0.00  0.00    +0.000 N 
ATOM     10  H   UNL     1       0.011   6.810  21.028  0.00  0.00    +0.000 HD
ENDROOT
BRANCH   1  17
ATOM     11 CL   UNL     1       4.312   6.747  16.537  0.00  0.00    +0.000 Cl
ATOM     12  C   UNL     1       5.700   6.494  17.543  0.00  0.00    +0.000 A 
ATOM     13  C   UNL     1       6.809   7.313  17.272  0.00  0.00    +0.000 A 
ATOM     14  C   UNL     1       7.988   7.173  17.997  0.00  0.00    +0.000 A 
ATOM     15  C   UNL     1       8.062   6.222  19.006  0.00  0.00    +0.000 A 
ATOM     16  C   UNL     1       6.956   5.413  19.286  0.00  0.00    +0.000 A 
ATOM     17  C   UNL     1       5.754   5.519  18.558  0.00  0.00    +0.000 A 
ENDBRANCH   1  17
BRANCH   7  18
ATOM     18  C   UNL     1       1.466   8.242  21.560  0.00  0.00    +0.000 C 
BRANCH  18  19
ATOM     19  C   UNL     1       0.562   9.391  21.162  0.00  0.00    +0.000 A 
ATOM     20  C   UNL     1      -0.064  10.186  22.151  0.00  0.00    +0.000 A 
ATOM     21  C   UNL     1      -0.917  11.238  21.795  0.00  0.00    +0.000 A 
ATOM     22  C   UNL     1      -1.123  11.475  20.454  0.00  0.00    +0.000 A 
ATOM     23  C   UNL     1      -0.527  10.710  19.485  0.00  0.00    +0.000 A 
ATOM     24  C   UNL     1       0.314   9.661  19.802  0.00  0.00    +0.000 A 
ATOM     25  O   UNL     1      -0.863  11.104  18.228  0.00  0.00    +0.000 OA
ATOM     26  C   UNL     1      -1.756  12.197  18.518  0.00  0.00    +0.000 C 
ATOM     27  O   UNL     1      -1.917  12.446  19.931  0.00  0.00    +0.000 OA
ENDBRANCH  18  19
ENDBRANCH   7  18
TORSDOF 3
ENDMDL
MODEL 8
REMARK VINA RESULT:      -8.0      1.332      2.135
REMARK  Name = 
REMARK  3 active torsions:
REMARK  status: ('A' for Active; 'I' for Inactive)
REMARK    1  A    between atoms: C_7  and  C_8
REMARK    2  A    between atoms: N_14  and  C_15
REMARK    3  A    between atoms: C_15  and  C_16
REMARK                            x       y       z     vdW  Elec       q    Type
REMARK                         _______ _______ _______ _____ _____    ______ ____
ROOT
ATOM      1  C   UNL     1       4.426   4.085  18.849  0.00  0.00    +0.000 A 
ATOM      2  C   UNL     1       4.064   2.736  18.771  0.00  0.00    +0.000 A 
ATOM      3  N   UNL     1       2.828   2.474  19.333  0.00  0.00    +0.000 NA
ATOM      4  C   UNL     1       2.456   3.649  19.748  0.00  0.00    +0.000 A 
ATOM      5  S   UNL     1       1.047   4.293  20.469  0.00  0.00    +0.000 S 
ATOM      6  C   UNL     1       1.894   5.861  20.467  0.00  0.00    +0.000 A 
ATOM      7  N   UNL     1       1.205   6.898  21.004  0.00  0.00    +0.000 N 
ATOM      8  N   UNL     1       3.094   5.898  19.965  0.00  0.00    +0.000 NA
ATOM      9  N   UNL     1       3.367   4.632  19.543  0.00  0.00    +0.000 N 
ATOM     10  H   UNL     1       0.218   6.774  21.190  0.00  0.00    +0.000 HD
ENDROOT
BRANCH   1  17
ATOM     11 CL   UNL     1       4.806   4.341  15.688  0.00  0.00    +0.000 Cl
ATOM     12  C   UNL     1       5.804   5.025  16.928  0.00  0.00    +0.000 A 
ATOM     13  C   UNL     1       6.903   5.777  16.482  0.00  0.00    +0.000 A 
ATOM     14  C   UNL     1       7.790   6.345  17.392  0.00  0.00    +0.000 A 
ATOM     15  C   UNL     1       7.576   6.175  18.753  0.00  0.00    +0.000 A 
ATOM     16  C   UNL     1       6.477   5.436  19.200  0.00  0.00    +0.000 A 
ATOM     17  C   UNL     1       5.570   4.834  18.304  0.00  0.00    +0.000 A 
ENDBRANCH   1  17
BRANCH   7  18
ATOM     18  C   UNL     1       1.818   8.124  21.452  0.00  0.00    +0.000 C 
BRANCH  18  19
ATOM     19  C   UNL     1       0.758   9.190  21.636  0.00  0.00    +0.000 A 
ATOM     20  C   UNL     1       0.147   9.383  22.898  0.00  0.00    +0.000 A 
ATOM     21  C   UNL     1      -0.848  10.352  23.075  0.00  0.00    +0.000 A 
ATOM     22  C   UNL     1      -1.208  11.112  21.984  0.00  0.00    +0.000 A 
ATOM     23  C   UNL     1      -0.628  10.934  20.756  0.00  0.00    +0.000 A 
ATOM     24  C   UNL     1       0.350   9.982  20.545  0.00  0.00    +0.000 A 
ATOM     25  O   UNL     1      -1.127  11.779  19.814  0.00  0.00    +0.000 OA
ATOM     26  C   UNL     1      -2.104  12.500  20.591  0.00  0.00    +0.000 C 
ATOM     27  O   UNL     1      -2.152  12.090  21.975  0.00  0.00    +0.000 OA
ENDBRANCH  18  19
ENDBRANCH   7  18
TORSDOF 3
ENDMDL
MODEL 9
REMARK VINA RESULT:      -8.0      1.201      1.403
REMARK  Name = 
REMARK  3 active torsions:
REMARK  status: ('A' for Active; 'I' for Inactive)
REMARK    1  A    between atoms: C_7  and  C_8
REMARK    2  A    between atoms: N_14  and  C_15
REMARK    3  A    between atoms: C_15  and  C_16
REMARK                            x       y       z     vdW  Elec       q    Type
REMARK                         _______ _______ _______ _____ _____    ______ ____
ROOT
ATOM      1  C   UNL     1       4.583   3.944  18.606  0.00  0.00    +0.000 A 
ATOM      2  C   UNL     1       4.510   2.752  19.334  0.00  0.00    +0.000 A 
ATOM      3  N   UNL     1       3.548   2.782  20.326  0.00  0.00    +0.000 NA
ATOM      4  C   UNL     1       3.055   3.979  20.200  0.00  0.00    +0.000 A 
ATOM      5  S   UNL     1       1.778   4.851  20.929  0.00  0.00    +0.000 S 
ATOM      6  C   UNL     1       2.242   6.204  19.866  0.00  0.00    +0.000 A 
ATOM      7  N   UNL     1       1.512   7.338  20.012  0.00  0.00    +0.000 N 
ATOM      8  N   UNL     1       3.233   6.015  19.046  0.00  0.00    +0.000 NA
ATOM      9  N   UNL     1       3.651   4.734  19.244  0.00  0.00    +0.000 N 
ATOM     10  H   UNL     1       0.656   7.293  20.552  0.00  0.00    +0.000 HD
ENDROOT
BRANCH   1  17
ATOM     11 CL   UNL     1       7.330   5.538  18.940  0.00  0.00    +0.000 Cl
ATOM     12  C   UNL     1       6.594   5.007  17.465  0.00  0.00    +0.000 A 
ATOM     13  C   UNL     1       7.293   5.316  16.286  0.00  0.00    +0.000 A 
ATOM     14  C   UNL     1       6.776   4.966  15.042  0.00  0.00    +0.000 A 
ATOM     15  C   UNL     1       5.564   4.293  14.970  0.00  0.00    +0.000 A 
ATOM     16  C   UNL     1       4.871   3.973  16.142  0.00  0.00    +0.000 A 
ATOM     17  C   UNL     1       5.360   4.329  17.415  0.00  0.00    +0.000 A 
ENDBRANCH   1  17
BRANCH   7  18
ATOM     18  C   UNL     1       1.944   8.636  19.559  0.00  0.00    +0.000 C 
BRANCH  18  19
ATOM     19  C   UNL     1       0.764   9.585  19.521  0.00  0.00    +0.000 A 
ATOM     20  C   UNL     1       0.106   9.861  18.298  0.00  0.00    +0.000 A 
ATOM     21  C   UNL     1      -0.973  10.752  18.247  0.00  0.00    +0.000 A 
ATOM     22  C   UNL     1      -1.373  11.347  19.423  0.00  0.00    +0.000 A 
ATOM     23  C   UNL     1      -0.743  11.094  20.613  0.00  0.00    +0.000 A 
ATOM     24  C   UNL     1       0.328  10.226  20.697  0.00  0.00    +0.000 A 
ATOM     25  O   UNL     1      -1.287  11.783  21.650  0.00  0.00    +0.000 OA
ATOM     26  C   UNL     1      -2.325  12.517  20.971  0.00  0.00    +0.000 C 
ATOM     27  O   UNL     1      -2.394  12.235  19.556  0.00  0.00    +0.000 OA
ENDBRANCH  18  19
ENDBRANCH   7  18
TORSDOF 3
ENDMDL
