MODEL 1
REMARK VINA RESULT:      -8.2      0.000      0.000
REMARK  Name = 
REMARK  7 active torsions:
REMARK  status: ('A' for Active; 'I' for Inactive)
REMARK    1  A    between atoms: C_1  and  O_2
REMARK    2  A    between atoms: O_2  and  C_3
REMARK    3  A    between atoms: C_3  and  C_5
REMARK    4  A    between atoms: C_5  and  C_6
REMARK    5  A    between atoms: C_16  and  N_17
REMARK    6  A    between atoms: N_20  and  C_21
REMARK    7  A    between atoms: N_32  and  C_33
REMARK                            x       y       z     vdW  Elec       q    Type
REMARK                         _______ _______ _______ _____ _____    ______ ____
ROOT
ATOM      1  C   UNL     1      -1.897  13.397  20.933  0.00  0.00    +0.000 C 
ATOM      2  C   UNL     1      -1.062  13.911  19.754  0.00  0.00    +0.000 C 
ATOM      3  C   UNL     1      -0.797  12.814  18.732  0.00  0.00    +0.000 C 
ATOM      4  C   UNL     1      -0.173  11.602  19.432  0.00  0.00    +0.000 C 
ATOM      5  C   UNL     1      -1.007  11.163  20.666  0.00  0.00    +0.000 C 
ATOM      6  C   UNL     1      -0.435   9.985  21.479  0.00  0.00    +0.000 C 
ATOM      7  O   UNL     1       0.958   9.797  21.247  0.00  0.00    +0.000 OA
ATOM      8  C   UNL     1       1.232   8.688  20.489  0.00  0.00    +0.000 A 
ATOM      9  C   UNL     1       1.291   7.444  21.097  0.00  0.00    +0.000 A 
ATOM     10  C   UNL     1       1.876   6.379  20.413  0.00  0.00    +0.000 A 
ATOM     11  C   UNL     1       2.447   6.563  19.143  0.00  0.00    +0.000 A 
ATOM     12  C   UNL     1       2.330   7.798  18.509  0.00  0.00    +0.000 A 
ATOM     13  C   UNL     1       1.678   8.836  19.170  0.00  0.00    +0.000 A 
ATOM     14  C   UNL     1       1.414  10.081  18.441  0.00  0.00    +0.000 C 
ATOM     15  O   UNL     1       2.331  10.706  17.928  0.00  0.00    +0.000 OA
ATOM     16  N   UNL     1       0.099  10.530  18.474  0.00  0.00    +0.000 N 
ATOM     17  C   UNL     1      -0.993   9.724  17.937  0.00  0.00    +0.000 C 
ATOM     18  O   UNL     1      -1.205  12.289  21.551  0.00  0.00    +0.000 OA
ENDROOT
BRANCH  11  19
ATOM     19  N   UNL     1       3.207   5.566  18.510  0.00  0.00    +0.000 N 
ATOM     20  C   UNL     1       4.094   5.791  17.481  0.00  0.00    +0.000 C 
ATOM     21  O   UNL     1       4.552   6.888  17.182  0.00  0.00    +0.000 OA
ATOM     22  N   UNL     1       4.376   4.617  16.800  0.00  0.00    +0.000 N 
ATOM     23  H   UNL     1       3.264   4.659  18.952  0.00  0.00    +0.000 HD
ATOM     24  H   UNL     1       3.569   4.019  16.684  0.00  0.00    +0.000 HD
BRANCH  22  25
ATOM     25  C   UNL     1       5.329   4.611  15.764  0.00  0.00    +0.000 A 
ATOM     26  C   UNL     1       6.575   5.203  15.982  0.00  0.00    +0.000 A 
ATOM     27  C   UNL     1       7.547   5.157  14.981  0.00  0.00    +0.000 A 
ATOM     28  C   UNL     1       7.257   4.567  13.750  0.00  0.00    +0.000 A 
ATOM     29  C   UNL     1       5.999   4.006  13.527  0.00  0.00    +0.000 A 
ATOM     30 CL   UNL     1       5.633   3.302  12.002  0.00  0.00    +0.000 Cl
ATOM     31  C   UNL     1       5.039   4.015  14.532  0.00  0.00    +0.000 A 
ENDBRANCH  22  25
ENDBRANCH  11  19
BRANCH   1  32
ATOM     32  C   UNL     1      -3.322  12.962  20.593  0.00  0.00    +0.000 C 
BRANCH  32  33
ATOM     33  C   UNL     1      -4.340  13.198  21.667  0.00  0.00    +0.000 C 
ATOM     34  O   UNL     1      -5.021  12.344  22.215  0.00  0.00    +0.000 OA
BRANCH  33  36
ATOM     35  C   UNL     1      -5.082  15.371  21.083  0.00  0.00    +0.000 C 
ATOM     36  O   UNL     1      -4.333  14.526  21.955  0.00  0.00    +0.000 OA
ENDBRANCH  33  36
ENDBRANCH  32  33
ENDBRANCH   1  32
TORSDOF 5
ENDMDL
MODEL 2
REMARK VINA RESULT:      -8.0      2.672      3.929
REMARK  Name = 
REMARK  7 active torsions:
REMARK  status: ('A' for Active; 'I' for Inactive)
REMARK    1  A    between atoms: C_1  and  O_2
REMARK    2  A    between atoms: O_2  and  C_3
REMARK    3  A    between atoms: C_3  and  C_5
REMARK    4  A    between atoms: C_5  and  C_6
REMARK    5  A    between atoms: C_16  and  N_17
REMARK    6  A    between atoms: N_20  and  C_21
REMARK    7  A    between atoms: N_32  and  C_33
REMARK                            x       y       z     vdW  Elec       q    Type
REMARK                         _______ _______ _______ _____ _____    ______ ____
ROOT
ATOM      1  C   UNL     1      -3.642  16.089  21.868  0.00  0.00    +0.000 C 
ATOM      2  C   UNL     1      -2.367  16.603  21.189  0.00  0.00    +0.000 C 
ATOM      3  C   UNL     1      -1.712  15.528  20.334  0.00  0.00    +0.000 C 
ATOM      4  C   UNL     1      -1.481  14.271  21.180  0.00  0.00    +0.000 C 
ATOM      5  C   UNL     1      -2.777  13.830  21.912  0.00  0.00    +0.000 C 
ATOM      6  C   UNL     1      -2.641  12.605  22.839  0.00  0.00    +0.000 C 
ATOM      7  O   UNL     1      -1.290  12.368  23.222  0.00  0.00    +0.000 OA
ATOM      8  C   UNL     1      -0.741  11.272  22.608  0.00  0.00    +0.000 A 
ATOM      9  C   UNL     1      -0.980  10.009  23.126  0.00  0.00    +0.000 A 
ATOM     10  C   UNL     1      -0.182   8.943  22.715  0.00  0.00    +0.000 A 
ATOM     11  C   UNL     1       0.887   9.141  21.825  0.00  0.00    +0.000 A 
ATOM     12  C   UNL     1       1.085  10.399  21.258  0.00  0.00    +0.000 A 
ATOM     13  C   UNL     1       0.235  11.442  21.619  0.00  0.00    +0.000 A 
ATOM     14  C   UNL     1       0.343  12.717  20.904  0.00  0.00    +0.000 C 
ATOM     15  O   UNL     1       1.405  13.320  20.865  0.00  0.00    +0.000 OA
ATOM     16  N   UNL     1      -0.847  13.219  20.386  0.00  0.00    +0.000 N 
ATOM     17  C   UNL     1      -1.617  12.474  19.395  0.00  0.00    +0.000 C 
ATOM     18  O   UNL     1      -3.312  14.935  22.674  0.00  0.00    +0.000 OA
ENDROOT
BRANCH  11  19
ATOM     19  N   UNL     1       1.822   8.133  21.538  0.00  0.00    +0.000 N 
ATOM     20  C   UNL     1       2.008   7.568  20.296  0.00  0.00    +0.000 C 
ATOM     21  O   UNL     1       1.611   8.052  19.242  0.00  0.00    +0.000 OA
ATOM     22  N   UNL     1       2.675   6.358  20.394  0.00  0.00    +0.000 N 
ATOM     23  H   UNL     1       2.538   7.939  22.224  0.00  0.00    +0.000 HD
ATOM     24  H   UNL     1       2.385   5.805  21.190  0.00  0.00    +0.000 HD
BRANCH  22  25
ATOM     25  C   UNL     1       3.043   5.655  19.231  0.00  0.00    +0.000 A 
ATOM     26  C   UNL     1       3.804   6.305  18.256  0.00  0.00    +0.000 A 
ATOM     27  C   UNL     1       4.219   5.603  17.123  0.00  0.00    +0.000 A 
ATOM     28  C   UNL     1       3.834   4.274  16.941  0.00  0.00    +0.000 A 
ATOM     29  C   UNL     1       3.046   3.641  17.903  0.00  0.00    +0.000 A 
ATOM     30 CL   UNL     1       2.551   2.012  17.667  0.00  0.00    +0.000 Cl
ATOM     31  C   UNL     1       2.660   4.321  19.052  0.00  0.00    +0.000 A 
ENDBRANCH  22  25
ENDBRANCH  11  19
BRANCH   1  32
ATOM     32  C   UNL     1      -4.789  15.722  20.927  0.00  0.00    +0.000 C 
BRANCH  32  33
ATOM     33  C   UNL     1      -6.064  15.308  21.598  0.00  0.00    +0.000 C 
ATOM     34  O   UNL     1      -6.566  15.836  22.579  0.00  0.00    +0.000 OA
BRANCH  33  36
ATOM     35  C   UNL     1      -6.442  12.974  21.462  0.00  0.00    +0.000 C 
ATOM     36  O   UNL     1      -6.585  14.273  20.889  0.00  0.00    +0.000 OA
ENDBRANCH  33  36
ENDBRANCH  32  33
ENDBRANCH   1  32
TORSDOF 5
ENDMDL
MODEL 3
REMARK VINA RESULT:      -7.9      3.143      3.850
REMARK  Name = 
REMARK  7 active torsions:
REMARK  status: ('A' for Active; 'I' for Inactive)
REMARK    1  A    between atoms: C_1  and  O_2
REMARK    2  A    between atoms: O_2  and  C_3
REMARK    3  A    between atoms: C_3  and  C_5
REMARK    4  A    between atoms: C_5  and  C_6
REMARK    5  A    between atoms: C_16  and  N_17
REMARK    6  A    between atoms: N_20  and  C_21
REMARK    7  A    between atoms: N_32  and  C_33
REMARK                            x       y       z     vdW  Elec       q    Type
REMARK                         _______ _______ _______ _____ _____    ______ ____
ROOT
ATOM      1  C   UNL     1      -3.578  14.829  22.865  0.00  0.00    +0.000 C 
ATOM      2  C   UNL     1      -2.768  15.551  21.782  0.00  0.00    +0.000 C 
ATOM      3  C   UNL     1      -2.389  14.612  20.644  0.00  0.00    +0.000 C 
ATOM      4  C   UNL     1      -1.676  13.381  21.211  0.00  0.00    +0.000 C 
ATOM      5  C   UNL     1      -2.492  12.727  22.359  0.00  0.00    +0.000 C 
ATOM      6  C   UNL     1      -1.835  11.510  23.041  0.00  0.00    +0.000 C 
ATOM      7  O   UNL     1      -0.428  11.469  22.829  0.00  0.00    +0.000 OA
ATOM      8  C   UNL     1      -0.044  10.488  21.952  0.00  0.00    +0.000 A 
ATOM      9  C   UNL     1       0.111   9.189  22.408  0.00  0.00    +0.000 A 
ATOM     10  C   UNL     1       0.800   8.268  21.619  0.00  0.00    +0.000 A 
ATOM     11  C   UNL     1       1.377   8.653  20.398  0.00  0.00    +0.000 A 
ATOM     12  C   UNL     1       1.165   9.942  19.912  0.00  0.00    +0.000 A 
ATOM     13  C   UNL     1       0.412  10.832  20.674  0.00  0.00    +0.000 A 
ATOM     14  C   UNL     1       0.056  12.131  20.093  0.00  0.00    +0.000 C 
ATOM     15  O   UNL     1       0.924  12.888  19.685  0.00  0.00    +0.000 OA
ATOM     16  N   UNL     1      -1.294  12.461  20.140  0.00  0.00    +0.000 N 
ATOM     17  C   UNL     1      -2.301  11.638  19.478  0.00  0.00    +0.000 C 
ATOM     18  O   UNL     1      -2.804  13.715  23.366  0.00  0.00    +0.000 OA
ENDROOT
BRANCH  11  19
ATOM     19  N   UNL     1       2.232   7.807  19.672  0.00  0.00    +0.000 N 
ATOM     20  C   UNL     1       2.122   6.435  19.625  0.00  0.00    +0.000 C 
ATOM     21  O   UNL     1       1.124   5.803  19.954  0.00  0.00    +0.000 OA
ATOM     22  N   UNL     1       3.303   5.854  19.191  0.00  0.00    +0.000 N 
ATOM     23  H   UNL     1       2.845   8.224  18.986  0.00  0.00    +0.000 HD
ATOM     24  H   UNL     1       4.129   6.308  19.557  0.00  0.00    +0.000 HD
BRANCH  22  25
ATOM     25  C   UNL     1       3.376   4.463  18.990  0.00  0.00    +0.000 A 
ATOM     26  C   UNL     1       2.701   3.896  17.906  0.00  0.00    +0.000 A 
ATOM     27  C   UNL     1       2.809   2.526  17.665  0.00  0.00    +0.000 A 
ATOM     28  C   UNL     1       3.547   1.718  18.532  0.00  0.00    +0.000 A 
ATOM     29  C   UNL     1       4.193   2.285  19.631  0.00  0.00    +0.000 A 
ATOM     30 CL   UNL     1       5.081   1.287  20.712  0.00  0.00    +0.000 Cl
ATOM     31  C   UNL     1       4.121   3.655  19.856  0.00  0.00    +0.000 A 
ENDBRANCH  22  25
ENDBRANCH  11  19
BRANCH   1  32
ATOM     32  C   UNL     1      -4.953  14.320  22.433  0.00  0.00    +0.000 C 
BRANCH  32  33
ATOM     33  C   UNL     1      -5.715  13.563  23.478  0.00  0.00    +0.000 C 
ATOM     34  O   UNL     1      -5.517  12.406  23.818  0.00  0.00    +0.000 OA
BRANCH  33  36
ATOM     35  C   UNL     1      -7.856  13.825  24.458  0.00  0.00    +0.000 C 
ATOM     36  O   UNL     1      -6.633  14.411  24.012  0.00  0.00    +0.000 OA
ENDBRANCH  33  36
ENDBRANCH  32  33
ENDBRANCH   1  32
TORSDOF 5
ENDMDL
MODEL 4
REMARK VINA RESULT:      -7.9      2.654      3.945
REMARK  Name = 
REMARK  7 active torsions:
REMARK  status: ('A' for Active; 'I' for Inactive)
REMARK    1  A    between atoms: C_1  and  O_2
REMARK    2  A    between atoms: O_2  and  C_3
REMARK    3  A    between atoms: C_3  and  C_5
REMARK    4  A    between atoms: C_5  and  C_6
REMARK    5  A    between atoms: C_16  and  N_17
REMARK    6  A    between atoms: N_20  and  C_21
REMARK    7  A    between atoms: N_32  and  C_33
REMARK                            x       y       z     vdW  Elec       q    Type
REMARK                         _______ _______ _______ _____ _____    ______ ____
ROOT
ATOM      1  C   UNL     1      -3.165  16.302  21.602  0.00  0.00    +0.000 C 
ATOM      2  C   UNL     1      -1.857  16.717  20.917  0.00  0.00    +0.000 C 
ATOM      3  C   UNL     1      -1.265  15.577  20.100  0.00  0.00    +0.000 C 
ATOM      4  C   UNL     1      -1.116  14.335  20.986  0.00  0.00    +0.000 C 
ATOM      5  C   UNL     1      -2.441  13.997  21.722  0.00  0.00    +0.000 C 
ATOM      6  C   UNL     1      -2.386  12.796  22.687  0.00  0.00    +0.000 C 
ATOM      7  O   UNL     1      -1.054  12.488  23.087  0.00  0.00    +0.000 OA
ATOM      8  C   UNL     1      -0.570  11.343  22.511  0.00  0.00    +0.000 A 
ATOM      9  C   UNL     1      -0.889  10.113  23.066  0.00  0.00    +0.000 A 
ATOM     10  C   UNL     1      -0.156   8.987  22.694  0.00  0.00    +0.000 A 
ATOM     11  C   UNL     1       0.928   9.093  21.807  0.00  0.00    +0.000 A 
ATOM     12  C   UNL     1       1.206  10.317  21.203  0.00  0.00    +0.000 A 
ATOM     13  C   UNL     1       0.420  11.421  21.525  0.00  0.00    +0.000 A 
ATOM     14  C   UNL     1       0.610  12.665  20.772  0.00  0.00    +0.000 C 
ATOM     15  O   UNL     1       1.708  13.200  20.722  0.00  0.00    +0.000 OA
ATOM     16  N   UNL     1      -0.543  13.222  20.230  0.00  0.00    +0.000 N 
ATOM     17  C   UNL     1      -1.352  12.495  19.256  0.00  0.00    +0.000 C 
ATOM     18  O   UNL     1      -2.911  15.156  22.445  0.00  0.00    +0.000 OA
ENDROOT
BRANCH  11  19
ATOM     19  N   UNL     1       1.800   8.021  21.558  0.00  0.00    +0.000 N 
ATOM     20  C   UNL     1       1.947   7.396  20.339  0.00  0.00    +0.000 C 
ATOM     21  O   UNL     1       1.573   7.859  19.268  0.00  0.00    +0.000 OA
ATOM     22  N   UNL     1       2.542   6.153  20.484  0.00  0.00    +0.000 N 
ATOM     23  H   UNL     1       2.509   7.813  22.248  0.00  0.00    +0.000 HD
ATOM     24  H   UNL     1       2.225   5.651  21.303  0.00  0.00    +0.000 HD
BRANCH  22  25
ATOM     25  C   UNL     1       2.861   5.383  19.349  0.00  0.00    +0.000 A 
ATOM     26  C   UNL     1       1.955   4.417  18.907  0.00  0.00    +0.000 A 
ATOM     27  C   UNL     1       2.236   3.684  17.752  0.00  0.00    +0.000 A 
ATOM     28  C   UNL     1       3.440   3.880  17.073  0.00  0.00    +0.000 A 
ATOM     29  C   UNL     1       4.355   4.825  17.539  0.00  0.00    +0.000 A 
ATOM     30 CL   UNL     1       5.848   5.049  16.717  0.00  0.00    +0.000 Cl
ATOM     31  C   UNL     1       4.065   5.585  18.666  0.00  0.00    +0.000 A 
ENDBRANCH  22  25
ENDBRANCH  11  19
BRANCH   1  32
ATOM     32  C   UNL     1      -4.328  15.977  20.664  0.00  0.00    +0.000 C 
BRANCH  32  33
ATOM     33  C   UNL     1      -5.695  16.170  21.245  0.00  0.00    +0.000 C 
ATOM     34  O   UNL     1      -6.189  15.522  22.156  0.00  0.00    +0.000 OA
BRANCH  33  36
ATOM     35  C   UNL     1      -6.363  17.139  19.189  0.00  0.00    +0.000 C 
ATOM     36  O   UNL     1      -6.267  17.227  20.610  0.00  0.00    +0.000 OA
ENDBRANCH  33  36
ENDBRANCH  32  33
ENDBRANCH   1  32
TORSDOF 5
ENDMDL
MODEL 5
REMARK VINA RESULT:      -7.8      1.821      2.324
REMARK  Name = 
REMARK  7 active torsions:
REMARK  status: ('A' for Active; 'I' for Inactive)
REMARK    1  A    between atoms: C_1  and  O_2
REMARK    2  A    between atoms: O_2  and  C_3
REMARK    3  A    between atoms: C_3  and  C_5
REMARK    4  A    between atoms: C_5  and  C_6
REMARK    5  A    between atoms: C_16  and  N_17
REMARK    6  A    between atoms: N_20  and  C_21
REMARK    7  A    between atoms: N_32  and  C_33
REMARK                            x       y       z     vdW  Elec       q    Type
REMARK                         _______ _______ _______ _____ _____    ______ ____
ROOT
ATOM      1  C   UNL     1      -3.056  13.481  23.426  0.00  0.00    +0.000 C 
ATOM      2  C   UNL     1      -2.614  14.557  22.427  0.00  0.00    +0.000 C 
ATOM      3  C   UNL     1      -2.391  13.977  21.037  0.00  0.00    +0.000 C 
ATOM      4  C   UNL     1      -1.416  12.798  21.125  0.00  0.00    +0.000 C 
ATOM      5  C   UNL     1      -1.857  11.772  22.203  0.00  0.00    +0.000 C 
ATOM      6  C   UNL     1      -0.912  10.572  22.415  0.00  0.00    +0.000 C 
ATOM      7  O   UNL     1       0.403  10.831  21.933  0.00  0.00    +0.000 OA
ATOM      8  C   UNL     1       0.697  10.153  20.779  0.00  0.00    +0.000 A 
ATOM      9  C   UNL     1       1.117   8.834  20.852  0.00  0.00    +0.000 A 
ATOM     10  C   UNL     1       1.717   8.249  19.738  0.00  0.00    +0.000 A 
ATOM     11  C   UNL     1       1.945   8.991  18.567  0.00  0.00    +0.000 A 
ATOM     12  C   UNL     1       1.466  10.296  18.475  0.00  0.00    +0.000 A 
ATOM     13  C   UNL     1       0.801  10.847  19.568  0.00  0.00    +0.000 A 
ATOM     14  C   UNL     1       0.159  12.157  19.415  0.00  0.00    +0.000 C 
ATOM     15  O   UNL     1       0.807  13.128  19.055  0.00  0.00    +0.000 OA
ATOM     16  N   UNL     1      -1.175  12.221  19.803  0.00  0.00    +0.000 N 
ATOM     17  C   UNL     1      -2.194  11.398  19.159  0.00  0.00    +0.000 C 
ATOM     18  O   UNL     1      -2.053  12.441  23.469  0.00  0.00    +0.000 OA
ENDROOT
BRANCH  11  19
ATOM     19  N   UNL     1       2.712   8.493  17.501  0.00  0.00    +0.000 N 
ATOM     20  C   UNL     1       3.576   7.424  17.589  0.00  0.00    +0.000 C 
ATOM     21  O   UNL     1       3.576   6.600  18.496  0.00  0.00    +0.000 OA
ATOM     22  N   UNL     1       4.474   7.420  16.534  0.00  0.00    +0.000 N 
ATOM     23  H   UNL     1       2.483   8.799  16.565  0.00  0.00    +0.000 HD
ATOM     24  H   UNL     1       4.798   8.344  16.281  0.00  0.00    +0.000 HD
BRANCH  22  25
ATOM     25  C   UNL     1       5.391   6.362  16.387  0.00  0.00    +0.000 A 
ATOM     26  C   UNL     1       6.309   6.112  17.410  0.00  0.00    +0.000 A 
ATOM     27  C   UNL     1       7.188   5.033  17.300  0.00  0.00    +0.000 A 
ATOM     28  C   UNL     1       7.184   4.239  16.152  0.00  0.00    +0.000 A 
ATOM     29  C   UNL     1       6.286   4.514  15.120  0.00  0.00    +0.000 A 
ATOM     30 CL   UNL     1       6.297   3.553  13.695  0.00  0.00    +0.000 Cl
ATOM     31  C   UNL     1       5.382   5.564  15.238  0.00  0.00    +0.000 A 
ENDBRANCH  22  25
ENDBRANCH  11  19
BRANCH   1  32
ATOM     32  C   UNL     1      -4.417  12.843  23.150  0.00  0.00    +0.000 C 
BRANCH  32  33
ATOM     33  C   UNL     1      -5.568  13.433  23.907  0.00  0.00    +0.000 C 
ATOM     34  O   UNL     1      -6.562  12.834  24.290  0.00  0.00    +0.000 OA
BRANCH  33  36
ATOM     35  C   UNL     1      -6.140  15.696  23.504  0.00  0.00    +0.000 C 
ATOM     36  O   UNL     1      -5.284  14.743  24.132  0.00  0.00    +0.000 OA
ENDBRANCH  33  36
ENDBRANCH  32  33
ENDBRANCH   1  32
TORSDOF 5
ENDMDL
MODEL 6
REMARK VINA RESULT:      -7.8      2.801      3.997
REMARK  Name = 
REMARK  7 active torsions:
REMARK  status: ('A' for Active; 'I' for Inactive)
REMARK    1  A    between atoms: C_1  and  O_2
REMARK    2  A    between atoms: O_2  and  C_3
REMARK    3  A    between atoms: C_3  and  C_5
REMARK    4  A    between atoms: C_5  and  C_6
REMARK    5  A    between atoms: C_16  and  N_17
REMARK    6  A    between atoms: N_20  and  C_21
REMARK    7  A    between atoms: N_32  and  C_33
REMARK                            x       y       z     vdW  Elec       q    Type
REMARK                         _______ _______ _______ _____ _____    ______ ____
ROOT
ATOM      1  C   UNL     1      -1.447  16.158  24.359  0.00  0.00    +0.000 C 
ATOM      2  C   UNL     1      -0.064  16.663  23.929  0.00  0.00    +0.000 C 
ATOM      3  C   UNL     1       0.270  16.241  22.505  0.00  0.00    +0.000 C 
ATOM      4  C   UNL     1       0.111  14.723  22.370  0.00  0.00    +0.000 C 
ATOM      5  C   UNL     1      -1.271  14.244  22.890  0.00  0.00    +0.000 C 
ATOM      6  C   UNL     1      -1.512  12.722  22.853  0.00  0.00    +0.000 C 
ATOM      7  O   UNL     1      -0.295  11.985  22.787  0.00  0.00    +0.000 OA
ATOM      8  C   UNL     1      -0.073  11.423  21.557  0.00  0.00    +0.000 A 
ATOM      9  C   UNL     1      -0.677  10.216  21.240  0.00  0.00    +0.000 A 
ATOM     10  C   UNL     1      -0.212   9.490  20.144  0.00  0.00    +0.000 A 
ATOM     11  C   UNL     1       0.887   9.940  19.393  0.00  0.00    +0.000 A 
ATOM     12  C   UNL     1       1.450  11.182  19.675  0.00  0.00    +0.000 A 
ATOM     13  C   UNL     1       0.930  11.935  20.725  0.00  0.00    +0.000 A 
ATOM     14  C   UNL     1       1.415  13.305  20.918  0.00  0.00    +0.000 C 
ATOM     15  O   UNL     1       2.607  13.526  21.075  0.00  0.00    +0.000 OA
ATOM     16  N   UNL     1       0.432  14.284  21.012  0.00  0.00    +0.000 N 
ATOM     17  C   UNL     1      -0.500  14.532  19.916  0.00  0.00    +0.000 C 
ATOM     18  O   UNL     1      -1.480  14.719  24.239  0.00  0.00    +0.000 OA
ENDROOT
BRANCH  11  19
ATOM     19  N   UNL     1       1.497   9.147  18.408  0.00  0.00    +0.000 N 
ATOM     20  C   UNL     1       2.265   8.032  18.663  0.00  0.00    +0.000 C 
ATOM     21  O   UNL     1       2.280   7.424  19.727  0.00  0.00    +0.000 OA
ATOM     22  N   UNL     1       3.051   7.707  17.570  0.00  0.00    +0.000 N 
ATOM     23  H   UNL     1       1.205   9.271  17.448  0.00  0.00    +0.000 HD
ATOM     24  H   UNL     1       3.430   8.515  17.095  0.00  0.00    +0.000 HD
BRANCH  22  25
ATOM     25  C   UNL     1       3.850   6.548  17.591  0.00  0.00    +0.000 A 
ATOM     26  C   UNL     1       5.240   6.679  17.559  0.00  0.00    +0.000 A 
ATOM     27  C   UNL     1       6.044   5.541  17.633  0.00  0.00    +0.000 A 
ATOM     28  C   UNL     1       5.461   4.274  17.687  0.00  0.00    +0.000 A 
ATOM     29  C   UNL     1       4.071   4.147  17.685  0.00  0.00    +0.000 A 
ATOM     30 CL   UNL     1       3.353   2.586  17.726  0.00  0.00    +0.000 Cl
ATOM     31  C   UNL     1       3.264   5.279  17.650  0.00  0.00    +0.000 A 
ENDBRANCH  22  25
ENDBRANCH  11  19
BRANCH   1  32
ATOM     32  C   UNL     1      -2.632  16.745  23.592  0.00  0.00    +0.000 C 
BRANCH  32  33
ATOM     33  C   UNL     1      -3.985  16.385  24.127  0.00  0.00    +0.000 C 
ATOM     34  O   UNL     1      -4.471  16.774  25.178  0.00  0.00    +0.000 OA
BRANCH  33  36
ATOM     35  C   UNL     1      -4.958  14.280  23.643  0.00  0.00    +0.000 C 
ATOM     36  O   UNL     1      -4.592  15.589  23.208  0.00  0.00    +0.000 OA
ENDBRANCH  33  36
ENDBRANCH  32  33
ENDBRANCH   1  32
TORSDOF 5
ENDMDL
MODEL 7
REMARK VINA RESULT:      -7.7      2.344      3.605
REMARK  Name = 
REMARK  7 active torsions:
REMARK  status: ('A' for Active; 'I' for Inactive)
REMARK    1  A    between atoms: C_1  and  O_2
REMARK    2  A    between atoms: O_2  and  C_3
REMARK    3  A    between atoms: C_3  and  C_5
REMARK    4  A    between atoms: C_5  and  C_6
REMARK    5  A    between atoms: C_16  and  N_17
REMARK    6  A    between atoms: N_20  and  C_21
REMARK    7  A    between atoms: N_32  and  C_33
REMARK                            x       y       z     vdW  Elec       q    Type
REMARK                         _______ _______ _______ _____ _____    ______ ____
ROOT
ATOM      1  C   UNL     1      -2.019  15.757  20.967  0.00  0.00    +0.000 C 
ATOM      2  C   UNL     1      -1.716  15.236  22.377  0.00  0.00    +0.000 C 
ATOM      3  C   UNL     1      -0.433  14.416  22.410  0.00  0.00    +0.000 C 
ATOM      4  C   UNL     1      -0.509  13.305  21.358  0.00  0.00    +0.000 C 
ATOM      5  C   UNL     1      -0.896  13.864  19.963  0.00  0.00    +0.000 C 
ATOM      6  C   UNL     1      -1.057  12.819  18.841  0.00  0.00    +0.000 C 
ATOM      7  O   UNL     1      -1.274  11.508  19.353  0.00  0.00    +0.000 OA
ATOM      8  C   UNL     1      -0.188  10.686  19.209  0.00  0.00    +0.000 A 
ATOM      9  C   UNL     1       0.024  10.044  17.999  0.00  0.00    +0.000 A 
ATOM     10  C   UNL     1       0.921   8.977  17.943  0.00  0.00    +0.000 A 
ATOM     11  C   UNL     1       1.569   8.517  19.101  0.00  0.00    +0.000 A 
ATOM     12  C   UNL     1       1.402   9.204  20.301  0.00  0.00    +0.000 A 
ATOM     13  C   UNL     1       0.562  10.315  20.331  0.00  0.00    +0.000 A 
ATOM     14  C   UNL     1       0.513  11.129  21.549  0.00  0.00    +0.000 C 
ATOM     15  O   UNL     1       0.225  10.622  22.624  0.00  0.00    +0.000 OA
ATOM     16  N   UNL     1       0.708  12.494  21.369  0.00  0.00    +0.000 N 
ATOM     17  C   UNL     1       1.949  13.015  20.804  0.00  0.00    +0.000 C 
ATOM     18  O   UNL     1      -2.114  14.635  20.062  0.00  0.00    +0.000 OA
ENDROOT
BRANCH  11  19
ATOM     19  N   UNL     1       2.327   7.335  19.116  0.00  0.00    +0.000 N 
ATOM     20  C   UNL     1       3.421   7.095  18.315  0.00  0.00    +0.000 C 
ATOM     21  O   UNL     1       4.046   7.958  17.710  0.00  0.00    +0.000 OA
ATOM     22  N   UNL     1       3.705   5.740  18.251  0.00  0.00    +0.000 N 
ATOM     23  H   UNL     1       2.197   6.696  19.888  0.00  0.00    +0.000 HD
ATOM     24  H   UNL     1       2.878   5.160  18.207  0.00  0.00    +0.000 HD
BRANCH  22  25
ATOM     25  C   UNL     1       4.839   5.286  17.551  0.00  0.00    +0.000 A 
ATOM     26  C   UNL     1       6.068   5.229  18.213  0.00  0.00    +0.000 A 
ATOM     27  C   UNL     1       7.189   4.731  17.547  0.00  0.00    +0.000 A 
ATOM     28  C   UNL     1       7.093   4.339  16.210  0.00  0.00    +0.000 A 
ATOM     29  C   UNL     1       5.870   4.428  15.546  0.00  0.00    +0.000 A 
ATOM     30 CL   UNL     1       5.757   3.969  13.894  0.00  0.00    +0.000 Cl
ATOM     31  C   UNL     1       4.741   4.888  16.214  0.00  0.00    +0.000 A 
ENDBRANCH  22  25
ENDBRANCH  11  19
BRANCH   1  32
ATOM     32  C   UNL     1      -1.012  16.761  20.403  0.00  0.00    +0.000 C 
BRANCH  32  33
ATOM     33  C   UNL     1      -1.485  17.550  19.220  0.00  0.00    +0.000 C 
ATOM     34  O   UNL     1      -2.646  17.819  18.950  0.00  0.00    +0.000 OA
BRANCH  33  36
ATOM     35  C   UNL     1       0.672  17.003  18.407  0.00  0.00    +0.000 C 
ATOM     36  O   UNL     1      -0.386  17.953  18.529  0.00  0.00    +0.000 OA
ENDBRANCH  33  36
ENDBRANCH  32  33
ENDBRANCH   1  32
TORSDOF 5
ENDMDL
MODEL 8
REMARK VINA RESULT:      -7.7      3.166      4.707
REMARK  Name = 
REMARK  7 active torsions:
REMARK  status: ('A' for Active; 'I' for Inactive)
REMARK    1  A    between atoms: C_1  and  O_2
REMARK    2  A    between atoms: O_2  and  C_3
REMARK    3  A    between atoms: C_3  and  C_5
REMARK    4  A    between atoms: C_5  and  C_6
REMARK    5  A    between atoms: C_16  and  N_17
REMARK    6  A    between atoms: N_20  and  C_21
REMARK    7  A    between atoms: N_32  and  C_33
REMARK                            x       y       z     vdW  Elec       q    Type
REMARK                         _______ _______ _______ _____ _____    ______ ____
ROOT
ATOM      1  C   UNL     1      -3.282  16.844  21.668  0.00  0.00    +0.000 C 
ATOM      2  C   UNL     1      -1.967  17.236  20.983  0.00  0.00    +0.000 C 
ATOM      3  C   UNL     1      -1.388  16.081  20.177  0.00  0.00    +0.000 C 
ATOM      4  C   UNL     1      -1.258  14.845  21.074  0.00  0.00    +0.000 C 
ATOM      5  C   UNL     1      -2.588  14.531  21.809  0.00  0.00    +0.000 C 
ATOM      6  C   UNL     1      -2.551  13.337  22.785  0.00  0.00    +0.000 C 
ATOM      7  O   UNL     1      -1.225  13.015  23.191  0.00  0.00    +0.000 OA
ATOM      8  C   UNL     1      -0.754  11.859  22.626  0.00  0.00    +0.000 A 
ATOM      9  C   UNL     1      -1.091  10.639  23.190  0.00  0.00    +0.000 A 
ATOM     10  C   UNL     1      -0.372   9.500  22.829  0.00  0.00    +0.000 A 
ATOM     11  C   UNL     1       0.716   9.584  21.944  0.00  0.00    +0.000 A 
ATOM     12  C   UNL     1       1.012  10.799  21.330  0.00  0.00    +0.000 A 
ATOM     13  C   UNL     1       0.239  11.916  21.641  0.00  0.00    +0.000 A 
ATOM     14  C   UNL     1       0.447  13.151  20.879  0.00  0.00    +0.000 C 
ATOM     15  O   UNL     1       1.552  13.671  20.827  0.00  0.00    +0.000 OA
ATOM     16  N   UNL     1      -0.697  13.718  20.329  0.00  0.00    +0.000 N 
ATOM     17  C   UNL     1      -1.513  12.994  19.359  0.00  0.00    +0.000 C 
ATOM     18  O   UNL     1      -3.045  15.702  22.522  0.00  0.00    +0.000 OA
ENDROOT
BRANCH  11  19
ATOM     19  N   UNL     1       1.575   8.498  21.707  0.00  0.00    +0.000 N 
ATOM     20  C   UNL     1       1.554   7.716  20.573  0.00  0.00    +0.000 C 
ATOM     21  O   UNL     1       1.006   8.025  19.521  0.00  0.00    +0.000 OA
ATOM     22  N   UNL     1       2.205   6.511  20.787  0.00  0.00    +0.000 N 
ATOM     23  H   UNL     1       2.386   8.395  22.300  0.00  0.00    +0.000 HD
ATOM     24  H   UNL     1       2.033   6.121  21.705  0.00  0.00    +0.000 HD
BRANCH  22  25
ATOM     25  C   UNL     1       2.372   5.598  19.728  0.00  0.00    +0.000 A 
ATOM     26  C   UNL     1       3.336   5.860  18.752  0.00  0.00    +0.000 A 
ATOM     27  C   UNL     1       3.549   4.937  17.726  0.00  0.00    +0.000 A 
ATOM     28  C   UNL     1       2.766   3.783  17.648  0.00  0.00    +0.000 A 
ATOM     29  C   UNL     1       1.783   3.544  18.609  0.00  0.00    +0.000 A 
ATOM     30 CL   UNL     1       0.803   2.137  18.499  0.00  0.00    +0.000 Cl
ATOM     31  C   UNL     1       1.592   4.440  19.654  0.00  0.00    +0.000 A 
ENDBRANCH  22  25
ENDBRANCH  11  19
BRANCH   1  32
ATOM     32  C   UNL     1      -4.446  16.527  20.730  0.00  0.00    +0.000 C 
BRANCH  32  33
ATOM     33  C   UNL     1      -5.238  17.711  20.264  0.00  0.00    +0.000 C 
ATOM     34  O   UNL     1      -6.065  18.327  20.918  0.00  0.00    +0.000 OA
BRANCH  33  36
ATOM     35  C   UNL     1      -5.829  18.512  18.115  0.00  0.00    +0.000 C 
ATOM     36  O   UNL     1      -4.832  18.005  19.001  0.00  0.00    +0.000 OA
ENDBRANCH  33  36
ENDBRANCH  32  33
ENDBRANCH   1  32
TORSDOF 5
ENDMDL
MODEL 9
REMARK VINA RESULT:      -7.7      2.811      4.025
REMARK  Name = 
REMARK  7 active torsions:
REMARK  status: ('A' for Active; 'I' for Inactive)
REMARK    1  A    between atoms: C_1  and  O_2
REMARK    2  A    between atoms: O_2  and  C_3
REMARK    3  A    between atoms: C_3  and  C_5
REMARK    4  A    between atoms: C_5  and  C_6
REMARK    5  A    between atoms: C_16  and  N_17
REMARK    6  A    between atoms: N_20  and  C_21
REMARK    7  A    between atoms: N_32  and  C_33
REMARK                            x       y       z     vdW  Elec       q    Type
REMARK                         _______ _______ _______ _____ _____    ______ ____
ROOT
ATOM      1  C   UNL     1      -1.526  16.160  24.240  0.00  0.00    +0.000 C 
ATOM      2  C   UNL     1      -0.247  16.743  23.627  0.00  0.00    +0.000 C 
ATOM      3  C   UNL     1      -0.016  16.228  22.212  0.00  0.00    +0.000 C 
ATOM      4  C   UNL     1      -0.042  14.696  22.215  0.00  0.00    +0.000 C 
ATOM      5  C   UNL     1      -1.315  14.147  22.915  0.00  0.00    +0.000 C 
ATOM      6  C   UNL     1      -1.413  12.612  23.023  0.00  0.00    +0.000 C 
ATOM      7  O   UNL     1      -0.144  11.981  22.885  0.00  0.00    +0.000 OA
ATOM      8  C   UNL     1       0.008  11.334  21.687  0.00  0.00    +0.000 A 
ATOM      9  C   UNL     1      -0.507  10.057  21.531  0.00  0.00    +0.000 A 
ATOM     10  C   UNL     1      -0.085   9.280  20.453  0.00  0.00    +0.000 A 
ATOM     11  C   UNL     1       0.886   9.755  19.556  0.00  0.00    +0.000 A 
ATOM     12  C   UNL     1       1.354  11.062  19.678  0.00  0.00    +0.000 A 
ATOM     13  C   UNL     1       0.871  11.856  20.716  0.00  0.00    +0.000 A 
ATOM     14  C   UNL     1       1.240  13.275  20.748  0.00  0.00    +0.000 C 
ATOM     15  O   UNL     1       2.416  13.611  20.760  0.00  0.00    +0.000 OA
ATOM     16  N   UNL     1       0.183  14.169  20.869  0.00  0.00    +0.000 N 
ATOM     17  C   UNL     1      -0.872  14.238  19.862  0.00  0.00    +0.000 C 
ATOM     18  O   UNL     1      -1.433  14.718  24.237  0.00  0.00    +0.000 OA
ENDROOT
BRANCH  11  19
ATOM     19  N   UNL     1       1.468   8.935  18.576  0.00  0.00    +0.000 N 
ATOM     20  C   UNL     1       2.244   7.828  18.842  0.00  0.00    +0.000 C 
ATOM     21  O   UNL     1       2.290   7.250  19.921  0.00  0.00    +0.000 OA
ATOM     22  N   UNL     1       2.999   7.472  17.736  0.00  0.00    +0.000 N 
ATOM     23  H   UNL     1       1.149   9.032  17.622  0.00  0.00    +0.000 HD
ATOM     24  H   UNL     1       3.364   8.266  17.228  0.00  0.00    +0.000 HD
BRANCH  22  25
ATOM     25  C   UNL     1       3.799   6.313  17.767  0.00  0.00    +0.000 A 
ATOM     26  C   UNL     1       3.200   5.068  17.563  0.00  0.00    +0.000 A 
ATOM     27  C   UNL     1       3.989   3.917  17.539  0.00  0.00    +0.000 A 
ATOM     28  C   UNL     1       5.364   4.005  17.768  0.00  0.00    +0.000 A 
ATOM     29  C   UNL     1       5.951   5.249  18.003  0.00  0.00    +0.000 A 
ATOM     30 CL   UNL     1       7.639   5.355  18.310  0.00  0.00    +0.000 Cl
ATOM     31  C   UNL     1       5.177   6.403  17.991  0.00  0.00    +0.000 A 
ENDBRANCH  22  25
ENDBRANCH  11  19
BRANCH   1  32
ATOM     32  C   UNL     1      -2.831  16.573  23.560  0.00  0.00    +0.000 C 
BRANCH  32  33
ATOM     33  C   UNL     1      -4.080  16.281  24.335  0.00  0.00    +0.000 C 
ATOM     34  O   UNL     1      -4.464  16.872  25.333  0.00  0.00    +0.000 OA
BRANCH  33  36
ATOM     35  C   UNL     1      -5.738  15.658  22.762  0.00  0.00    +0.000 C 
ATOM     36  O   UNL     1      -4.733  15.273  23.698  0.00  0.00    +0.000 OA
ENDBRANCH  33  36
ENDBRANCH  32  33
ENDBRANCH   1  32
TORSDOF 5
ENDMDL
