MODEL 1
REMARK VINA RESULT:      -7.6      0.000      0.000
REMARK  Name = 
REMARK  4 active torsions:
REMARK  status: ('A' for Active; 'I' for Inactive)
REMARK    1  A    between atoms: C_1  and  C_2
REMARK    2  A    between atoms: C_5  and  N_6
REMARK    3  A    between atoms: N_6  and  C_7
REMARK    4  A    between atoms: C_18  and  C_19
REMARK                            x       y       z     vdW  Elec       q    Type
REMARK                         _______ _______ _______ _____ _____    ______ ____
ROOT
ATOM      1  C   UNL     1      -3.599   9.731  15.704  0.00  0.00    +0.000 C 
ATOM      2  C   UNL     1      -2.968  10.414  16.867  0.00  0.00    +0.000 A 
ATOM      3  N   UNL     1      -1.650  10.277  17.091  0.00  0.00    +0.000 NA
ATOM      4  N   UNL     1      -1.392  11.078  18.166  0.00  0.00    +0.000 N 
ATOM      5  C   UNL     1      -0.124  11.353  18.772  0.00  0.00    +0.000 A 
ATOM      6  C   UNL     1      -0.118  12.197  19.819  0.00  0.00    +0.000 A 
ATOM      7  C   UNL     1      -1.419  12.748  20.254  0.00  0.00    +0.000 A 
ATOM      8  N   UNL     1      -2.571  12.516  19.726  0.00  0.00    +0.000 NA
ATOM      9  C   UNL     1      -2.570  11.682  18.641  0.00  0.00    +0.000 A 
ATOM     10  C   UNL     1      -3.600  11.270  17.813  0.00  0.00    +0.000 A 
ATOM     11  C   UNL     1      -1.264  13.643  21.439  0.00  0.00    +0.000 C 
ATOM     12  C   UNL     1       0.229  13.582  21.756  0.00  0.00    +0.000 C 
ATOM     13  C   UNL     1       0.945  12.695  20.731  0.00  0.00    +0.000 C 
ENDROOT
BRANCH  10  14
ATOM     14  C   UNL     1      -4.991  11.708  17.965  0.00  0.00    +0.000 A 
ATOM     15  C   UNL     1      -5.585  12.564  17.021  0.00  0.00    +0.000 A 
ATOM     16  C   UNL     1      -6.898  13.016  17.169  0.00  0.00    +0.000 A 
ATOM     17  C   UNL     1      -7.659  12.593  18.250  0.00  0.00    +0.000 A 
ATOM     18  C   UNL     1      -7.096  11.733  19.193  0.00  0.00    +0.000 A 
ATOM     19  C   UNL     1      -5.769  11.305  19.058  0.00  0.00    +0.000 A 
ENDBRANCH  10  14
BRANCH   5  20
ATOM     20  N   UNL     1       1.019  10.704  18.285  0.00  0.00    +0.000 N 
ATOM     21  H   UNL     1       1.824  11.337  18.332  0.00  0.00    +0.000 HD
BRANCH  20  22
ATOM     22  C   UNL     1       1.416   9.407  18.708  0.00  0.00    +0.000 A 
ATOM     23  C   UNL     1       2.147   8.597  17.823  0.00  0.00    +0.000 A 
ATOM     24  C   UNL     1       2.632   7.347  18.225  0.00  0.00    +0.000 A 
ATOM     25  C   UNL     1       2.412   6.914  19.527  0.00  0.00    +0.000 A 
ATOM     26  F   UNL     1       2.886   5.724  19.917  0.00  0.00    +0.000 F 
ATOM     27  C   UNL     1       1.719   7.709  20.431  0.00  0.00    +0.000 A 
ATOM     28  C   UNL     1       1.230   8.956  20.025  0.00  0.00    +0.000 A 
ENDBRANCH  20  22
ENDBRANCH   5  20
TORSDOF 3
ENDMDL
MODEL 2
REMARK VINA RESULT:      -7.6      2.241      4.104
REMARK  Name = 
REMARK  4 active torsions:
REMARK  status: ('A' for Active; 'I' for Inactive)
REMARK    1  A    between atoms: C_1  and  C_2
REMARK    2  A    between atoms: C_5  and  N_6
REMARK    3  A    between atoms: N_6  and  C_7
REMARK    4  A    between atoms: C_18  and  C_19
REMARK                            x       y       z     vdW  Elec       q    Type
REMARK                         _______ _______ _______ _____ _____    ______ ____
ROOT
ATOM      1  C   UNL     1      -1.138  13.503  23.116  0.00  0.00    +0.000 C 
ATOM      2  C   UNL     1      -1.658  13.032  21.803  0.00  0.00    +0.000 A 
ATOM      3  N   UNL     1      -0.816  12.505  20.899  0.00  0.00    +0.000 NA
ATOM      4  N   UNL     1      -1.614  12.114  19.862  0.00  0.00    +0.000 N 
ATOM      5  C   UNL     1      -1.229  11.425  18.668  0.00  0.00    +0.000 A 
ATOM      6  C   UNL     1      -2.205  11.127  17.792  0.00  0.00    +0.000 A 
ATOM      7  C   UNL     1      -3.578  11.551  18.138  0.00  0.00    +0.000 A 
ATOM      8  N   UNL     1      -3.950  12.170  19.204  0.00  0.00    +0.000 NA
ATOM      9  C   UNL     1      -2.960  12.443  20.108  0.00  0.00    +0.000 A 
ATOM     10  C   UNL     1      -3.011  13.035  21.359  0.00  0.00    +0.000 A 
ATOM     11  C   UNL     1      -4.549  11.180  17.066  0.00  0.00    +0.000 C 
ATOM     12  C   UNL     1      -3.683  10.531  15.989  0.00  0.00    +0.000 C 
ATOM     13  C   UNL     1      -2.222  10.481  16.453  0.00  0.00    +0.000 C 
ENDROOT
BRANCH  10  14
ATOM     14  C   UNL     1      -4.251  13.498  21.989  0.00  0.00    +0.000 A 
ATOM     15  C   UNL     1      -4.827  14.729  21.629  0.00  0.00    +0.000 A 
ATOM     16  C   UNL     1      -5.991  15.198  22.243  0.00  0.00    +0.000 A 
ATOM     17  C   UNL     1      -6.623  14.428  23.209  0.00  0.00    +0.000 A 
ATOM     18  C   UNL     1      -6.079  13.197  23.573  0.00  0.00    +0.000 A 
ATOM     19  C   UNL     1      -4.895  12.742  22.977  0.00  0.00    +0.000 A 
ENDBRANCH  10  14
BRANCH   5  20
ATOM     20  N   UNL     1       0.128  11.144  18.451  0.00  0.00    +0.000 N 
ATOM     21  H   UNL     1       0.702  11.924  18.787  0.00  0.00    +0.000 HD
BRANCH  20  22
ATOM     22  C   UNL     1       0.738   9.917  18.826  0.00  0.00    +0.000 A 
ATOM     23  C   UNL     1       1.514   9.226  17.881  0.00  0.00    +0.000 A 
ATOM     24  C   UNL     1       2.202   8.058  18.230  0.00  0.00    +0.000 A 
ATOM     25  C   UNL     1       2.139   7.592  19.538  0.00  0.00    +0.000 A 
ATOM     26  F   UNL     1       2.807   6.481  19.877  0.00  0.00    +0.000 F 
ATOM     27  C   UNL     1       1.404   8.273  20.499  0.00  0.00    +0.000 A 
ATOM     28  C   UNL     1       0.712   9.437  20.146  0.00  0.00    +0.000 A 
ENDBRANCH  20  22
ENDBRANCH   5  20
TORSDOF 3
ENDMDL
MODEL 3
REMARK VINA RESULT:      -7.6      4.557      7.445
REMARK  Name = 
REMARK  4 active torsions:
REMARK  status: ('A' for Active; 'I' for Inactive)
REMARK    1  A    between atoms: C_1  and  C_2
REMARK    2  A    between atoms: C_5  and  N_6
REMARK    3  A    between atoms: N_6  and  C_7
REMARK    4  A    between atoms: C_18  and  C_19
REMARK                            x       y       z     vdW  Elec       q    Type
REMARK                         _______ _______ _______ _____ _____    ______ ____
ROOT
ATOM      1  C   UNL     1       3.360   7.371  17.096  0.00  0.00    +0.000 C 
ATOM      2  C   UNL     1       2.612   7.930  18.256  0.00  0.00    +0.000 A 
ATOM      3  N   UNL     1       2.235   9.220  18.250  0.00  0.00    +0.000 NA
ATOM      4  N   UNL     1       1.519   9.380  19.402  0.00  0.00    +0.000 N 
ATOM      5  C   UNL     1       0.828  10.551  19.850  0.00  0.00    +0.000 A 
ATOM      6  C   UNL     1       0.170  10.462  21.021  0.00  0.00    +0.000 A 
ATOM      7  C   UNL     1       0.236   9.172  21.738  0.00  0.00    +0.000 A 
ATOM      8  N   UNL     1       0.850   8.106  21.357  0.00  0.00    +0.000 NA
ATOM      9  C   UNL     1       1.491   8.189  20.150  0.00  0.00    +0.000 A 
ATOM     10  C   UNL     1       2.189   7.238  19.426  0.00  0.00    +0.000 A 
ATOM     11  C   UNL     1      -0.512   9.227  23.030  0.00  0.00    +0.000 C 
ATOM     12  C   UNL     1      -1.019  10.665  23.102  0.00  0.00    +0.000 C 
ATOM     13  C   UNL     1      -0.608  11.429  21.838  0.00  0.00    +0.000 C 
ENDROOT
BRANCH  10  14
ATOM     14  C   UNL     1       2.362   5.849  19.863  0.00  0.00    +0.000 A 
ATOM     15  C   UNL     1       3.592   5.189  19.694  0.00  0.00    +0.000 A 
ATOM     16  C   UNL     1       3.763   3.856  20.076  0.00  0.00    +0.000 A 
ATOM     17  C   UNL     1       2.715   3.164  20.667  0.00  0.00    +0.000 A 
ATOM     18  C   UNL     1       1.489   3.802  20.857  0.00  0.00    +0.000 A 
ATOM     19  C   UNL     1       1.311   5.129  20.446  0.00  0.00    +0.000 A 
ENDBRANCH  10  14
BRANCH   5  20
ATOM     20  N   UNL     1       0.909  11.724  19.087  0.00  0.00    +0.000 N 
ATOM     21  H   UNL     1       0.001  12.201  19.085  0.00  0.00    +0.000 HD
BRANCH  20  22
ATOM     22  C   UNL     1       1.943  12.686  19.248  0.00  0.00    +0.000 A 
ATOM     23  C   UNL     1       2.619  13.154  18.109  0.00  0.00    +0.000 A 
ATOM     24  C   UNL     1       3.585  14.161  18.209  0.00  0.00    +0.000 A 
ATOM     25  C   UNL     1       3.858  14.727  19.448  0.00  0.00    +0.000 A 
ATOM     26  F   UNL     1       4.773  15.700  19.544  0.00  0.00    +0.000 F 
ATOM     27  C   UNL     1       3.181  14.305  20.585  0.00  0.00    +0.000 A 
ATOM     28  C   UNL     1       2.220  13.293  20.484  0.00  0.00    +0.000 A 
ENDBRANCH  20  22
ENDBRANCH   5  20
TORSDOF 3
ENDMDL
MODEL 4
REMARK VINA RESULT:      -7.6      5.120     10.080
REMARK  Name = 
REMARK  4 active torsions:
REMARK  status: ('A' for Active; 'I' for Inactive)
REMARK    1  A    between atoms: C_1  and  C_2
REMARK    2  A    between atoms: C_5  and  N_6
REMARK    3  A    between atoms: N_6  and  C_7
REMARK    4  A    between atoms: C_18  and  C_19
REMARK                            x       y       z     vdW  Elec       q    Type
REMARK                         _______ _______ _______ _____ _____    ______ ____
ROOT
ATOM      1  C   UNL     1       6.556   7.746  16.911  0.00  0.00    +0.000 C 
ATOM      2  C   UNL     1       5.546   6.715  17.276  0.00  0.00    +0.000 A 
ATOM      3  N   UNL     1       4.802   6.869  18.385  0.00  0.00    +0.000 NA
ATOM      4  N   UNL     1       3.943   5.807  18.381  0.00  0.00    +0.000 N 
ATOM      5  C   UNL     1       2.885   5.530  19.304  0.00  0.00    +0.000 A 
ATOM      6  C   UNL     1       2.155   4.422  19.083  0.00  0.00    +0.000 A 
ATOM      7  C   UNL     1       2.523   3.590  17.918  0.00  0.00    +0.000 A 
ATOM      8  N   UNL     1       3.469   3.817  17.074  0.00  0.00    +0.000 NA
ATOM      9  C   UNL     1       4.189   4.962  17.283  0.00  0.00    +0.000 A 
ATOM     10  C   UNL     1       5.219   5.532  16.554  0.00  0.00    +0.000 A 
ATOM     11  C   UNL     1       1.650   2.383  17.812  0.00  0.00    +0.000 C 
ATOM     12  C   UNL     1       0.729   2.485  19.026  0.00  0.00    +0.000 C 
ATOM     13  C   UNL     1       1.033   3.769  19.807  0.00  0.00    +0.000 C 
ENDROOT
BRANCH  10  14
ATOM     14  C   UNL     1       5.750   4.960  15.314  0.00  0.00    +0.000 A 
ATOM     15  C   UNL     1       7.109   5.097  14.980  0.00  0.00    +0.000 A 
ATOM     16  C   UNL     1       7.624   4.586  13.786  0.00  0.00    +0.000 A 
ATOM     17  C   UNL     1       6.795   3.895  12.914  0.00  0.00    +0.000 A 
ATOM     18  C   UNL     1       5.446   3.734  13.230  0.00  0.00    +0.000 A 
ATOM     19  C   UNL     1       4.926   4.273  14.413  0.00  0.00    +0.000 A 
ENDBRANCH  10  14
BRANCH   5  20
ATOM     20  N   UNL     1       2.697   6.383  20.401  0.00  0.00    +0.000 N 
ATOM     21  H   UNL     1       3.603   6.610  20.824  0.00  0.00    +0.000 HD
BRANCH  20  22
ATOM     22  C   UNL     1       1.898   7.557  20.345  0.00  0.00    +0.000 A 
ATOM     23  C   UNL     1       1.911   8.332  19.174  0.00  0.00    +0.000 A 
ATOM     24  C   UNL     1       1.078   9.450  19.042  0.00  0.00    +0.000 A 
ATOM     25  C   UNL     1       0.205   9.778  20.072  0.00  0.00    +0.000 A 
ATOM     26  F   UNL     1      -0.603  10.839  19.943  0.00  0.00    +0.000 F 
ATOM     27  C   UNL     1       0.151   9.009  21.227  0.00  0.00    +0.000 A 
ATOM     28  C   UNL     1       0.989   7.896  21.360  0.00  0.00    +0.000 A 
ENDBRANCH  20  22
ENDBRANCH   5  20
TORSDOF 3
ENDMDL
MODEL 5
REMARK VINA RESULT:      -7.5      2.168      4.214
REMARK  Name = 
REMARK  4 active torsions:
REMARK  status: ('A' for Active; 'I' for Inactive)
REMARK    1  A    between atoms: C_1  and  C_2
REMARK    2  A    between atoms: C_5  and  N_6
REMARK    3  A    between atoms: N_6  and  C_7
REMARK    4  A    between atoms: C_18  and  C_19
REMARK                            x       y       z     vdW  Elec       q    Type
REMARK                         _______ _______ _______ _____ _____    ______ ____
ROOT
ATOM      1  C   UNL     1      -0.728  14.079  22.828  0.00  0.00    +0.000 C 
ATOM      2  C   UNL     1      -1.288  13.412  21.621  0.00  0.00    +0.000 A 
ATOM      3  N   UNL     1      -0.465  12.812  20.744  0.00  0.00    +0.000 NA
ATOM      4  N   UNL     1      -1.293  12.246  19.817  0.00  0.00    +0.000 N 
ATOM      5  C   UNL     1      -0.931  11.424  18.702  0.00  0.00    +0.000 A 
ATOM      6  C   UNL     1      -1.933  10.963  17.931  0.00  0.00    +0.000 A 
ATOM      7  C   UNL     1      -3.308  11.360  18.300  0.00  0.00    +0.000 A 
ATOM      8  N   UNL     1      -3.660  12.096  19.297  0.00  0.00    +0.000 NA
ATOM      9  C   UNL     1      -2.640  12.537  20.097  0.00  0.00    +0.000 A 
ATOM     10  C   UNL     1      -2.660  13.287  21.261  0.00  0.00    +0.000 A 
ATOM     11  C   UNL     1      -4.311  10.801  17.346  0.00  0.00    +0.000 C 
ATOM     12  C   UNL     1      -3.466  10.058  16.313  0.00  0.00    +0.000 C 
ATOM     13  C   UNL     1      -1.983  10.145  16.692  0.00  0.00    +0.000 C 
ENDROOT
BRANCH  10  14
ATOM     14  C   UNL     1      -3.890  13.766  21.898  0.00  0.00    +0.000 A 
ATOM     15  C   UNL     1      -4.439  15.016  21.559  0.00  0.00    +0.000 A 
ATOM     16  C   UNL     1      -5.592  15.500  22.180  0.00  0.00    +0.000 A 
ATOM     17  C   UNL     1      -6.243  14.728  23.132  0.00  0.00    +0.000 A 
ATOM     18  C   UNL     1      -5.726  13.479  23.475  0.00  0.00    +0.000 A 
ATOM     19  C   UNL     1      -4.553  13.009  22.873  0.00  0.00    +0.000 A 
ENDBRANCH  10  14
BRANCH   5  20
ATOM     20  N   UNL     1       0.426  11.186  18.443  0.00  0.00    +0.000 N 
ATOM     21  H   UNL     1       0.986  11.981  18.767  0.00  0.00    +0.000 HD
BRANCH  20  22
ATOM     22  C   UNL     1       1.084   9.975  18.792  0.00  0.00    +0.000 A 
ATOM     23  C   UNL     1       0.925   9.466  20.091  0.00  0.00    +0.000 A 
ATOM     24  C   UNL     1       1.484   8.236  20.455  0.00  0.00    +0.000 A 
ATOM     25  C   UNL     1       2.181   7.494  19.510  0.00  0.00    +0.000 A 
ATOM     26  F   UNL     1       2.707   6.311  19.852  0.00  0.00    +0.000 F 
ATOM     27  C   UNL     1       2.326   7.961  18.210  0.00  0.00    +0.000 A 
ATOM     28  C   UNL     1       1.772   9.194  17.849  0.00  0.00    +0.000 A 
ENDBRANCH  20  22
ENDBRANCH   5  20
TORSDOF 3
ENDMDL
MODEL 6
REMARK VINA RESULT:      -7.5      5.108     10.107
REMARK  Name = 
REMARK  4 active torsions:
REMARK  status: ('A' for Active; 'I' for Inactive)
REMARK    1  A    between atoms: C_1  and  C_2
REMARK    2  A    between atoms: C_5  and  N_6
REMARK    3  A    between atoms: N_6  and  C_7
REMARK    4  A    between atoms: C_18  and  C_19
REMARK                            x       y       z     vdW  Elec       q    Type
REMARK                         _______ _______ _______ _____ _____    ______ ____
ROOT
ATOM      1  C   UNL     1       6.507   7.816  16.733  0.00  0.00    +0.000 C 
ATOM      2  C   UNL     1       5.521   6.780  17.145  0.00  0.00    +0.000 A 
ATOM      3  N   UNL     1       4.791   6.955  18.260  0.00  0.00    +0.000 NA
ATOM      4  N   UNL     1       3.951   5.879  18.302  0.00  0.00    +0.000 N 
ATOM      5  C   UNL     1       2.912   5.612  19.250  0.00  0.00    +0.000 A 
ATOM      6  C   UNL     1       2.197   4.486  19.073  0.00  0.00    +0.000 A 
ATOM      7  C   UNL     1       2.562   3.626  17.928  0.00  0.00    +0.000 A 
ATOM      8  N   UNL     1       3.490   3.843  17.062  0.00  0.00    +0.000 NA
ATOM      9  C   UNL     1       4.194   5.006  17.226  0.00  0.00    +0.000 A 
ATOM     10  C   UNL     1       5.203   5.571  16.464  0.00  0.00    +0.000 A 
ATOM     11  C   UNL     1       1.708   2.402  17.872  0.00  0.00    +0.000 C 
ATOM     12  C   UNL     1       0.804   2.525  19.097  0.00  0.00    +0.000 C 
ATOM     13  C   UNL     1       1.098   3.837  19.834  0.00  0.00    +0.000 C 
ENDROOT
BRANCH  10  14
ATOM     14  C   UNL     1       5.725   4.970  15.233  0.00  0.00    +0.000 A 
ATOM     15  C   UNL     1       4.871   4.300  14.340  0.00  0.00    +0.000 A 
ATOM     16  C   UNL     1       5.358   3.695  13.178  0.00  0.00    +0.000 A 
ATOM     17  C   UNL     1       6.708   3.778  12.868  0.00  0.00    +0.000 A 
ATOM     18  C   UNL     1       7.572   4.450  13.731  0.00  0.00    +0.000 A 
ATOM     19  C   UNL     1       7.086   5.029  14.910  0.00  0.00    +0.000 A 
ENDBRANCH  10  14
BRANCH   5  20
ATOM     20  N   UNL     1       2.726   6.495  20.323  0.00  0.00    +0.000 N 
ATOM     21  H   UNL     1       3.635   6.822  20.665  0.00  0.00    +0.000 HD
BRANCH  20  22
ATOM     22  C   UNL     1       1.818   7.588  20.283  0.00  0.00    +0.000 A 
ATOM     23  C   UNL     1       1.057   7.882  21.426  0.00  0.00    +0.000 A 
ATOM     24  C   UNL     1       0.213   8.998  21.461  0.00  0.00    +0.000 A 
ATOM     25  C   UNL     1       0.151   9.844  20.360  0.00  0.00    +0.000 A 
ATOM     26  F   UNL     1      -0.646  10.920  20.397  0.00  0.00    +0.000 F 
ATOM     27  C   UNL     1       0.917   9.593  19.230  0.00  0.00    +0.000 A 
ATOM     28  C   UNL     1       1.756   8.473  19.194  0.00  0.00    +0.000 A 
ENDBRANCH  20  22
ENDBRANCH   5  20
TORSDOF 3
ENDMDL
MODEL 7
REMARK VINA RESULT:      -7.5      2.229      4.298
REMARK  Name = 
REMARK  4 active torsions:
REMARK  status: ('A' for Active; 'I' for Inactive)
REMARK    1  A    between atoms: C_1  and  C_2
REMARK    2  A    between atoms: C_5  and  N_6
REMARK    3  A    between atoms: N_6  and  C_7
REMARK    4  A    between atoms: C_18  and  C_19
REMARK                            x       y       z     vdW  Elec       q    Type
REMARK                         _______ _______ _______ _____ _____    ______ ____
ROOT
ATOM      1  C   UNL     1      -1.171  13.760  23.145  0.00  0.00    +0.000 C 
ATOM      2  C   UNL     1      -1.661  13.209  21.852  0.00  0.00    +0.000 A 
ATOM      3  N   UNL     1      -0.785  12.716  20.960  0.00  0.00    +0.000 NA
ATOM      4  N   UNL     1      -1.557  12.233  19.941  0.00  0.00    +0.000 N 
ATOM      5  C   UNL     1      -1.127  11.536  18.768  0.00  0.00    +0.000 A 
ATOM      6  C   UNL     1      -2.082  11.138  17.908  0.00  0.00    +0.000 A 
ATOM      7  C   UNL     1      -3.481  11.470  18.250  0.00  0.00    +0.000 A 
ATOM      8  N   UNL     1      -3.894  12.095  19.297  0.00  0.00    +0.000 NA
ATOM      9  C   UNL     1      -2.922  12.470  20.186  0.00  0.00    +0.000 A 
ATOM     10  C   UNL     1      -3.012  13.097  21.417  0.00  0.00    +0.000 A 
ATOM     11  C   UNL     1      -4.427  10.994  17.197  0.00  0.00    +0.000 C 
ATOM     12  C   UNL     1      -3.519  10.375  16.136  0.00  0.00    +0.000 C 
ATOM     13  C   UNL     1      -2.057  10.449  16.591  0.00  0.00    +0.000 C 
ENDROOT
BRANCH  10  14
ATOM     14  C   UNL     1      -4.280  13.487  22.040  0.00  0.00    +0.000 A 
ATOM     15  C   UNL     1      -4.795  12.772  23.136  0.00  0.00    +0.000 A 
ATOM     16  C   UNL     1      -6.018  13.111  23.720  0.00  0.00    +0.000 A 
ATOM     17  C   UNL     1      -6.737  14.197  23.241  0.00  0.00    +0.000 A 
ATOM     18  C   UNL     1      -6.240  14.931  22.165  0.00  0.00    +0.000 A 
ATOM     19  C   UNL     1      -5.028  14.570  21.561  0.00  0.00    +0.000 A 
ENDBRANCH  10  14
BRANCH   5  20
ATOM     20  N   UNL     1       0.246  11.350  18.551  0.00  0.00    +0.000 N 
ATOM     21  H   UNL     1       0.770  12.139  18.941  0.00  0.00    +0.000 HD
BRANCH  20  22
ATOM     22  C   UNL     1       0.924  10.139  18.858  0.00  0.00    +0.000 A 
ATOM     23  C   UNL     1       0.835   9.622  20.160  0.00  0.00    +0.000 A 
ATOM     24  C   UNL     1       1.417   8.391  20.486  0.00  0.00    +0.000 A 
ATOM     25  C   UNL     1       2.065   7.657  19.501  0.00  0.00    +0.000 A 
ATOM     26  F   UNL     1       2.611   6.473  19.808  0.00  0.00    +0.000 F 
ATOM     27  C   UNL     1       2.140   8.132  18.198  0.00  0.00    +0.000 A 
ATOM     28  C   UNL     1       1.564   9.366  17.875  0.00  0.00    +0.000 A 
ENDBRANCH  20  22
ENDBRANCH   5  20
TORSDOF 3
ENDMDL
MODEL 8
REMARK VINA RESULT:      -7.5      2.904      7.689
REMARK  Name = 
REMARK  4 active torsions:
REMARK  status: ('A' for Active; 'I' for Inactive)
REMARK    1  A    between atoms: C_1  and  C_2
REMARK    2  A    between atoms: C_5  and  N_6
REMARK    3  A    between atoms: N_6  and  C_7
REMARK    4  A    between atoms: C_18  and  C_19
REMARK                            x       y       z     vdW  Elec       q    Type
REMARK                         _______ _______ _______ _____ _____    ______ ____
ROOT
ATOM      1  C   UNL     1       1.136  11.065  21.647  0.00  0.00    +0.000 C 
ATOM      2  C   UNL     1       0.183  10.884  20.517  0.00  0.00    +0.000 A 
ATOM      3  N   UNL     1      -0.910  11.661  20.432  0.00  0.00    +0.000 NA
ATOM      4  N   UNL     1      -1.513  11.292  19.263  0.00  0.00    +0.000 N 
ATOM      5  C   UNL     1      -2.679  11.860  18.658  0.00  0.00    +0.000 A 
ATOM      6  C   UNL     1      -3.076  11.336  17.485  0.00  0.00    +0.000 A 
ATOM      7  C   UNL     1      -2.280  10.216  16.939  0.00  0.00    +0.000 A 
ATOM      8  N   UNL     1      -1.229   9.688  17.463  0.00  0.00    +0.000 NA
ATOM      9  C   UNL     1      -0.809  10.244  18.641  0.00  0.00    +0.000 A 
ATOM     10  C   UNL     1       0.292   9.967  19.433  0.00  0.00    +0.000 A 
ATOM     11  C   UNL     1      -2.851   9.718  15.653  0.00  0.00    +0.000 C 
ATOM     12  C   UNL     1      -4.098  10.575  15.444  0.00  0.00    +0.000 C 
ATOM     13  C   UNL     1      -4.225  11.597  16.579  0.00  0.00    +0.000 C 
ENDROOT
BRANCH  10  14
ATOM     14  C   UNL     1       1.293   8.947  19.106  0.00  0.00    +0.000 A 
ATOM     15  C   UNL     1       2.042   9.027  17.919  0.00  0.00    +0.000 A 
ATOM     16  C   UNL     1       2.977   8.047  17.578  0.00  0.00    +0.000 A 
ATOM     17  C   UNL     1       3.207   6.980  18.436  0.00  0.00    +0.000 A 
ATOM     18  C   UNL     1       2.486   6.887  19.626  0.00  0.00    +0.000 A 
ATOM     19  C   UNL     1       1.528   7.855  19.951  0.00  0.00    +0.000 A 
ENDBRANCH  10  14
BRANCH   5  20
ATOM     20  N   UNL     1      -3.365  12.882  19.330  0.00  0.00    +0.000 N 
ATOM     21  H   UNL     1      -3.666  13.597  18.660  0.00  0.00    +0.000 HD
BRANCH  20  22
ATOM     22  C   UNL     1      -4.416  12.635  20.255  0.00  0.00    +0.000 A 
ATOM     23  C   UNL     1      -4.238  13.002  21.599  0.00  0.00    +0.000 A 
ATOM     24  C   UNL     1      -5.275  12.856  22.528  0.00  0.00    +0.000 A 
ATOM     25  C   UNL     1      -6.506  12.369  22.108  0.00  0.00    +0.000 A 
ATOM     26  F   UNL     1      -7.504  12.240  22.992  0.00  0.00    +0.000 F 
ATOM     27  C   UNL     1      -6.718  12.028  20.778  0.00  0.00    +0.000 A 
ATOM     28  C   UNL     1      -5.678  12.169  19.852  0.00  0.00    +0.000 A 
ENDBRANCH  20  22
ENDBRANCH   5  20
TORSDOF 3
ENDMDL
MODEL 9
REMARK VINA RESULT:      -7.5      0.176      1.320
REMARK  Name = 
REMARK  4 active torsions:
REMARK  status: ('A' for Active; 'I' for Inactive)
REMARK    1  A    between atoms: C_1  and  C_2
REMARK    2  A    between atoms: C_5  and  N_6
REMARK    3  A    between atoms: N_6  and  C_7
REMARK    4  A    between atoms: C_18  and  C_19
REMARK                            x       y       z     vdW  Elec       q    Type
REMARK                         _______ _______ _______ _____ _____    ______ ____
ROOT
ATOM      1  C   UNL     1      -3.617   9.715  15.805  0.00  0.00    +0.000 C 
ATOM      2  C   UNL     1      -2.952  10.415  16.938  0.00  0.00    +0.000 A 
ATOM      3  N   UNL     1      -1.629  10.274  17.129  0.00  0.00    +0.000 NA
ATOM      4  N   UNL     1      -1.338  11.092  18.183  0.00  0.00    +0.000 N 
ATOM      5  C   UNL     1      -0.053  11.371  18.750  0.00  0.00    +0.000 A 
ATOM      6  C   UNL     1      -0.014  12.233  19.782  0.00  0.00    +0.000 A 
ATOM      7  C   UNL     1      -1.300  12.798  20.241  0.00  0.00    +0.000 A 
ATOM      8  N   UNL     1      -2.467  12.564  19.749  0.00  0.00    +0.000 NA
ATOM      9  C   UNL     1      -2.500  11.711  18.678  0.00  0.00    +0.000 A 
ATOM     10  C   UNL     1      -3.554  11.290  17.886  0.00  0.00    +0.000 A 
ATOM     11  C   UNL     1      -1.109  13.713  21.406  0.00  0.00    +0.000 C 
ATOM     12  C   UNL     1       0.391  13.650  21.683  0.00  0.00    +0.000 C 
ATOM     13  C   UNL     1       1.075  12.741  20.656  0.00  0.00    +0.000 C 
ENDROOT
BRANCH  10  14
ATOM     14  C   UNL     1      -4.938  11.739  18.068  0.00  0.00    +0.000 A 
ATOM     15  C   UNL     1      -5.664  11.387  19.219  0.00  0.00    +0.000 A 
ATOM     16  C   UNL     1      -6.994  11.780  19.393  0.00  0.00    +0.000 A 
ATOM     17  C   UNL     1      -7.615  12.563  18.431  0.00  0.00    +0.000 A 
ATOM     18  C   UNL     1      -6.911  12.937  17.287  0.00  0.00    +0.000 A 
ATOM     19  C   UNL     1      -5.588  12.516  17.101  0.00  0.00    +0.000 A 
ENDBRANCH  10  14
BRANCH   5  20
ATOM     20  N   UNL     1       1.073  10.707  18.244  0.00  0.00    +0.000 N 
ATOM     21  H   UNL     1       1.862  11.359  18.181  0.00  0.00    +0.000 HD
BRANCH  20  22
ATOM     22  C   UNL     1       1.534   9.461  18.749  0.00  0.00    +0.000 A 
ATOM     23  C   UNL     1       1.167   9.077  20.049  0.00  0.00    +0.000 A 
ATOM     24  C   UNL     1       1.527   7.823  20.557  0.00  0.00    +0.000 A 
ATOM     25  C   UNL     1       2.232   6.936  19.754  0.00  0.00    +0.000 A 
ATOM     26  F   UNL     1       2.566   5.731  20.234  0.00  0.00    +0.000 F 
ATOM     27  C   UNL     1       2.580   7.280  18.454  0.00  0.00    +0.000 A 
ATOM     28  C   UNL     1       2.225   8.535  17.950  0.00  0.00    +0.000 A 
ENDBRANCH  20  22
ENDBRANCH   5  20
TORSDOF 3
ENDMDL
