MODEL 1
REMARK VINA RESULT:      -7.6      0.000      0.000
REMARK  Name = 
REMARK  13 active torsions:
REMARK  status: ('A' for Active; 'I' for Inactive)
REMARK    1  A    between atoms: C_1  and  O_2
REMARK    2  A    between atoms: O_2  and  C_3
REMARK    3  A    between atoms: C_3  and  C_5
REMARK    4  A    between atoms: C_5  and  C_6
REMARK    5  A    between atoms: C_6  and  C_7
REMARK    6  A    between atoms: C_10  and  O_11
REMARK    7  A    between atoms: C_12  and  C_13
REMARK    8  A    between atoms: C_13  and  C_14
REMARK    9  A    between atoms: C_16  and  C_17
REMARK   10  A    between atoms: C_16  and  C_18
REMARK   11  A    between atoms: C_23  and  O_24
REMARK   12  A    between atoms: C_25  and  C_26
REMARK   13  A    between atoms: C_29  and  O_30
REMARK                            x       y       z     vdW  Elec       q    Type
REMARK                         _______ _______ _______ _____ _____    ______ ____
ROOT
ATOM      1  C   UNL     1      -0.264  11.284  21.212  0.00  0.00    +0.000 C 
ATOM      2  O   UNL     1       1.144  11.641  21.206  0.00  0.00    +0.000 OA
ATOM      3  C   UNL     1       1.381  12.606  20.295  0.00  0.00    +0.000 C 
ATOM      4  O   UNL     1       2.461  13.100  20.020  0.00  0.00    +0.000 OA
ATOM      5  C   UNL     1       0.127  12.941  19.635  0.00  0.00    +0.000 C 
ATOM      6  C   UNL     1      -0.850  12.175  20.143  0.00  0.00    +0.000 C 
ENDROOT
BRANCH   6   7
ATOM      7  C   UNL     1      -2.252  12.215  19.696  0.00  0.00    +0.000 A 
ATOM      8  C   UNL     1      -3.211  12.921  20.448  0.00  0.00    +0.000 A 
ATOM      9  C   UNL     1      -4.571  12.897  20.122  0.00  0.00    +0.000 A 
ATOM     10  C   UNL     1      -4.986  12.186  19.007  0.00  0.00    +0.000 A 
ATOM     11  C   UNL     1      -4.060  11.534  18.208  0.00  0.00    +0.000 A 
ATOM     12  C   UNL     1      -2.704  11.553  18.548  0.00  0.00    +0.000 A 
BRANCH  10  13
ATOM     13  O   UNL     1      -6.302  12.093  18.672  0.00  0.00    +0.000 OA
ATOM     14  H   UNL     1      -6.835  12.314  19.453  0.00  0.00    +0.000 HD
ENDBRANCH  10  13
ENDBRANCH   6   7
BRANCH   1  15
ATOM     15  C   UNL     1      -0.797  11.559  22.639  0.00  0.00    +0.000 C 
ATOM     16  O   UNL     1      -1.533  10.804  23.267  0.00  0.00    +0.000 OA
BRANCH  15  18
ATOM     17  C   UNL     1      -1.413  13.671  23.502  0.00  0.00    +0.000 C 
ATOM     18  O   UNL     1      -0.373  12.770  23.107  0.00  0.00    +0.000 OA
ENDBRANCH  15  18
ENDBRANCH   1  15
BRANCH   5  19
ATOM     19  O   UNL     1       0.065  13.881  18.640  0.00  0.00    +0.000 OA
ATOM     20  H   UNL     1       0.557  13.501  17.881  0.00  0.00    +0.000 HD
ENDBRANCH   5  19
BRANCH   1  21
ATOM     21  C   UNL     1      -0.373   9.769  20.861  0.00  0.00    +0.000 C 
BRANCH  21  22
ATOM     22  C   UNL     1       0.752   9.269  19.968  0.00  0.00    +0.000 A 
ATOM     23  C   UNL     1       1.024   9.893  18.748  0.00  0.00    +0.000 A 
ATOM     24  C   UNL     1       1.906   9.304  17.841  0.00  0.00    +0.000 A 
ATOM     25  C   UNL     1       2.535   8.098  18.158  0.00  0.00    +0.000 A 
ATOM     26  C   UNL     1       2.354   7.496  19.406  0.00  0.00    +0.000 A 
ATOM     27  C   UNL     1       1.474   8.112  20.308  0.00  0.00    +0.000 A 
BRANCH  25  28
ATOM     28  O   UNL     1       3.315   7.476  17.225  0.00  0.00    +0.000 OA
ATOM     29  H   UNL     1       2.745   7.142  16.514  0.00  0.00    +0.000 HD
ENDBRANCH  25  28
BRANCH  26  30
ATOM     30  C   UNL     1       2.955   6.155  19.761  0.00  0.00    +0.000 C 
BRANCH  30  31
ATOM     31  C   UNL     1       2.215   4.978  19.174  0.00  0.00    +0.000 C 
ATOM     32  O   UNL     1       3.050   3.804  19.242  0.00  0.00    +0.000 OA
ATOM     33  C   UNL     1       1.790   3.694  19.907  0.00  0.00    +0.000 C 
ATOM     34  C   UNL     1       1.875   3.594  21.397  0.00  0.00    +0.000 C 
ATOM     35  C   UNL     1       0.940   2.645  19.245  0.00  0.00    +0.000 C 
ENDBRANCH  30  31
ENDBRANCH  26  30
ENDBRANCH  21  22
ENDBRANCH   1  21
TORSDOF 10
ENDMDL
MODEL 2
REMARK VINA RESULT:      -7.6      0.760      1.132
REMARK  Name = 
REMARK  13 active torsions:
REMARK  status: ('A' for Active; 'I' for Inactive)
REMARK    1  A    between atoms: C_1  and  O_2
REMARK    2  A    between atoms: O_2  and  C_3
REMARK    3  A    between atoms: C_3  and  C_5
REMARK    4  A    between atoms: C_5  and  C_6
REMARK    5  A    between atoms: C_6  and  C_7
REMARK    6  A    between atoms: C_10  and  O_11
REMARK    7  A    between atoms: C_12  and  C_13
REMARK    8  A    between atoms: C_13  and  C_14
REMARK    9  A    between atoms: C_16  and  C_17
REMARK   10  A    between atoms: C_16  and  C_18
REMARK   11  A    between atoms: C_23  and  O_24
REMARK   12  A    between atoms: C_25  and  C_26
REMARK   13  A    between atoms: C_29  and  O_30
REMARK                            x       y       z     vdW  Elec       q    Type
REMARK                         _______ _______ _______ _____ _____    ______ ____
ROOT
ATOM      1  C   UNL     1      -0.385  11.291  20.713  0.00  0.00    +0.000 C 
ATOM      2  O   UNL     1       0.997  11.677  20.485  0.00  0.00    +0.000 OA
ATOM      3  C   UNL     1       1.055  12.793  19.732  0.00  0.00    +0.000 C 
ATOM      4  O   UNL     1       2.063  13.354  19.336  0.00  0.00    +0.000 OA
ATOM      5  C   UNL     1      -0.302  13.209  19.409  0.00  0.00    +0.000 C 
ATOM      6  C   UNL     1      -1.165  12.342  19.960  0.00  0.00    +0.000 C 
ENDROOT
BRANCH   6   7
ATOM      7  C   UNL     1      -2.628  12.426  19.822  0.00  0.00    +0.000 A 
ATOM      8  C   UNL     1      -3.388  13.121  20.782  0.00  0.00    +0.000 A 
ATOM      9  C   UNL     1      -4.786  13.136  20.750  0.00  0.00    +0.000 A 
ATOM     10  C   UNL     1      -5.445  12.477  19.725  0.00  0.00    +0.000 A 
ATOM     11  C   UNL     1      -4.726  11.838  18.727  0.00  0.00    +0.000 A 
ATOM     12  C   UNL     1      -3.328  11.818  18.773  0.00  0.00    +0.000 A 
BRANCH  10  13
ATOM     13  O   UNL     1      -6.804  12.423  19.672  0.00  0.00    +0.000 OA
ATOM     14  H   UNL     1      -7.112  11.778  20.329  0.00  0.00    +0.000 HD
ENDBRANCH  10  13
ENDBRANCH   6   7
BRANCH   1  15
ATOM     15  C   UNL     1      -0.612  11.296  22.244  0.00  0.00    +0.000 C 
ATOM     16  O   UNL     1      -0.523  12.288  22.960  0.00  0.00    +0.000 OA
BRANCH  15  18
ATOM     17  C   UNL     1       0.137   9.446  23.509  0.00  0.00    +0.000 C 
ATOM     18  O   UNL     1      -0.891  10.044  22.712  0.00  0.00    +0.000 OA
ENDBRANCH  15  18
ENDBRANCH   1  15
BRANCH   5  19
ATOM     19  O   UNL     1      -0.553  14.308  18.632  0.00  0.00    +0.000 OA
ATOM     20  H   UNL     1      -1.501  14.522  18.768  0.00  0.00    +0.000 HD
ENDBRANCH   5  19
BRANCH   1  21
ATOM     21  C   UNL     1      -0.581   9.859  20.127  0.00  0.00    +0.000 C 
BRANCH  21  22
ATOM     22  C   UNL     1       0.676   9.281  19.497  0.00  0.00    +0.000 A 
ATOM     23  C   UNL     1       1.166   9.789  18.291  0.00  0.00    +0.000 A 
ATOM     24  C   UNL     1       2.185   9.120  17.611  0.00  0.00    +0.000 A 
ATOM     25  C   UNL     1       2.733   7.951  18.145  0.00  0.00    +0.000 A 
ATOM     26  C   UNL     1       2.328   7.469  19.392  0.00  0.00    +0.000 A 
ATOM     27  C   UNL     1       1.312   8.163  20.064  0.00  0.00    +0.000 A 
BRANCH  25  28
ATOM     28  O   UNL     1       3.656   7.248  17.426  0.00  0.00    +0.000 OA
ATOM     29  H   UNL     1       4.543   7.472  17.754  0.00  0.00    +0.000 HD
ENDBRANCH  25  28
BRANCH  26  30
ATOM     30  C   UNL     1       2.839   6.168  19.971  0.00  0.00    +0.000 C 
BRANCH  30  31
ATOM     31  C   UNL     1       2.185   4.940  19.387  0.00  0.00    +0.000 C 
ATOM     32  O   UNL     1       3.126   3.847  19.395  0.00  0.00    +0.000 OA
ATOM     33  C   UNL     1       1.909   3.609  20.107  0.00  0.00    +0.000 C 
ATOM     34  C   UNL     1       2.065   3.490  21.590  0.00  0.00    +0.000 C 
ATOM     35  C   UNL     1       1.132   2.499  19.456  0.00  0.00    +0.000 C 
ENDBRANCH  30  31
ENDBRANCH  26  30
ENDBRANCH  21  22
ENDBRANCH   1  21
TORSDOF 10
ENDMDL
MODEL 3
REMARK VINA RESULT:      -7.5      1.384      1.945
REMARK  Name = 
REMARK  13 active torsions:
REMARK  status: ('A' for Active; 'I' for Inactive)
REMARK    1  A    between atoms: C_1  and  O_2
REMARK    2  A    between atoms: O_2  and  C_3
REMARK    3  A    between atoms: C_3  and  C_5
REMARK    4  A    between atoms: C_5  and  C_6
REMARK    5  A    between atoms: C_6  and  C_7
REMARK    6  A    between atoms: C_10  and  O_11
REMARK    7  A    between atoms: C_12  and  C_13
REMARK    8  A    between atoms: C_13  and  C_14
REMARK    9  A    between atoms: C_16  and  C_17
REMARK   10  A    between atoms: C_16  and  C_18
REMARK   11  A    between atoms: C_23  and  O_24
REMARK   12  A    between atoms: C_25  and  C_26
REMARK   13  A    between atoms: C_29  and  O_30
REMARK                            x       y       z     vdW  Elec       q    Type
REMARK                         _______ _______ _______ _____ _____    ______ ____
ROOT
ATOM      1  C   UNL     1       0.445  11.179  19.330  0.00  0.00    +0.000 C 
ATOM      2  O   UNL     1       1.703  11.806  18.961  0.00  0.00    +0.000 OA
ATOM      3  C   UNL     1       1.494  13.067  18.536  0.00  0.00    +0.000 C 
ATOM      4  O   UNL     1       2.335  13.847  18.124  0.00  0.00    +0.000 OA
ATOM      5  C   UNL     1       0.066  13.348  18.594  0.00  0.00    +0.000 C 
ATOM      6  C   UNL     1      -0.573  12.257  19.044  0.00  0.00    +0.000 C 
ENDROOT
BRANCH   6   7
ATOM      7  C   UNL     1      -2.033  12.159  19.207  0.00  0.00    +0.000 A 
ATOM      8  C   UNL     1      -2.814  11.549  18.207  0.00  0.00    +0.000 A 
ATOM      9  C   UNL     1      -4.211  11.530  18.268  0.00  0.00    +0.000 A 
ATOM     10  C   UNL     1      -4.847  12.098  19.361  0.00  0.00    +0.000 A 
ATOM     11  C   UNL     1      -4.106  12.649  20.395  0.00  0.00    +0.000 A 
ATOM     12  C   UNL     1      -2.709  12.675  20.319  0.00  0.00    +0.000 A 
BRANCH  10  13
ATOM     13  O   UNL     1      -6.205  12.146  19.449  0.00  0.00    +0.000 OA
ATOM     14  H   UNL     1      -6.506  12.996  19.088  0.00  0.00    +0.000 HD
ENDBRANCH  10  13
ENDBRANCH   6   7
BRANCH   1  15
ATOM     15  C   UNL     1       0.556  10.780  20.821  0.00  0.00    +0.000 C 
ATOM     16  O   UNL     1       1.461  11.130  21.572  0.00  0.00    +0.000 OA
BRANCH  15  18
ATOM     17  C   UNL     1      -0.447   9.541  22.566  0.00  0.00    +0.000 C 
ATOM     18  O   UNL     1      -0.465   9.954  21.195  0.00  0.00    +0.000 OA
ENDBRANCH  15  18
ENDBRANCH   1  15
BRANCH   5  19
ATOM     19  O   UNL     1      -0.448  14.554  18.199  0.00  0.00    +0.000 OA
ATOM     20  H   UNL     1      -1.073  14.354  17.470  0.00  0.00    +0.000 HD
ENDBRANCH   5  19
BRANCH   1  21
ATOM     21  C   UNL     1       0.259   9.920  18.430  0.00  0.00    +0.000 C 
BRANCH  21  22
ATOM     22  C   UNL     1       1.437   8.960  18.474  0.00  0.00    +0.000 A 
ATOM     23  C   UNL     1       2.469   9.055  17.537  0.00  0.00    +0.000 A 
ATOM     24  C   UNL     1       3.430   8.047  17.448  0.00  0.00    +0.000 A 
ATOM     25  C   UNL     1       3.375   6.949  18.310  0.00  0.00    +0.000 A 
ATOM     26  C   UNL     1       2.410   6.870  19.317  0.00  0.00    +0.000 A 
ATOM     27  C   UNL     1       1.462   7.899  19.397  0.00  0.00    +0.000 A 
BRANCH  25  28
ATOM     28  O   UNL     1       4.258   5.919  18.149  0.00  0.00    +0.000 OA
ATOM     29  H   UNL     1       4.408   5.783  17.199  0.00  0.00    +0.000 HD
ENDBRANCH  25  28
BRANCH  26  30
ATOM     30  C   UNL     1       2.269   5.665  20.219  0.00  0.00    +0.000 C 
BRANCH  30  31
ATOM     31  C   UNL     1       1.801   4.418  19.508  0.00  0.00    +0.000 C 
ATOM     32  O   UNL     1       2.879   3.462  19.460  0.00  0.00    +0.000 OA
ATOM     33  C   UNL     1       1.686   3.004  20.101  0.00  0.00    +0.000 C 
ATOM     34  C   UNL     1       1.815   2.774  21.573  0.00  0.00    +0.000 C 
ATOM     35  C   UNL     1       1.082   1.865  19.328  0.00  0.00    +0.000 C 
ENDBRANCH  30  31
ENDBRANCH  26  30
ENDBRANCH  21  22
ENDBRANCH   1  21
TORSDOF 10
ENDMDL
MODEL 4
REMARK VINA RESULT:      -7.4      1.065      1.411
REMARK  Name = 
REMARK  13 active torsions:
REMARK  status: ('A' for Active; 'I' for Inactive)
REMARK    1  A    between atoms: C_1  and  O_2
REMARK    2  A    between atoms: O_2  and  C_3
REMARK    3  A    between atoms: C_3  and  C_5
REMARK    4  A    between atoms: C_5  and  C_6
REMARK    5  A    between atoms: C_6  and  C_7
REMARK    6  A    between atoms: C_10  and  O_11
REMARK    7  A    between atoms: C_12  and  C_13
REMARK    8  A    between atoms: C_13  and  C_14
REMARK    9  A    between atoms: C_16  and  C_17
REMARK   10  A    between atoms: C_16  and  C_18
REMARK   11  A    between atoms: C_23  and  O_24
REMARK   12  A    between atoms: C_25  and  C_26
REMARK   13  A    between atoms: C_29  and  O_30
REMARK                            x       y       z     vdW  Elec       q    Type
REMARK                         _______ _______ _______ _____ _____    ______ ____
ROOT
ATOM      1  C   UNL     1      -0.225  10.880  20.656  0.00  0.00    +0.000 C 
ATOM      2  O   UNL     1       1.158  11.322  20.679  0.00  0.00    +0.000 OA
ATOM      3  C   UNL     1       1.383  12.215  19.694  0.00  0.00    +0.000 C 
ATOM      4  O   UNL     1       2.446  12.748  19.423  0.00  0.00    +0.000 OA
ATOM      5  C   UNL     1       0.147  12.411  18.952  0.00  0.00    +0.000 C 
ATOM      6  C   UNL     1      -0.808  11.633  19.485  0.00  0.00    +0.000 C 
ENDROOT
BRANCH   6   7
ATOM      7  C   UNL     1      -2.187  11.546  18.976  0.00  0.00    +0.000 A 
ATOM      8  C   UNL     1      -3.211  12.297  19.584  0.00  0.00    +0.000 A 
ATOM      9  C   UNL     1      -4.551  12.164  19.204  0.00  0.00    +0.000 A 
ATOM     10  C   UNL     1      -4.879  11.294  18.176  0.00  0.00    +0.000 A 
ATOM     11  C   UNL     1      -3.887  10.589  17.512  0.00  0.00    +0.000 A 
ATOM     12  C   UNL     1      -2.551  10.719  17.906  0.00  0.00    +0.000 A 
BRANCH  10  13
ATOM     13  O   UNL     1      -6.171  11.094  17.798  0.00  0.00    +0.000 OA
ATOM     14  H   UNL     1      -6.744  11.644  18.357  0.00  0.00    +0.000 HD
ENDBRANCH  10  13
ENDBRANCH   6   7
BRANCH   1  15
ATOM     15  C   UNL     1      -0.842  11.247  22.027  0.00  0.00    +0.000 C 
ATOM     16  O   UNL     1      -1.046  12.392  22.417  0.00  0.00    +0.000 OA
BRANCH  15  18
ATOM     17  C   UNL     1       0.007   9.625  23.522  0.00  0.00    +0.000 C 
ATOM     18  O   UNL     1      -1.103  10.133  22.773  0.00  0.00    +0.000 OA
ENDBRANCH  15  18
ENDBRANCH   1  15
BRANCH   5  19
ATOM     19  O   UNL     1       0.080  13.253  17.874  0.00  0.00    +0.000 OA
ATOM     20  H   UNL     1      -0.840  13.186  17.538  0.00  0.00    +0.000 HD
ENDBRANCH   5  19
BRANCH   1  21
ATOM     21  C   UNL     1      -0.228   9.336  20.441  0.00  0.00    +0.000 C 
BRANCH  21  22
ATOM     22  C   UNL     1       0.976   8.826  19.664  0.00  0.00    +0.000 A 
ATOM     23  C   UNL     1       1.294   9.361  18.413  0.00  0.00    +0.000 A 
ATOM     24  C   UNL     1       2.261   8.748  17.615  0.00  0.00    +0.000 A 
ATOM     25  C   UNL     1       2.929   7.610  18.073  0.00  0.00    +0.000 A 
ATOM     26  C   UNL     1       2.699   7.106  19.356  0.00  0.00    +0.000 A 
ATOM     27  C   UNL     1       1.733   7.744  20.146  0.00  0.00    +0.000 A 
BRANCH  25  28
ATOM     28  O   UNL     1       3.799   6.958  17.247  0.00  0.00    +0.000 OA
ATOM     29  H   UNL     1       4.455   7.595  16.919  0.00  0.00    +0.000 HD
ENDBRANCH  25  28
BRANCH  26  30
ATOM     30  C   UNL     1       3.343   5.835  19.861  0.00  0.00    +0.000 C 
BRANCH  30  31
ATOM     31  C   UNL     1       2.403   4.934  20.625  0.00  0.00    +0.000 C 
ATOM     32  O   UNL     1       1.689   4.091  19.699  0.00  0.00    +0.000 OA
ATOM     33  C   UNL     1       2.447   3.398  20.694  0.00  0.00    +0.000 C 
ATOM     34  C   UNL     1       3.622   2.637  20.168  0.00  0.00    +0.000 C 
ATOM     35  C   UNL     1       1.532   2.617  21.595  0.00  0.00    +0.000 C 
ENDBRANCH  30  31
ENDBRANCH  26  30
ENDBRANCH  21  22
ENDBRANCH   1  21
TORSDOF 10
ENDMDL
MODEL 5
REMARK VINA RESULT:      -7.3      0.928      1.464
REMARK  Name = 
REMARK  13 active torsions:
REMARK  status: ('A' for Active; 'I' for Inactive)
REMARK    1  A    between atoms: C_1  and  O_2
REMARK    2  A    between atoms: O_2  and  C_3
REMARK    3  A    between atoms: C_3  and  C_5
REMARK    4  A    between atoms: C_5  and  C_6
REMARK    5  A    between atoms: C_6  and  C_7
REMARK    6  A    between atoms: C_10  and  O_11
REMARK    7  A    between atoms: C_12  and  C_13
REMARK    8  A    between atoms: C_13  and  C_14
REMARK    9  A    between atoms: C_16  and  C_17
REMARK   10  A    between atoms: C_16  and  C_18
REMARK   11  A    between atoms: C_23  and  O_24
REMARK   12  A    between atoms: C_25  and  C_26
REMARK   13  A    between atoms: C_29  and  O_30
REMARK                            x       y       z     vdW  Elec       q    Type
REMARK                         _______ _______ _______ _____ _____    ______ ____
ROOT
ATOM      1  C   UNL     1      -0.116  11.356  21.011  0.00  0.00    +0.000 C 
ATOM      2  O   UNL     1       1.262  11.813  20.955  0.00  0.00    +0.000 OA
ATOM      3  C   UNL     1       1.487  12.490  19.812  0.00  0.00    +0.000 C 
ATOM      4  O   UNL     1       2.546  12.972  19.446  0.00  0.00    +0.000 OA
ATOM      5  C   UNL     1       0.257  12.513  19.034  0.00  0.00    +0.000 C 
ATOM      6  C   UNL     1      -0.694  11.847  19.706  0.00  0.00    +0.000 C 
ENDROOT
BRANCH   6   7
ATOM      7  C   UNL     1      -2.066  11.639  19.213  0.00  0.00    +0.000 A 
ATOM      8  C   UNL     1      -2.316  10.686  18.207  0.00  0.00    +0.000 A 
ATOM      9  C   UNL     1      -3.582  10.531  17.633  0.00  0.00    +0.000 A 
ATOM     10  C   UNL     1      -4.631  11.313  18.090  0.00  0.00    +0.000 A 
ATOM     11  C   UNL     1      -4.434  12.215  19.124  0.00  0.00    +0.000 A 
ATOM     12  C   UNL     1      -3.162  12.372  19.684  0.00  0.00    +0.000 A 
BRANCH  10  13
ATOM     13  O   UNL     1      -5.872  11.233  17.535  0.00  0.00    +0.000 OA
ATOM     14  H   UNL     1      -6.318  12.087  17.655  0.00  0.00    +0.000 HD
ENDBRANCH  10  13
ENDBRANCH   6   7
BRANCH   1  15
ATOM     15  C   UNL     1      -0.753  11.986  22.273  0.00  0.00    +0.000 C 
ATOM     16  O   UNL     1      -0.385  13.036  22.792  0.00  0.00    +0.000 OA
BRANCH  15  18
ATOM     17  C   UNL     1      -2.823  11.917  23.411  0.00  0.00    +0.000 C 
ATOM     18  O   UNL     1      -1.760  11.207  22.767  0.00  0.00    +0.000 OA
ENDBRANCH  15  18
ENDBRANCH   1  15
BRANCH   5  19
ATOM     19  O   UNL     1       0.192  13.117  17.806  0.00  0.00    +0.000 OA
ATOM     20  H   UNL     1       0.168  14.082  17.983  0.00  0.00    +0.000 HD
ENDBRANCH   5  19
BRANCH   1  21
ATOM     21  C   UNL     1      -0.098   9.801  21.114  0.00  0.00    +0.000 C 
BRANCH  21  22
ATOM     22  C   UNL     1       0.911   9.140  20.188  0.00  0.00    +0.000 A 
ATOM     23  C   UNL     1       1.121   9.632  18.897  0.00  0.00    +0.000 A 
ATOM     24  C   UNL     1       1.880   8.900  17.984  0.00  0.00    +0.000 A 
ATOM     25  C   UNL     1       2.451   7.682  18.363  0.00  0.00    +0.000 A 
ATOM     26  C   UNL     1       2.336   7.209  19.673  0.00  0.00    +0.000 A 
ATOM     27  C   UNL     1       1.579   7.966  20.578  0.00  0.00    +0.000 A 
BRANCH  25  28
ATOM     28  O   UNL     1       3.106   6.924  17.435  0.00  0.00    +0.000 OA
ATOM     29  H   UNL     1       3.151   6.009  17.756  0.00  0.00    +0.000 HD
ENDBRANCH  25  28
BRANCH  26  30
ATOM     30  C   UNL     1       2.872   5.863  20.105  0.00  0.00    +0.000 C 
BRANCH  30  31
ATOM     31  C   UNL     1       1.914   4.719  19.875  0.00  0.00    +0.000 C 
ATOM     32  O   UNL     1       1.632   4.607  18.466  0.00  0.00    +0.000 OA
ATOM     33  C   UNL     1       2.183   3.435  19.072  0.00  0.00    +0.000 C 
ATOM     34  C   UNL     1       3.564   3.086  18.618  0.00  0.00    +0.000 C 
ATOM     35  C   UNL     1       1.191   2.307  19.023  0.00  0.00    +0.000 C 
ENDBRANCH  30  31
ENDBRANCH  26  30
ENDBRANCH  21  22
ENDBRANCH   1  21
TORSDOF 10
ENDMDL
MODEL 6
REMARK VINA RESULT:      -7.3      1.782      7.569
REMARK  Name = 
REMARK  13 active torsions:
REMARK  status: ('A' for Active; 'I' for Inactive)
REMARK    1  A    between atoms: C_1  and  O_2
REMARK    2  A    between atoms: O_2  and  C_3
REMARK    3  A    between atoms: C_3  and  C_5
REMARK    4  A    between atoms: C_5  and  C_6
REMARK    5  A    between atoms: C_6  and  C_7
REMARK    6  A    between atoms: C_10  and  O_11
REMARK    7  A    between atoms: C_12  and  C_13
REMARK    8  A    between atoms: C_13  and  C_14
REMARK    9  A    between atoms: C_16  and  C_17
REMARK   10  A    between atoms: C_16  and  C_18
REMARK   11  A    between atoms: C_23  and  O_24
REMARK   12  A    between atoms: C_25  and  C_26
REMARK   13  A    between atoms: C_29  and  O_30
REMARK                            x       y       z     vdW  Elec       q    Type
REMARK                         _______ _______ _______ _____ _____    ______ ____
ROOT
ATOM      1  C   UNL     1       0.271  11.768  20.212  0.00  0.00    +0.000 C 
ATOM      2  O   UNL     1      -0.635  12.305  21.213  0.00  0.00    +0.000 OA
ATOM      3  C   UNL     1      -1.014  11.338  22.072  0.00  0.00    +0.000 C 
ATOM      4  O   UNL     1      -1.793  11.454  23.002  0.00  0.00    +0.000 OA
ATOM      5  C   UNL     1      -0.376  10.089  21.678  0.00  0.00    +0.000 C 
ATOM      6  C   UNL     1       0.371  10.309  20.586  0.00  0.00    +0.000 C 
ENDROOT
BRANCH   6   7
ATOM      7  C   UNL     1       1.142   9.268  19.886  0.00  0.00    +0.000 A 
ATOM      8  C   UNL     1       1.417   9.400  18.511  0.00  0.00    +0.000 A 
ATOM      9  C   UNL     1       2.050   8.387  17.782  0.00  0.00    +0.000 A 
ATOM     10  C   UNL     1       2.450   7.233  18.437  0.00  0.00    +0.000 A 
ATOM     11  C   UNL     1       2.253   7.099  19.803  0.00  0.00    +0.000 A 
ATOM     12  C   UNL     1       1.609   8.111  20.521  0.00  0.00    +0.000 A 
BRANCH  10  13
ATOM     13  O   UNL     1       3.029   6.200  17.767  0.00  0.00    +0.000 OA
ATOM     14  H   UNL     1       3.369   6.533  16.921  0.00  0.00    +0.000 HD
ENDBRANCH  10  13
ENDBRANCH   6   7
BRANCH   1  15
ATOM     15  C   UNL     1       1.599  12.555  20.332  0.00  0.00    +0.000 C 
ATOM     16  O   UNL     1       2.127  12.877  21.392  0.00  0.00    +0.000 OA
BRANCH  15  18
ATOM     17  C   UNL     1       3.089  13.916  19.102  0.00  0.00    +0.000 C 
ATOM     18  O   UNL     1       2.099  12.881  19.104  0.00  0.00    +0.000 OA
ENDBRANCH  15  18
ENDBRANCH   1  15
BRANCH   5  19
ATOM     19  O   UNL     1      -0.596   8.922  22.360  0.00  0.00    +0.000 OA
ATOM     20  H   UNL     1      -0.464   9.137  23.308  0.00  0.00    +0.000 HD
ENDBRANCH   5  19
BRANCH   1  21
ATOM     21  C   UNL     1      -0.381  11.989  18.813  0.00  0.00    +0.000 C 
BRANCH  21  22
ATOM     22  C   UNL     1      -1.823  11.513  18.731  0.00  0.00    +0.000 A 
ATOM     23  C   UNL     1      -2.159  10.387  17.976  0.00  0.00    +0.000 A 
ATOM     24  C   UNL     1      -3.499  10.084  17.729  0.00  0.00    +0.000 A 
ATOM     25  C   UNL     1      -4.509  10.894  18.254  0.00  0.00    +0.000 A 
ATOM     26  C   UNL     1      -4.208  11.973  19.088  0.00  0.00    +0.000 A 
ATOM     27  C   UNL     1      -2.855  12.253  19.333  0.00  0.00    +0.000 A 
BRANCH  25  28
ATOM     28  O   UNL     1      -5.811  10.650  17.923  0.00  0.00    +0.000 OA
ATOM     29  H   UNL     1      -6.323  11.465  18.052  0.00  0.00    +0.000 HD
ENDBRANCH  25  28
BRANCH  26  30
ATOM     30  C   UNL     1      -5.263  12.920  19.613  0.00  0.00    +0.000 C 
BRANCH  30  31
ATOM     31  C   UNL     1      -5.955  12.432  20.863  0.00  0.00    +0.000 C 
ATOM     32  O   UNL     1      -4.984  12.269  21.916  0.00  0.00    +0.000 OA
ATOM     33  C   UNL     1      -6.056  13.168  22.210  0.00  0.00    +0.000 C 
ATOM     34  C   UNL     1      -5.653  14.602  22.336  0.00  0.00    +0.000 C 
ATOM     35  C   UNL     1      -6.885  12.636  23.346  0.00  0.00    +0.000 C 
ENDBRANCH  30  31
ENDBRANCH  26  30
ENDBRANCH  21  22
ENDBRANCH   1  21
TORSDOF 10
ENDMDL
MODEL 7
REMARK VINA RESULT:      -7.3      4.239      9.766
REMARK  Name = 
REMARK  13 active torsions:
REMARK  status: ('A' for Active; 'I' for Inactive)
REMARK    1  A    between atoms: C_1  and  O_2
REMARK    2  A    between atoms: O_2  and  C_3
REMARK    3  A    between atoms: C_3  and  C_5
REMARK    4  A    between atoms: C_5  and  C_6
REMARK    5  A    between atoms: C_6  and  C_7
REMARK    6  A    between atoms: C_10  and  O_11
REMARK    7  A    between atoms: C_12  and  C_13
REMARK    8  A    between atoms: C_13  and  C_14
REMARK    9  A    between atoms: C_16  and  C_17
REMARK   10  A    between atoms: C_16  and  C_18
REMARK   11  A    between atoms: C_23  and  O_24
REMARK   12  A    between atoms: C_25  and  C_26
REMARK   13  A    between atoms: C_29  and  O_30
REMARK                            x       y       z     vdW  Elec       q    Type
REMARK                         _______ _______ _______ _____ _____    ______ ____
ROOT
ATOM      1  C   UNL     1       5.033   5.487  17.149  0.00  0.00    +0.000 C 
ATOM      2  O   UNL     1       5.334   5.576  18.568  0.00  0.00    +0.000 OA
ATOM      3  C   UNL     1       6.576   5.115  18.815  0.00  0.00    +0.000 C 
ATOM      4  O   UNL     1       7.116   5.023  19.904  0.00  0.00    +0.000 OA
ATOM      5  C   UNL     1       7.171   4.684  17.558  0.00  0.00    +0.000 C 
ATOM      6  C   UNL     1       6.286   4.879  16.569  0.00  0.00    +0.000 C 
ENDROOT
BRANCH   6   7
ATOM      7  C   UNL     1       6.529   4.531  15.159  0.00  0.00    +0.000 A 
ATOM      8  C   UNL     1       7.528   5.204  14.430  0.00  0.00    +0.000 A 
ATOM      9  C   UNL     1       7.721   4.984  13.062  0.00  0.00    +0.000 A 
ATOM     10  C   UNL     1       6.930   4.052  12.410  0.00  0.00    +0.000 A 
ATOM     11  C   UNL     1       5.981   3.325  13.111  0.00  0.00    +0.000 A 
ATOM     12  C   UNL     1       5.786   3.560  14.477  0.00  0.00    +0.000 A 
BRANCH  10  13
ATOM     13  O   UNL     1       7.046   3.832  11.071  0.00  0.00    +0.000 OA
ATOM     14  H   UNL     1       6.616   4.564  10.601  0.00  0.00    +0.000 HD
ENDBRANCH  10  13
ENDBRANCH   6   7
BRANCH   1  15
ATOM     15  C   UNL     1       4.728   6.923  16.658  0.00  0.00    +0.000 C 
ATOM     16  O   UNL     1       4.901   7.320  15.510  0.00  0.00    +0.000 OA
BRANCH  15  18
ATOM     17  C   UNL     1       2.922   8.167  17.538  0.00  0.00    +0.000 C 
ATOM     18  O   UNL     1       4.273   7.713  17.674  0.00  0.00    +0.000 OA
ENDBRANCH  15  18
ENDBRANCH   1  15
BRANCH   5  19
ATOM     19  O   UNL     1       8.430   4.146  17.505  0.00  0.00    +0.000 OA
ATOM     20  H   UNL     1       9.013   4.862  17.175  0.00  0.00    +0.000 HD
ENDBRANCH   5  19
BRANCH   1  21
ATOM     21  C   UNL     1       3.784   4.568  16.985  0.00  0.00    +0.000 C 
BRANCH  21  22
ATOM     22  C   UNL     1       3.165   4.139  18.306  0.00  0.00    +0.000 A 
ATOM     23  C   UNL     1       2.899   2.792  18.564  0.00  0.00    +0.000 A 
ATOM     24  C   UNL     1       2.140   2.428  19.677  0.00  0.00    +0.000 A 
ATOM     25  C   UNL     1       1.659   3.409  20.548  0.00  0.00    +0.000 A 
ATOM     26  C   UNL     1       1.984   4.755  20.368  0.00  0.00    +0.000 A 
ATOM     27  C   UNL     1       2.759   5.098  19.251  0.00  0.00    +0.000 A 
BRANCH  25  28
ATOM     28  O   UNL     1       0.832   3.054  21.575  0.00  0.00    +0.000 OA
ATOM     29  H   UNL     1       0.303   3.827  21.831  0.00  0.00    +0.000 HD
ENDBRANCH  25  28
BRANCH  26  30
ATOM     30  C   UNL     1       1.424   5.855  21.241  0.00  0.00    +0.000 C 
BRANCH  30  31
ATOM     31  C   UNL     1       1.058   7.110  20.487  0.00  0.00    +0.000 C 
ATOM     32  O   UNL     1      -0.106   7.710  21.091  0.00  0.00    +0.000 OA
ATOM     33  C   UNL     1       1.051   8.548  21.033  0.00  0.00    +0.000 C 
ATOM     34  C   UNL     1       1.657   8.869  22.362  0.00  0.00    +0.000 C 
ATOM     35  C   UNL     1       0.793   9.734  20.146  0.00  0.00    +0.000 C 
ENDBRANCH  30  31
ENDBRANCH  26  30
ENDBRANCH  21  22
ENDBRANCH   1  21
TORSDOF 10
ENDMDL
MODEL 8
REMARK VINA RESULT:      -7.3      3.710      9.856
REMARK  Name = 
REMARK  13 active torsions:
REMARK  status: ('A' for Active; 'I' for Inactive)
REMARK    1  A    between atoms: C_1  and  O_2
REMARK    2  A    between atoms: O_2  and  C_3
REMARK    3  A    between atoms: C_3  and  C_5
REMARK    4  A    between atoms: C_5  and  C_6
REMARK    5  A    between atoms: C_6  and  C_7
REMARK    6  A    between atoms: C_10  and  O_11
REMARK    7  A    between atoms: C_12  and  C_13
REMARK    8  A    between atoms: C_13  and  C_14
REMARK    9  A    between atoms: C_16  and  C_17
REMARK   10  A    between atoms: C_16  and  C_18
REMARK   11  A    between atoms: C_23  and  O_24
REMARK   12  A    between atoms: C_25  and  C_26
REMARK   13  A    between atoms: C_29  and  O_30
REMARK                            x       y       z     vdW  Elec       q    Type
REMARK                         _______ _______ _______ _____ _____    ______ ____
ROOT
ATOM      1  C   UNL     1       4.675   5.189  18.090  0.00  0.00    +0.000 C 
ATOM      2  O   UNL     1       3.977   4.597  19.218  0.00  0.00    +0.000 OA
ATOM      3  C   UNL     1       3.798   3.276  19.021  0.00  0.00    +0.000 C 
ATOM      4  O   UNL     1       3.219   2.500  19.762  0.00  0.00    +0.000 OA
ATOM      5  C   UNL     1       4.370   2.916  17.731  0.00  0.00    +0.000 C 
ATOM      6  C   UNL     1       4.879   4.018  17.159  0.00  0.00    +0.000 C 
ENDROOT
BRANCH   6   7
ATOM      7  C   UNL     1       5.515   4.044  15.832  0.00  0.00    +0.000 A 
ATOM      8  C   UNL     1       6.849   4.475  15.698  0.00  0.00    +0.000 A 
ATOM      9  C   UNL     1       7.458   4.619  14.448  0.00  0.00    +0.000 A 
ATOM     10  C   UNL     1       6.742   4.295  13.306  0.00  0.00    +0.000 A 
ATOM     11  C   UNL     1       5.449   3.805  13.406  0.00  0.00    +0.000 A 
ATOM     12  C   UNL     1       4.843   3.676  14.660  0.00  0.00    +0.000 A 
BRANCH  10  13
ATOM     13  O   UNL     1       7.272   4.460  12.063  0.00  0.00    +0.000 OA
ATOM     14  H   UNL     1       6.619   4.166  11.408  0.00  0.00    +0.000 HD
ENDBRANCH  10  13
ENDBRANCH   6   7
BRANCH   1  15
ATOM     15  C   UNL     1       5.982   5.809  18.638  0.00  0.00    +0.000 C 
ATOM     16  O   UNL     1       6.574   5.418  19.640  0.00  0.00    +0.000 OA
BRANCH  15  18
ATOM     17  C   UNL     1       7.748   7.271  18.063  0.00  0.00    +0.000 C 
ATOM     18  O   UNL     1       6.383   6.876  17.887  0.00  0.00    +0.000 OA
ENDBRANCH  15  18
ENDBRANCH   1  15
BRANCH   5  19
ATOM     19  O   UNL     1       4.316   1.634  17.253  0.00  0.00    +0.000 OA
ATOM     20  H   UNL     1       3.655   1.168  17.807  0.00  0.00    +0.000 HD
ENDBRANCH   5  19
BRANCH   1  21
ATOM     21  C   UNL     1       3.751   6.288  17.482  0.00  0.00    +0.000 C 
BRANCH  21  22
ATOM     22  C   UNL     1       2.981   7.082  18.525  0.00  0.00    +0.000 A 
ATOM     23  C   UNL     1       2.675   6.518  19.766  0.00  0.00    +0.000 A 
ATOM     24  C   UNL     1       1.790   7.165  20.630  0.00  0.00    +0.000 A 
ATOM     25  C   UNL     1       1.224   8.388  20.266  0.00  0.00    +0.000 A 
ATOM     26  C   UNL     1       1.580   9.022  19.073  0.00  0.00    +0.000 A 
ATOM     27  C   UNL     1       2.480   8.361  18.225  0.00  0.00    +0.000 A 
BRANCH  25  28
ATOM     28  O   UNL     1       0.282   8.964  21.070  0.00  0.00    +0.000 OA
ATOM     29  H   UNL     1       0.707   9.656  21.602  0.00  0.00    +0.000 HD
ENDBRANCH  25  28
BRANCH  26  30
ATOM     30  C   UNL     1       0.934  10.307  18.605  0.00  0.00    +0.000 C 
BRANCH  30  31
ATOM     31  C   UNL     1      -0.408  10.112  17.943  0.00  0.00    +0.000 C 
ATOM     32  O   UNL     1      -1.444  10.130  18.946  0.00  0.00    +0.000 OA
ATOM     33  C   UNL     1      -1.577  11.110  17.914  0.00  0.00    +0.000 C 
ATOM     34  C   UNL     1      -1.394  12.524  18.367  0.00  0.00    +0.000 C 
ATOM     35  C   UNL     1      -2.821  10.854  17.110  0.00  0.00    +0.000 C 
ENDBRANCH  30  31
ENDBRANCH  26  30
ENDBRANCH  21  22
ENDBRANCH   1  21
TORSDOF 10
ENDMDL
MODEL 9
REMARK VINA RESULT:      -7.3      0.987      1.510
REMARK  Name = 
REMARK  13 active torsions:
REMARK  status: ('A' for Active; 'I' for Inactive)
REMARK    1  A    between atoms: C_1  and  O_2
REMARK    2  A    between atoms: O_2  and  C_3
REMARK    3  A    between atoms: C_3  and  C_5
REMARK    4  A    between atoms: C_5  and  C_6
REMARK    5  A    between atoms: C_6  and  C_7
REMARK    6  A    between atoms: C_10  and  O_11
REMARK    7  A    between atoms: C_12  and  C_13
REMARK    8  A    between atoms: C_13  and  C_14
REMARK    9  A    between atoms: C_16  and  C_17
REMARK   10  A    between atoms: C_16  and  C_18
REMARK   11  A    between atoms: C_23  and  O_24
REMARK   12  A    between atoms: C_25  and  C_26
REMARK   13  A    between atoms: C_29  and  O_30
REMARK                            x       y       z     vdW  Elec       q    Type
REMARK                         _______ _______ _______ _____ _____    ______ ____
ROOT
ATOM      1  C   UNL     1      -0.268  11.252  20.576  0.00  0.00    +0.000 C 
ATOM      2  O   UNL     1       1.104  11.634  20.287  0.00  0.00    +0.000 OA
ATOM      3  C   UNL     1       1.132  12.737  19.513  0.00  0.00    +0.000 C 
ATOM      4  O   UNL     1       2.122  13.290  19.068  0.00  0.00    +0.000 OA
ATOM      5  C   UNL     1      -0.238  13.147  19.237  0.00  0.00    +0.000 C 
ATOM      6  C   UNL     1      -1.077  12.289  19.837  0.00  0.00    +0.000 C 
ENDROOT
BRANCH   6   7
ATOM      7  C   UNL     1      -2.545  12.371  19.754  0.00  0.00    +0.000 A 
ATOM      8  C   UNL     1      -3.232  11.694  18.729  0.00  0.00    +0.000 A 
ATOM      9  C   UNL     1      -4.612  11.831  18.547  0.00  0.00    +0.000 A 
ATOM     10  C   UNL     1      -5.333  12.628  19.422  0.00  0.00    +0.000 A 
ATOM     11  C   UNL     1      -4.698  13.257  20.481  0.00  0.00    +0.000 A 
ATOM     12  C   UNL     1      -3.315  13.125  20.648  0.00  0.00    +0.000 A 
BRANCH  10  13
ATOM     13  O   UNL     1      -6.669  12.831  19.263  0.00  0.00    +0.000 OA
ATOM     14  H   UNL     1      -7.018  13.234  20.074  0.00  0.00    +0.000 HD
ENDBRANCH  10  13
ENDBRANCH   6   7
BRANCH   1  15
ATOM     15  C   UNL     1      -0.434  11.283  22.115  0.00  0.00    +0.000 C 
ATOM     16  O   UNL     1      -1.277  11.946  22.712  0.00  0.00    +0.000 OA
BRANCH  15  18
ATOM     17  C   UNL     1      -0.023   9.428  23.519  0.00  0.00    +0.000 C 
ATOM     18  O   UNL     1       0.501  10.505  22.735  0.00  0.00    +0.000 OA
ENDBRANCH  15  18
ENDBRANCH   1  15
BRANCH   5  19
ATOM     19  O   UNL     1      -0.520  14.232  18.451  0.00  0.00    +0.000 OA
ATOM     20  H   UNL     1      -1.497  14.326  18.464  0.00  0.00    +0.000 HD
ENDBRANCH   5  19
BRANCH   1  21
ATOM     21  C   UNL     1      -0.486   9.810  20.023  0.00  0.00    +0.000 C 
BRANCH  21  22
ATOM     22  C   UNL     1       0.755   9.208  19.384  0.00  0.00    +0.000 A 
ATOM     23  C   UNL     1       1.158   9.600  18.104  0.00  0.00    +0.000 A 
ATOM     24  C   UNL     1       2.162   8.895  17.440  0.00  0.00    +0.000 A 
ATOM     25  C   UNL     1       2.783   7.808  18.060  0.00  0.00    +0.000 A 
ATOM     26  C   UNL     1       2.467   7.449  19.373  0.00  0.00    +0.000 A 
ATOM     27  C   UNL     1       1.464   8.178  20.027  0.00  0.00    +0.000 A 
BRANCH  25  28
ATOM     28  O   UNL     1       3.691   7.061  17.365  0.00  0.00    +0.000 OA
ATOM     29  H   UNL     1       4.388   6.771  17.976  0.00  0.00    +0.000 HD
ENDBRANCH  25  28
BRANCH  26  30
ATOM     30  C   UNL     1       3.058   6.235  20.053  0.00  0.00    +0.000 C 
BRANCH  30  31
ATOM     31  C   UNL     1       2.031   5.230  20.514  0.00  0.00    +0.000 C 
ATOM     32  O   UNL     1       1.573   4.460  19.384  0.00  0.00    +0.000 OA
ATOM     33  C   UNL     1       2.144   3.697  20.450  0.00  0.00    +0.000 C 
ATOM     34  C   UNL     1       3.443   3.034  20.119  0.00  0.00    +0.000 C 
ATOM     35  C   UNL     1       1.106   2.798  21.061  0.00  0.00    +0.000 C 
ENDBRANCH  30  31
ENDBRANCH  26  30
ENDBRANCH  21  22
ENDBRANCH   1  21
TORSDOF 10
ENDMDL
