MODEL 1
REMARK VINA RESULT:      -7.8      0.000      0.000
REMARK  Name = 
REMARK  5 active torsions:
REMARK  status: ('A' for Active; 'I' for Inactive)
REMARK    1  A    between atoms: C_1  and  C_2
REMARK    2  A    between atoms: C_7  and  C_8
REMARK    3  A    between atoms: C_9  and  C_10
REMARK    4  A    between atoms: C_11  and  C_12
REMARK    5  A    between atoms: N_15  and  C_16
REMARK                            x       y       z     vdW  Elec       q    Type
REMARK                         _______ _______ _______ _____ _____    ______ ____
ROOT
ATOM      1  C   UNL     1       5.400   2.171  11.505  0.00  0.00    +0.000 C 
ATOM      2  C   UNL     1       6.043   3.228  12.350  0.00  0.00    +0.000 A 
ATOM      3  C   UNL     1       7.006   4.117  11.822  0.00  0.00    +0.000 A 
ATOM      4  C   UNL     1       7.618   5.070  12.653  0.00  0.00    +0.000 A 
ATOM      5  C   UNL     1       7.246   5.110  13.997  0.00  0.00    +0.000 A 
ATOM      6  N   UNL     1       7.745   5.924  14.941  0.00  0.00    +0.000 N 
ATOM      7  C   UNL     1       7.109   5.609  16.091  0.00  0.00    +0.000 A 
ATOM      8  C   UNL     1       7.409   6.270  17.402  0.00  0.00    +0.000 C 
ATOM      9  C   UNL     1       6.169   4.594  15.880  0.00  0.00    +0.000 A 
ATOM     10  C   UNL     1       6.289   4.267  14.522  0.00  0.00    +0.000 A 
ATOM     11  C   UNL     1       5.676   3.310  13.701  0.00  0.00    +0.000 A 
ATOM     12  H   UNL     1       8.489   6.646  14.814  0.00  0.00    +0.000 HD
ENDROOT
BRANCH   9  13
ATOM     13  C   UNL     1       5.293   4.055  16.963  0.00  0.00    +0.000 C 
ATOM     14  C   UNL     1       4.299   4.732  17.568  0.00  0.00    +0.000 C 
BRANCH  14  15
ATOM     15  C   UNL     1       3.416   4.199  18.633  0.00  0.00    +0.000 A 
ATOM     16  C   UNL     1       2.102   4.643  18.851  0.00  0.00    +0.000 A 
ATOM     17  C   UNL     1       1.356   4.100  19.898  0.00  0.00    +0.000 A 
ATOM     18  N   UNL     1       1.893   3.146  20.715  0.00  0.00    +0.000 N 
ATOM     19  C   UNL     1       1.113   2.601  21.828  0.00  0.00    +0.000 C 
ATOM     20  C   UNL     1       3.163   2.692  20.515  0.00  0.00    +0.000 A 
ATOM     21  C   UNL     1       3.938   3.205  19.476  0.00  0.00    +0.000 A 
ENDBRANCH  14  15
ENDBRANCH   9  13
TORSDOF 2
ENDMDL
MODEL 2
REMARK VINA RESULT:      -7.6      0.789      1.000
REMARK  Name = 
REMARK  5 active torsions:
REMARK  status: ('A' for Active; 'I' for Inactive)
REMARK    1  A    between atoms: C_1  and  C_2
REMARK    2  A    between atoms: C_7  and  C_8
REMARK    3  A    between atoms: C_9  and  C_10
REMARK    4  A    between atoms: C_11  and  C_12
REMARK    5  A    between atoms: N_15  and  C_16
REMARK                            x       y       z     vdW  Elec       q    Type
REMARK                         _______ _______ _______ _____ _____    ______ ____
ROOT
ATOM      1  C   UNL     1       5.089   2.349  11.354  0.00  0.00    +0.000 C 
ATOM      2  C   UNL     1       5.831   3.326  12.215  0.00  0.00    +0.000 A 
ATOM      3  C   UNL     1       6.979   4.004  11.748  0.00  0.00    +0.000 A 
ATOM      4  C   UNL     1       7.675   4.882  12.596  0.00  0.00    +0.000 A 
ATOM      5  C   UNL     1       7.199   5.061  13.895  0.00  0.00    +0.000 A 
ATOM      6  N   UNL     1       7.749   5.828  14.850  0.00  0.00    +0.000 N 
ATOM      7  C   UNL     1       6.968   5.691  15.945  0.00  0.00    +0.000 A 
ATOM      8  C   UNL     1       7.263   6.363  17.251  0.00  0.00    +0.000 C 
ATOM      9  C   UNL     1       5.886   4.844  15.684  0.00  0.00    +0.000 A 
ATOM     10  C   UNL     1       6.065   4.425  14.358  0.00  0.00    +0.000 A 
ATOM     11  C   UNL     1       5.367   3.544  13.520  0.00  0.00    +0.000 A 
ATOM     12  H   UNL     1       8.617   6.402  14.767  0.00  0.00    +0.000 HD
ENDROOT
BRANCH   9  13
ATOM     13  C   UNL     1       4.836   4.525  16.698  0.00  0.00    +0.000 C 
ATOM     14  C   UNL     1       4.968   3.635  17.699  0.00  0.00    +0.000 C 
BRANCH  14  15
ATOM     15  C   UNL     1       3.937   3.323  18.718  0.00  0.00    +0.000 A 
ATOM     16  C   UNL     1       3.151   2.160  18.701  0.00  0.00    +0.000 A 
ATOM     17  C   UNL     1       2.185   1.967  19.690  0.00  0.00    +0.000 A 
ATOM     18  N   UNL     1       1.994   2.900  20.669  0.00  0.00    +0.000 N 
ATOM     19  C   UNL     1       0.960   2.702  21.687  0.00  0.00    +0.000 C 
ATOM     20  C   UNL     1       2.754   4.031  20.712  0.00  0.00    +0.000 A 
ATOM     21  C   UNL     1       3.733   4.258  19.746  0.00  0.00    +0.000 A 
ENDBRANCH  14  15
ENDBRANCH   9  13
TORSDOF 2
ENDMDL
MODEL 3
REMARK VINA RESULT:      -7.5      3.892      5.870
REMARK  Name = 
REMARK  5 active torsions:
REMARK  status: ('A' for Active; 'I' for Inactive)
REMARK    1  A    between atoms: C_1  and  C_2
REMARK    2  A    between atoms: C_7  and  C_8
REMARK    3  A    between atoms: C_9  and  C_10
REMARK    4  A    between atoms: C_11  and  C_12
REMARK    5  A    between atoms: N_15  and  C_16
REMARK                            x       y       z     vdW  Elec       q    Type
REMARK                         _______ _______ _______ _____ _____    ______ ____
ROOT
ATOM      1  C   UNL     1       7.856   7.551  17.459  0.00  0.00    +0.000 C 
ATOM      2  C   UNL     1       6.797   6.500  17.321  0.00  0.00    +0.000 A 
ATOM      3  C   UNL     1       6.983   5.360  16.509  0.00  0.00    +0.000 A 
ATOM      4  C   UNL     1       5.953   4.414  16.371  0.00  0.00    +0.000 A 
ATOM      5  C   UNL     1       4.758   4.635  17.057  0.00  0.00    +0.000 A 
ATOM      6  N   UNL     1       3.659   3.864  17.018  0.00  0.00    +0.000 N 
ATOM      7  C   UNL     1       2.747   4.461  17.816  0.00  0.00    +0.000 A 
ATOM      8  C   UNL     1       1.360   3.930  18.017  0.00  0.00    +0.000 C 
ATOM      9  C   UNL     1       3.273   5.620  18.397  0.00  0.00    +0.000 A 
ATOM     10  C   UNL     1       4.569   5.730  17.874  0.00  0.00    +0.000 A 
ATOM     11  C   UNL     1       5.590   6.680  18.014  0.00  0.00    +0.000 A 
ATOM     12  H   UNL     1       3.532   2.986  16.467  0.00  0.00    +0.000 HD
ENDROOT
BRANCH   9  13
ATOM     13  C   UNL     1       2.505   6.477  19.349  0.00  0.00    +0.000 C 
ATOM     14  C   UNL     1       2.173   7.765  19.141  0.00  0.00    +0.000 C 
BRANCH  14  15
ATOM     15  C   UNL     1       1.399   8.618  20.073  0.00  0.00    +0.000 A 
ATOM     16  C   UNL     1       1.356   8.415  21.463  0.00  0.00    +0.000 A 
ATOM     17  C   UNL     1       0.575   9.256  22.258  0.00  0.00    +0.000 A 
ATOM     18  N   UNL     1      -0.150  10.268  21.698  0.00  0.00    +0.000 N 
ATOM     19  C   UNL     1      -0.988  11.129  22.536  0.00  0.00    +0.000 C 
ATOM     20  C   UNL     1      -0.115  10.491  20.353  0.00  0.00    +0.000 A 
ATOM     21  C   UNL     1       0.657   9.678  19.526  0.00  0.00    +0.000 A 
ENDBRANCH  14  15
ENDBRANCH   9  13
TORSDOF 2
ENDMDL
MODEL 4
REMARK VINA RESULT:      -7.5      4.071      6.477
REMARK  Name = 
REMARK  5 active torsions:
REMARK  status: ('A' for Active; 'I' for Inactive)
REMARK    1  A    between atoms: C_1  and  C_2
REMARK    2  A    between atoms: C_7  and  C_8
REMARK    3  A    between atoms: C_9  and  C_10
REMARK    4  A    between atoms: C_11  and  C_12
REMARK    5  A    between atoms: N_15  and  C_16
REMARK                            x       y       z     vdW  Elec       q    Type
REMARK                         _______ _______ _______ _____ _____    ______ ____
ROOT
ATOM      1  C   UNL     1       5.138   6.621  15.819  0.00  0.00    +0.000 C 
ATOM      2  C   UNL     1       4.617   5.567  16.749  0.00  0.00    +0.000 A 
ATOM      3  C   UNL     1       4.922   4.201  16.568  0.00  0.00    +0.000 A 
ATOM      4  C   UNL     1       4.383   3.235  17.435  0.00  0.00    +0.000 A 
ATOM      5  C   UNL     1       3.550   3.667  18.468  0.00  0.00    +0.000 A 
ATOM      6  N   UNL     1       2.921   2.891  19.365  0.00  0.00    +0.000 N 
ATOM      7  C   UNL     1       2.218   3.725  20.162  0.00  0.00    +0.000 A 
ATOM      8  C   UNL     1       1.341   3.246  21.280  0.00  0.00    +0.000 C 
ATOM      9  C   UNL     1       2.415   5.059  19.789  0.00  0.00    +0.000 A 
ATOM     10  C   UNL     1       3.262   5.000  18.673  0.00  0.00    +0.000 A 
ATOM     11  C   UNL     1       3.792   5.969  17.810  0.00  0.00    +0.000 A 
ATOM     12  H   UNL     1       2.957   1.849  19.424  0.00  0.00    +0.000 HD
ENDROOT
BRANCH   9  13
ATOM     13  C   UNL     1       1.787   6.209  20.505  0.00  0.00    +0.000 C 
ATOM     14  C   UNL     1       1.761   7.480  20.062  0.00  0.00    +0.000 C 
BRANCH  14  15
ATOM     15  C   UNL     1       1.127   8.624  20.760  0.00  0.00    +0.000 A 
ATOM     16  C   UNL     1       0.791   8.617  22.124  0.00  0.00    +0.000 A 
ATOM     17  C   UNL     1       0.171   9.734  22.686  0.00  0.00    +0.000 A 
ATOM     18  N   UNL     1      -0.118  10.828  21.923  0.00  0.00    +0.000 N 
ATOM     19  C   UNL     1      -0.793  11.985  22.515  0.00  0.00    +0.000 C 
ATOM     20  C   UNL     1       0.209  10.862  20.600  0.00  0.00    +0.000 A 
ATOM     21  C   UNL     1       0.835   9.770  20.002  0.00  0.00    +0.000 A 
ENDBRANCH  14  15
ENDBRANCH   9  13
TORSDOF 2
ENDMDL
MODEL 5
REMARK VINA RESULT:      -7.4      4.088      6.129
REMARK  Name = 
REMARK  5 active torsions:
REMARK  status: ('A' for Active; 'I' for Inactive)
REMARK    1  A    between atoms: C_1  and  C_2
REMARK    2  A    between atoms: C_7  and  C_8
REMARK    3  A    between atoms: C_9  and  C_10
REMARK    4  A    between atoms: C_11  and  C_12
REMARK    5  A    between atoms: N_15  and  C_16
REMARK                            x       y       z     vdW  Elec       q    Type
REMARK                         _______ _______ _______ _____ _____    ______ ____
ROOT
ATOM      1  C   UNL     1       7.877   7.951  17.484  0.00  0.00    +0.000 C 
ATOM      2  C   UNL     1       6.948   6.775  17.510  0.00  0.00    +0.000 A 
ATOM      3  C   UNL     1       7.415   5.456  17.322  0.00  0.00    +0.000 A 
ATOM      4  C   UNL     1       6.511   4.381  17.310  0.00  0.00    +0.000 A 
ATOM      5  C   UNL     1       5.155   4.657  17.493  0.00  0.00    +0.000 A 
ATOM      6  N   UNL     1       4.149   3.768  17.478  0.00  0.00    +0.000 N 
ATOM      7  C   UNL     1       3.015   4.473  17.680  0.00  0.00    +0.000 A 
ATOM      8  C   UNL     1       1.652   3.849  17.697  0.00  0.00    +0.000 C 
ATOM      9  C   UNL     1       3.296   5.833  17.852  0.00  0.00    +0.000 A 
ATOM     10  C   UNL     1       4.686   5.936  17.703  0.00  0.00    +0.000 A 
ATOM     11  C   UNL     1       5.581   7.016  17.711  0.00  0.00    +0.000 A 
ATOM     12  H   UNL     1       4.228   2.738  17.325  0.00  0.00    +0.000 HD
ENDROOT
BRANCH   9  13
ATOM     13  C   UNL     1       2.242   6.858  18.120  0.00  0.00    +0.000 C 
ATOM     14  C   UNL     1       2.351   7.874  18.995  0.00  0.00    +0.000 C 
BRANCH  14  15
ATOM     15  C   UNL     1       1.316   8.903  19.256  0.00  0.00    +0.000 A 
ATOM     16  C   UNL     1       0.793   9.177  20.530  0.00  0.00    +0.000 A 
ATOM     17  C   UNL     1      -0.201  10.147  20.672  0.00  0.00    +0.000 A 
ATOM     18  N   UNL     1      -0.673  10.826  19.586  0.00  0.00    +0.000 N 
ATOM     19  C   UNL     1      -1.735  11.823  19.740  0.00  0.00    +0.000 C 
ATOM     20  C   UNL     1      -0.172  10.584  18.341  0.00  0.00    +0.000 A 
ATOM     21  C   UNL     1       0.825   9.628  18.158  0.00  0.00    +0.000 A 
ENDBRANCH  14  15
ENDBRANCH   9  13
TORSDOF 2
ENDMDL
MODEL 6
REMARK VINA RESULT:      -7.4      4.008      5.893
REMARK  Name = 
REMARK  5 active torsions:
REMARK  status: ('A' for Active; 'I' for Inactive)
REMARK    1  A    between atoms: C_1  and  C_2
REMARK    2  A    between atoms: C_7  and  C_8
REMARK    3  A    between atoms: C_9  and  C_10
REMARK    4  A    between atoms: C_11  and  C_12
REMARK    5  A    between atoms: N_15  and  C_16
REMARK                            x       y       z     vdW  Elec       q    Type
REMARK                         _______ _______ _______ _____ _____    ______ ____
ROOT
ATOM      1  C   UNL     1       7.828   7.589  17.240  0.00  0.00    +0.000 C 
ATOM      2  C   UNL     1       6.811   6.489  17.200  0.00  0.00    +0.000 A 
ATOM      3  C   UNL     1       7.096   5.234  16.618  0.00  0.00    +0.000 A 
ATOM      4  C   UNL     1       6.105   4.240  16.561  0.00  0.00    +0.000 A 
ATOM      5  C   UNL     1       4.848   4.529  17.094  0.00  0.00    +0.000 A 
ATOM      6  N   UNL     1       3.777   3.720  17.099  0.00  0.00    +0.000 N 
ATOM      7  C   UNL     1       2.783   4.410  17.700  0.00  0.00    +0.000 A 
ATOM      8  C   UNL     1       1.396   3.868  17.873  0.00  0.00    +0.000 C 
ATOM      9  C   UNL     1       3.227   5.671  18.112  0.00  0.00    +0.000 A 
ATOM     10  C   UNL     1       4.562   5.740  17.688  0.00  0.00    +0.000 A 
ATOM     11  C   UNL     1       5.543   6.739  17.745  0.00  0.00    +0.000 A 
ATOM     12  H   UNL     1       3.720   2.756  16.701  0.00  0.00    +0.000 HD
ENDROOT
BRANCH   9  13
ATOM     13  C   UNL     1       2.356   6.649  18.831  0.00  0.00    +0.000 C 
ATOM     14  C   UNL     1       2.210   7.947  18.504  0.00  0.00    +0.000 C 
BRANCH  14  15
ATOM     15  C   UNL     1       1.338   8.920  19.203  0.00  0.00    +0.000 A 
ATOM     16  C   UNL     1       0.725  10.013  18.570  0.00  0.00    +0.000 A 
ATOM     17  C   UNL     1      -0.059  10.892  19.320  0.00  0.00    +0.000 A 
ATOM     18  N   UNL     1      -0.231  10.702  20.661  0.00  0.00    +0.000 N 
ATOM     19  C   UNL     1      -1.033  11.644  21.445  0.00  0.00    +0.000 C 
ATOM     20  C   UNL     1       0.345   9.641  21.294  0.00  0.00    +0.000 A 
ATOM     21  C   UNL     1       1.130   8.737  20.580  0.00  0.00    +0.000 A 
ENDBRANCH  14  15
ENDBRANCH   9  13
TORSDOF 2
ENDMDL
MODEL 7
REMARK VINA RESULT:      -7.4      4.556      6.576
REMARK  Name = 
REMARK  5 active torsions:
REMARK  status: ('A' for Active; 'I' for Inactive)
REMARK    1  A    between atoms: C_1  and  C_2
REMARK    2  A    between atoms: C_7  and  C_8
REMARK    3  A    between atoms: C_9  and  C_10
REMARK    4  A    between atoms: C_11  and  C_12
REMARK    5  A    between atoms: N_15  and  C_16
REMARK                            x       y       z     vdW  Elec       q    Type
REMARK                         _______ _______ _______ _____ _____    ______ ____
ROOT
ATOM      1  C   UNL     1       0.439   2.784  18.896  0.00  0.00    +0.000 C 
ATOM      2  C   UNL     1       1.746   3.269  18.346  0.00  0.00    +0.000 A 
ATOM      3  C   UNL     1       2.725   2.375  17.861  0.00  0.00    +0.000 A 
ATOM      4  C   UNL     1       3.956   2.862  17.390  0.00  0.00    +0.000 A 
ATOM      5  C   UNL     1       4.173   4.240  17.414  0.00  0.00    +0.000 A 
ATOM      6  N   UNL     1       5.292   4.880  17.039  0.00  0.00    +0.000 N 
ATOM      7  C   UNL     1       5.065   6.196  17.243  0.00  0.00    +0.000 A 
ATOM      8  C   UNL     1       6.091   7.256  16.981  0.00  0.00    +0.000 C 
ATOM      9  C   UNL     1       3.771   6.410  17.733  0.00  0.00    +0.000 A 
ATOM     10  C   UNL     1       3.217   5.128  17.861  0.00  0.00    +0.000 A 
ATOM     11  C   UNL     1       1.988   4.650  18.336  0.00  0.00    +0.000 A 
ATOM     12  H   UNL     1       6.170   4.444  16.678  0.00  0.00    +0.000 HD
ENDROOT
BRANCH   9  13
ATOM     13  C   UNL     1       3.224   7.768  18.028  0.00  0.00    +0.000 C 
ATOM     14  C   UNL     1       1.973   8.179  17.749  0.00  0.00    +0.000 C 
BRANCH  14  15
ATOM     15  C   UNL     1       1.419   9.520  18.052  0.00  0.00    +0.000 A 
ATOM     16  C   UNL     1       2.209  10.663  18.259  0.00  0.00    +0.000 A 
ATOM     17  C   UNL     1       1.595  11.878  18.567  0.00  0.00    +0.000 A 
ATOM     18  N   UNL     1       0.237  11.965  18.674  0.00  0.00    +0.000 N 
ATOM     19  C   UNL     1      -0.398  13.238  19.023  0.00  0.00    +0.000 C 
ATOM     20  C   UNL     1      -0.551  10.872  18.466  0.00  0.00    +0.000 A 
ATOM     21  C   UNL     1       0.023   9.642  18.151  0.00  0.00    +0.000 A 
ENDBRANCH  14  15
ENDBRANCH   9  13
TORSDOF 2
ENDMDL
MODEL 8
REMARK VINA RESULT:      -7.4      4.072      6.433
REMARK  Name = 
REMARK  5 active torsions:
REMARK  status: ('A' for Active; 'I' for Inactive)
REMARK    1  A    between atoms: C_1  and  C_2
REMARK    2  A    between atoms: C_7  and  C_8
REMARK    3  A    between atoms: C_9  and  C_10
REMARK    4  A    between atoms: C_11  and  C_12
REMARK    5  A    between atoms: N_15  and  C_16
REMARK                            x       y       z     vdW  Elec       q    Type
REMARK                         _______ _______ _______ _____ _____    ______ ____
ROOT
ATOM      1  C   UNL     1       5.162   6.638  15.855  0.00  0.00    +0.000 C 
ATOM      2  C   UNL     1       4.702   5.605  16.838  0.00  0.00    +0.000 A 
ATOM      3  C   UNL     1       5.139   4.265  16.767  0.00  0.00    +0.000 A 
ATOM      4  C   UNL     1       4.656   3.313  17.680  0.00  0.00    +0.000 A 
ATOM      5  C   UNL     1       3.744   3.733  18.650  0.00  0.00    +0.000 A 
ATOM      6  N   UNL     1       3.153   2.963  19.577  0.00  0.00    +0.000 N 
ATOM      7  C   UNL     1       2.342   3.779  20.288  0.00  0.00    +0.000 A 
ATOM      8  C   UNL     1       1.468   3.296  21.405  0.00  0.00    +0.000 C 
ATOM      9  C   UNL     1       2.431   5.097  19.827  0.00  0.00    +0.000 A 
ATOM     10  C   UNL     1       3.326   5.043  18.749  0.00  0.00    +0.000 A 
ATOM     11  C   UNL     1       3.800   5.998  17.838  0.00  0.00    +0.000 A 
ATOM     12  H   UNL     1       3.282   1.936  19.712  0.00  0.00    +0.000 HD
ENDROOT
BRANCH   9  13
ATOM     13  C   UNL     1       1.669   6.228  20.437  0.00  0.00    +0.000 C 
ATOM     14  C   UNL     1       1.881   7.533  20.183  0.00  0.00    +0.000 C 
BRANCH  14  15
ATOM     15  C   UNL     1       1.120   8.661  20.772  0.00  0.00    +0.000 A 
ATOM     16  C   UNL     1       0.668   9.767  20.034  0.00  0.00    +0.000 A 
ATOM     17  C   UNL     1      -0.018  10.794  20.684  0.00  0.00    +0.000 A 
ATOM     18  N   UNL     1      -0.249  10.737  22.029  0.00  0.00    +0.000 N 
ATOM     19  C   UNL     1      -0.946  11.832  22.708  0.00  0.00    +0.000 C 
ATOM     20  C   UNL     1       0.171   9.667  22.763  0.00  0.00    +0.000 A 
ATOM     21  C   UNL     1       0.854   8.618  22.151  0.00  0.00    +0.000 A 
ENDBRANCH  14  15
ENDBRANCH   9  13
TORSDOF 2
ENDMDL
MODEL 9
REMARK VINA RESULT:      -7.4      4.303      6.290
REMARK  Name = 
REMARK  5 active torsions:
REMARK  status: ('A' for Active; 'I' for Inactive)
REMARK    1  A    between atoms: C_1  and  C_2
REMARK    2  A    between atoms: C_7  and  C_8
REMARK    3  A    between atoms: C_9  and  C_10
REMARK    4  A    between atoms: C_11  and  C_12
REMARK    5  A    between atoms: N_15  and  C_16
REMARK                            x       y       z     vdW  Elec       q    Type
REMARK                         _______ _______ _______ _____ _____    ______ ____
ROOT
ATOM      1  C   UNL     1       0.514   2.390  18.879  0.00  0.00    +0.000 C 
ATOM      2  C   UNL     1       1.803   2.942  18.352  0.00  0.00    +0.000 A 
ATOM      3  C   UNL     1       2.844   2.100  17.902  0.00  0.00    +0.000 A 
ATOM      4  C   UNL     1       4.055   2.651  17.453  0.00  0.00    +0.000 A 
ATOM      5  C   UNL     1       4.193   4.040  17.462  0.00  0.00    +0.000 A 
ATOM      6  N   UNL     1       5.282   4.738  17.104  0.00  0.00    +0.000 N 
ATOM      7  C   UNL     1       4.975   6.041  17.284  0.00  0.00    +0.000 A 
ATOM      8  C   UNL     1       5.944   7.155  17.031  0.00  0.00    +0.000 C 
ATOM      9  C   UNL     1       3.660   6.187  17.742  0.00  0.00    +0.000 A 
ATOM     10  C   UNL     1       3.177   4.877  17.874  0.00  0.00    +0.000 A 
ATOM     11  C   UNL     1       1.966   4.335  18.329  0.00  0.00    +0.000 A 
ATOM     12  H   UNL     1       6.191   4.349  16.769  0.00  0.00    +0.000 HD
ENDROOT
BRANCH   9  13
ATOM     13  C   UNL     1       3.029   7.515  18.006  0.00  0.00    +0.000 C 
ATOM     14  C   UNL     1       2.130   7.769  18.974  0.00  0.00    +0.000 C 
BRANCH  14  15
ATOM     15  C   UNL     1       1.510   9.087  19.252  0.00  0.00    +0.000 A 
ATOM     16  C   UNL     1       1.516  10.158  18.343  0.00  0.00    +0.000 A 
ATOM     17  C   UNL     1       0.930  11.372  18.706  0.00  0.00    +0.000 A 
ATOM     18  N   UNL     1       0.357  11.529  19.936  0.00  0.00    +0.000 N 
ATOM     19  C   UNL     1      -0.232  12.814  20.319  0.00  0.00    +0.000 C 
ATOM     20  C   UNL     1       0.329  10.499  20.829  0.00  0.00    +0.000 A 
ATOM     21  C   UNL     1       0.898   9.269  20.502  0.00  0.00    +0.000 A 
ENDBRANCH  14  15
ENDBRANCH   9  13
TORSDOF 2
ENDMDL
