MODEL 1
REMARK VINA RESULT:      -8.1      0.000      0.000
REMARK  Name = 
REMARK  1 active torsions:
REMARK  status: ('A' for Active; 'I' for Inactive)
REMARK    1  A    between atoms: C_10  and  C_11
REMARK                            x       y       z     vdW  Elec       q    Type
REMARK                         _______ _______ _______ _____ _____    ______ ____
ROOT
ATOM      1  N   UNL     1       1.270   7.438  21.539  0.00  0.00    +0.000 N 
ATOM      2  C   UNL     1       1.908   6.526  20.670  0.00  0.00    +0.000 A 
ATOM      3  N   UNL     1       2.681   6.943  19.636  0.00  0.00    +0.000 NA
ATOM      4  C   UNL     1       3.114   5.867  18.966  0.00  0.00    +0.000 A 
ATOM      5  C   UNL     1       2.737   4.648  19.393  0.00  0.00    +0.000 A 
ATOM      6  S   UNL     1       1.769   4.816  20.755  0.00  0.00    +0.000 S 
ATOM      7  C   UNL     1       3.270   3.550  18.514  0.00  0.00    +0.000 C 
ATOM      8  C   UNL     1       3.993   4.403  17.478  0.00  0.00    +0.000 A 
ATOM      9  C   UNL     1       4.675   4.002  16.324  0.00  0.00    +0.000 A 
ATOM     10  C   UNL     1       5.284   4.996  15.507  0.00  0.00    +0.000 A 
ATOM     11  C   UNL     1       5.181   6.361  15.885  0.00  0.00    +0.000 A 
ATOM     12  C   UNL     1       4.477   6.743  17.026  0.00  0.00    +0.000 A 
ATOM     13  C   UNL     1       3.899   5.749  17.789  0.00  0.00    +0.000 A 
ATOM     14  H   UNL     1       1.401   8.451  21.402  0.00  0.00    +0.000 HD
ATOM     15  H   UNL     1       0.645   7.110  22.288  0.00  0.00    +0.000 HD
ENDROOT
BRANCH  10  16
ATOM     16  C   UNL     1       6.009   4.639  14.254  0.00  0.00    +0.000 A 
ATOM     17  C   UNL     1       7.172   5.334  13.867  0.00  0.00    +0.000 A 
ATOM     18  C   UNL     1       7.867   4.966  12.709  0.00  0.00    +0.000 A 
ATOM     19  C   UNL     1       7.397   3.919  11.911  0.00  0.00    +0.000 A 
ATOM     20  C   UNL     1       6.238   3.232  12.273  0.00  0.00    +0.000 A 
ATOM     21 CL   UNL     1       5.633   1.931  11.264  0.00  0.00    +0.000 Cl
ATOM     22  C   UNL     1       5.555   3.581  13.439  0.00  0.00    +0.000 A 
ENDBRANCH  10  16
TORSDOF 1
ENDMDL
MODEL 2
REMARK VINA RESULT:      -7.9      5.079      7.906
REMARK  Name = 
REMARK  1 active torsions:
REMARK  status: ('A' for Active; 'I' for Inactive)
REMARK    1  A    between atoms: C_10  and  C_11
REMARK                            x       y       z     vdW  Elec       q    Type
REMARK                         _______ _______ _______ _____ _____    ______ ____
ROOT
ATOM      1  N   UNL     1       4.919   2.382  19.727  0.00  0.00    +0.000 N 
ATOM      2  C   UNL     1       4.635   3.639  19.149  0.00  0.00    +0.000 A 
ATOM      3  N   UNL     1       3.796   4.526  19.742  0.00  0.00    +0.000 NA
ATOM      4  C   UNL     1       3.685   5.602  18.950  0.00  0.00    +0.000 A 
ATOM      5  C   UNL     1       4.366   5.621  17.790  0.00  0.00    +0.000 A 
ATOM      6  S   UNL     1       5.246   4.197  17.644  0.00  0.00    +0.000 S 
ATOM      7  C   UNL     1       4.105   6.873  17.000  0.00  0.00    +0.000 C 
ATOM      8  C   UNL     1       3.103   7.540  17.935  0.00  0.00    +0.000 A 
ATOM      9  C   UNL     1       2.404   8.742  17.769  0.00  0.00    +0.000 A 
ATOM     10  C   UNL     1       1.517   9.167  18.799  0.00  0.00    +0.000 A 
ATOM     11  C   UNL     1       1.367   8.361  19.959  0.00  0.00    +0.000 A 
ATOM     12  C   UNL     1       2.053   7.156  20.094  0.00  0.00    +0.000 A 
ATOM     13  C   UNL     1       2.901   6.778  19.073  0.00  0.00    +0.000 A 
ATOM     14  H   UNL     1       4.495   2.128  20.631  0.00  0.00    +0.000 HD
ATOM     15  H   UNL     1       5.516   1.699  19.244  0.00  0.00    +0.000 HD
ENDROOT
BRANCH  10  16
ATOM     16  C   UNL     1       0.728  10.426  18.678  0.00  0.00    +0.000 A 
ATOM     17  C   UNL     1       1.345  11.684  18.821  0.00  0.00    +0.000 A 
ATOM     18  C   UNL     1       0.602  12.861  18.667  0.00  0.00    +0.000 A 
ATOM     19  C   UNL     1      -0.766  12.796  18.394  0.00  0.00    +0.000 A 
ATOM     20  C   UNL     1      -1.395  11.557  18.264  0.00  0.00    +0.000 A 
ATOM     21 CL   UNL     1      -3.117  11.471  17.939  0.00  0.00    +0.000 Cl
ATOM     22  C   UNL     1      -0.653  10.381  18.394  0.00  0.00    +0.000 A 
ENDBRANCH  10  16
TORSDOF 1
ENDMDL
MODEL 3
REMARK VINA RESULT:      -7.8      2.440      3.809
REMARK  Name = 
REMARK  1 active torsions:
REMARK  status: ('A' for Active; 'I' for Inactive)
REMARK    1  A    between atoms: C_10  and  C_11
REMARK                            x       y       z     vdW  Elec       q    Type
REMARK                         _______ _______ _______ _____ _____    ______ ____
ROOT
ATOM      1  N   UNL     1      -0.741   9.343  22.973  0.00  0.00    +0.000 N 
ATOM      2  C   UNL     1      -0.039   9.151  21.763  0.00  0.00    +0.000 A 
ATOM      3  N   UNL     1       0.752   8.067  21.559  0.00  0.00    +0.000 NA
ATOM      4  C   UNL     1       1.319   8.175  20.350  0.00  0.00    +0.000 A 
ATOM      5  C   UNL     1       1.036   9.255  19.600  0.00  0.00    +0.000 A 
ATOM      6  S   UNL     1      -0.039  10.240  20.435  0.00  0.00    +0.000 S 
ATOM      7  C   UNL     1       1.779   9.249  18.292  0.00  0.00    +0.000 C 
ATOM      8  C   UNL     1       2.573   7.960  18.477  0.00  0.00    +0.000 A 
ATOM      9  C   UNL     1       3.527   7.382  17.630  0.00  0.00    +0.000 A 
ATOM     10  C   UNL     1       4.134   6.155  18.020  0.00  0.00    +0.000 A 
ATOM     11  C   UNL     1       3.758   5.556  19.252  0.00  0.00    +0.000 A 
ATOM     12  C   UNL     1       2.824   6.161  20.092  0.00  0.00    +0.000 A 
ATOM     13  C   UNL     1       2.260   7.351  19.679  0.00  0.00    +0.000 A 
ATOM     14  H   UNL     1      -0.670   8.640  23.722  0.00  0.00    +0.000 HD
ATOM     15  H   UNL     1      -1.297  10.194  23.135  0.00  0.00    +0.000 HD
ENDROOT
BRANCH  10  16
ATOM     16  C   UNL     1       5.171   5.495  17.176  0.00  0.00    +0.000 A 
ATOM     17  C   UNL     1       6.469   5.261  17.673  0.00  0.00    +0.000 A 
ATOM     18  C   UNL     1       7.422   4.606  16.885  0.00  0.00    +0.000 A 
ATOM     19  C   UNL     1       7.102   4.199  15.588  0.00  0.00    +0.000 A 
ATOM     20  C   UNL     1       5.826   4.437  15.077  0.00  0.00    +0.000 A 
ATOM     21 CL   UNL     1       5.425   3.945  13.441  0.00  0.00    +0.000 Cl
ATOM     22  C   UNL     1       4.864   5.069  15.867  0.00  0.00    +0.000 A 
ENDBRANCH  10  16
TORSDOF 1
ENDMDL
MODEL 4
REMARK VINA RESULT:      -7.8      4.921      8.809
REMARK  Name = 
REMARK  1 active torsions:
REMARK  status: ('A' for Active; 'I' for Inactive)
REMARK    1  A    between atoms: C_10  and  C_11
REMARK                            x       y       z     vdW  Elec       q    Type
REMARK                         _______ _______ _______ _____ _____    ______ ____
ROOT
ATOM      1  N   UNL     1       5.464   3.619  16.397  0.00  0.00    +0.000 N 
ATOM      2  C   UNL     1       4.597   4.069  17.417  0.00  0.00    +0.000 A 
ATOM      3  N   UNL     1       4.061   5.316  17.402  0.00  0.00    +0.000 NA
ATOM      4  C   UNL     1       3.322   5.475  18.509  0.00  0.00    +0.000 A 
ATOM      5  C   UNL     1       3.243   4.455  19.383  0.00  0.00    +0.000 A 
ATOM      6  S   UNL     1       4.145   3.162  18.803  0.00  0.00    +0.000 S 
ATOM      7  C   UNL     1       2.413   4.804  20.587  0.00  0.00    +0.000 C 
ATOM      8  C   UNL     1       2.072   6.246  20.231  0.00  0.00    +0.000 A 
ATOM      9  C   UNL     1       1.350   7.191  20.971  0.00  0.00    +0.000 A 
ATOM     10  C   UNL     1       1.152   8.488  20.418  0.00  0.00    +0.000 A 
ATOM     11  C   UNL     1       1.693   8.785  19.138  0.00  0.00    +0.000 A 
ATOM     12  C   UNL     1       2.430   7.838  18.429  0.00  0.00    +0.000 A 
ATOM     13  C   UNL     1       2.600   6.593  19.000  0.00  0.00    +0.000 A 
ATOM     14  H   UNL     1       5.690   4.241  15.607  0.00  0.00    +0.000 HD
ATOM     15  H   UNL     1       5.904   2.691  16.446  0.00  0.00    +0.000 HD
ENDROOT
BRANCH  10  16
ATOM     16  C   UNL     1       0.410   9.547  21.160  0.00  0.00    +0.000 A 
ATOM     17  C   UNL     1      -0.139   9.292  22.431  0.00  0.00    +0.000 A 
ATOM     18  C   UNL     1      -0.801  10.304  23.136  0.00  0.00    +0.000 A 
ATOM     19  C   UNL     1      -0.943  11.574  22.571  0.00  0.00    +0.000 A 
ATOM     20  C   UNL     1      -0.417  11.839  21.306  0.00  0.00    +0.000 A 
ATOM     21 CL   UNL     1      -0.611  13.426  20.585  0.00  0.00    +0.000 Cl
ATOM     22  C   UNL     1       0.263  10.838  20.610  0.00  0.00    +0.000 A 
ENDBRANCH  10  16
TORSDOF 1
ENDMDL
MODEL 5
REMARK VINA RESULT:      -7.8      4.097      5.958
REMARK  Name = 
REMARK  1 active torsions:
REMARK  status: ('A' for Active; 'I' for Inactive)
REMARK    1  A    between atoms: C_10  and  C_11
REMARK                            x       y       z     vdW  Elec       q    Type
REMARK                         _______ _______ _______ _____ _____    ______ ____
ROOT
ATOM      1  N   UNL     1      -1.957  13.628  20.762  0.00  0.00    +0.000 N 
ATOM      2  C   UNL     1      -1.174  12.459  20.888  0.00  0.00    +0.000 A 
ATOM      3  N   UNL     1      -0.516  11.921  19.830  0.00  0.00    +0.000 NA
ATOM      4  C   UNL     1       0.101  10.802  20.236  0.00  0.00    +0.000 A 
ATOM      5  C   UNL     1      -0.028  10.426  21.521  0.00  0.00    +0.000 A 
ATOM      6  S   UNL     1      -0.982  11.547  22.331  0.00  0.00    +0.000 S 
ATOM      7  C   UNL     1       0.686   9.134  21.808  0.00  0.00    +0.000 C 
ATOM      8  C   UNL     1       1.212   8.838  20.408  0.00  0.00    +0.000 A 
ATOM      9  C   UNL     1       1.934   7.728  19.953  0.00  0.00    +0.000 A 
ATOM     10  C   UNL     1       2.326   7.679  18.585  0.00  0.00    +0.000 A 
ATOM     11  C   UNL     1       1.972   8.753  17.725  0.00  0.00    +0.000 A 
ATOM     12  C   UNL     1       1.231   9.838  18.192  0.00  0.00    +0.000 A 
ATOM     13  C   UNL     1       0.869   9.846  19.524  0.00  0.00    +0.000 A 
ATOM     14  H   UNL     1      -2.024  14.102  19.850  0.00  0.00    +0.000 HD
ATOM     15  H   UNL     1      -2.492  13.997  21.560  0.00  0.00    +0.000 HD
ENDROOT
BRANCH  10  16
ATOM     16  C   UNL     1       3.080   6.519  18.030  0.00  0.00    +0.000 A 
ATOM     17  C   UNL     1       4.386   6.677  17.526  0.00  0.00    +0.000 A 
ATOM     18  C   UNL     1       5.099   5.574  17.043  0.00  0.00    +0.000 A 
ATOM     19  C   UNL     1       4.510   4.307  17.033  0.00  0.00    +0.000 A 
ATOM     20  C   UNL     1       3.212   4.137  17.515  0.00  0.00    +0.000 A 
ATOM     21 CL   UNL     1       2.462   2.551  17.486  0.00  0.00    +0.000 Cl
ATOM     22  C   UNL     1       2.506   5.231  18.019  0.00  0.00    +0.000 A 
ENDBRANCH  10  16
TORSDOF 1
ENDMDL
MODEL 6
REMARK VINA RESULT:      -7.8      4.993      8.803
REMARK  Name = 
REMARK  1 active torsions:
REMARK  status: ('A' for Active; 'I' for Inactive)
REMARK    1  A    between atoms: C_10  and  C_11
REMARK                            x       y       z     vdW  Elec       q    Type
REMARK                         _______ _______ _______ _____ _____    ______ ____
ROOT
ATOM      1  N   UNL     1       6.185   5.506  14.935  0.00  0.00    +0.000 N 
ATOM      2  C   UNL     1       5.378   5.618  16.089  0.00  0.00    +0.000 A 
ATOM      3  N   UNL     1       4.552   6.677  16.284  0.00  0.00    +0.000 NA
ATOM      4  C   UNL     1       3.951   6.535  17.473  0.00  0.00    +0.000 A 
ATOM      5  C   UNL     1       4.245   5.454  18.218  0.00  0.00    +0.000 A 
ATOM      6  S   UNL     1       5.354   4.500  17.392  0.00  0.00    +0.000 S 
ATOM      7  C   UNL     1       3.522   5.461  19.537  0.00  0.00    +0.000 C 
ATOM      8  C   UNL     1       2.789   6.791  19.400  0.00  0.00    +0.000 A 
ATOM      9  C   UNL     1       1.961   7.441  20.322  0.00  0.00    +0.000 A 
ATOM     10  C   UNL     1       1.376   8.687  19.957  0.00  0.00    +0.000 A 
ATOM     11  C   UNL     1       1.651   9.232  18.674  0.00  0.00    +0.000 A 
ATOM     12  C   UNL     1       2.498   8.580  17.780  0.00  0.00    +0.000 A 
ATOM     13  C   UNL     1       3.046   7.376  18.172  0.00  0.00    +0.000 A 
ATOM     14  H   UNL     1       6.142   6.236  14.209  0.00  0.00    +0.000 HD
ATOM     15  H   UNL     1       6.845   4.725  14.823  0.00  0.00    +0.000 HD
ENDROOT
BRANCH  10  16
ATOM     16  C   UNL     1       0.500   9.443  20.898  0.00  0.00    +0.000 A 
ATOM     17  C   UNL     1       0.429   9.093  22.261  0.00  0.00    +0.000 A 
ATOM     18  C   UNL     1      -0.367   9.833  23.143  0.00  0.00    +0.000 A 
ATOM     19  C   UNL     1      -1.119  10.913  22.673  0.00  0.00    +0.000 A 
ATOM     20  C   UNL     1      -1.070  11.263  21.323  0.00  0.00    +0.000 A 
ATOM     21 CL   UNL     1      -2.027  12.606  20.724  0.00  0.00    +0.000 Cl
ATOM     22  C   UNL     1      -0.260  10.541  20.444  0.00  0.00    +0.000 A 
ENDBRANCH  10  16
TORSDOF 1
ENDMDL
MODEL 7
REMARK VINA RESULT:      -7.7      5.127      7.996
REMARK  Name = 
REMARK  1 active torsions:
REMARK  status: ('A' for Active; 'I' for Inactive)
REMARK    1  A    between atoms: C_10  and  C_11
REMARK                            x       y       z     vdW  Elec       q    Type
REMARK                         _______ _______ _______ _____ _____    ______ ____
ROOT
ATOM      1  N   UNL     1       4.845   2.278  19.707  0.00  0.00    +0.000 N 
ATOM      2  C   UNL     1       4.595   3.547  19.140  0.00  0.00    +0.000 A 
ATOM      3  N   UNL     1       3.756   4.440  19.724  0.00  0.00    +0.000 NA
ATOM      4  C   UNL     1       3.681   5.527  18.945  0.00  0.00    +0.000 A 
ATOM      5  C   UNL     1       4.390   5.550  17.802  0.00  0.00    +0.000 A 
ATOM      6  S   UNL     1       5.250   4.114  17.657  0.00  0.00    +0.000 S 
ATOM      7  C   UNL     1       4.169   6.817  17.022  0.00  0.00    +0.000 C 
ATOM      8  C   UNL     1       3.155   7.488  17.943  0.00  0.00    +0.000 A 
ATOM      9  C   UNL     1       2.480   8.703  17.776  0.00  0.00    +0.000 A 
ATOM     10  C   UNL     1       1.576   9.129  18.790  0.00  0.00    +0.000 A 
ATOM     11  C   UNL     1       1.385   8.311  19.935  0.00  0.00    +0.000 A 
ATOM     12  C   UNL     1       2.048   7.093  20.071  0.00  0.00    +0.000 A 
ATOM     13  C   UNL     1       2.914   6.715  19.065  0.00  0.00    +0.000 A 
ATOM     14  H   UNL     1       4.395   2.019  20.597  0.00  0.00    +0.000 HD
ATOM     15  H   UNL     1       5.442   1.591  19.229  0.00  0.00    +0.000 HD
ENDROOT
BRANCH  10  16
ATOM     16  C   UNL     1       0.810  10.402  18.667  0.00  0.00    +0.000 A 
ATOM     17  C   UNL     1      -0.591  10.394  18.517  0.00  0.00    +0.000 A 
ATOM     18  C   UNL     1      -1.304  11.595  18.442  0.00  0.00    +0.000 A 
ATOM     19  C   UNL     1      -0.629  12.817  18.490  0.00  0.00    +0.000 A 
ATOM     20  C   UNL     1       0.760  12.842  18.624  0.00  0.00    +0.000 A 
ATOM     21 CL   UNL     1       1.615  14.374  18.665  0.00  0.00    +0.000 Cl
ATOM     22  C   UNL     1       1.473  11.646  18.722  0.00  0.00    +0.000 A 
ENDBRANCH  10  16
TORSDOF 1
ENDMDL
MODEL 8
REMARK VINA RESULT:      -7.7      3.557      5.395
REMARK  Name = 
REMARK  1 active torsions:
REMARK  status: ('A' for Active; 'I' for Inactive)
REMARK    1  A    between atoms: C_10  and  C_11
REMARK                            x       y       z     vdW  Elec       q    Type
REMARK                         _______ _______ _______ _____ _____    ______ ____
ROOT
ATOM      1  N   UNL     1      -1.302  13.268  20.510  0.00  0.00    +0.000 N 
ATOM      2  C   UNL     1      -0.602  12.049  20.643  0.00  0.00    +0.000 A 
ATOM      3  N   UNL     1       0.082  11.500  19.607  0.00  0.00    +0.000 NA
ATOM      4  C   UNL     1       0.605  10.334  20.012  0.00  0.00    +0.000 A 
ATOM      5  C   UNL     1       0.380   9.932  21.276  0.00  0.00    +0.000 A 
ATOM      6  S   UNL     1      -0.549  11.088  22.065  0.00  0.00    +0.000 S 
ATOM      7  C   UNL     1       0.996   8.590  21.562  0.00  0.00    +0.000 C 
ATOM      8  C   UNL     1       1.581   8.299  20.185  0.00  0.00    +0.000 A 
ATOM      9  C   UNL     1       2.259   7.159  19.737  0.00  0.00    +0.000 A 
ATOM     10  C   UNL     1       2.725   7.123  18.392  0.00  0.00    +0.000 A 
ATOM     11  C   UNL     1       2.488   8.240  17.547  0.00  0.00    +0.000 A 
ATOM     12  C   UNL     1       1.789   9.356  18.005  0.00  0.00    +0.000 A 
ATOM     13  C   UNL     1       1.353   9.350  19.314  0.00  0.00    +0.000 A 
ATOM     14  H   UNL     1      -1.287  13.770  19.610  0.00  0.00    +0.000 HD
ATOM     15  H   UNL     1      -1.858  13.648  21.287  0.00  0.00    +0.000 HD
ENDROOT
BRANCH  10  16
ATOM     16  C   UNL     1       3.437   5.933  17.844  0.00  0.00    +0.000 A 
ATOM     17  C   UNL     1       3.067   4.628  18.227  0.00  0.00    +0.000 A 
ATOM     18  C   UNL     1       3.716   3.516  17.677  0.00  0.00    +0.000 A 
ATOM     19  C   UNL     1       4.755   3.693  16.761  0.00  0.00    +0.000 A 
ATOM     20  C   UNL     1       5.143   4.979  16.383  0.00  0.00    +0.000 A 
ATOM     21 CL   UNL     1       6.461   5.205  15.248  0.00  0.00    +0.000 Cl
ATOM     22  C   UNL     1       4.483   6.090  16.912  0.00  0.00    +0.000 A 
ENDBRANCH  10  16
TORSDOF 1
ENDMDL
MODEL 9
REMARK VINA RESULT:      -7.7      3.759      5.679
REMARK  Name = 
REMARK  1 active torsions:
REMARK  status: ('A' for Active; 'I' for Inactive)
REMARK    1  A    between atoms: C_10  and  C_11
REMARK                            x       y       z     vdW  Elec       q    Type
REMARK                         _______ _______ _______ _____ _____    ______ ____
ROOT
ATOM      1  N   UNL     1      -1.154  12.209  23.077  0.00  0.00    +0.000 N 
ATOM      2  C   UNL     1      -0.621  11.635  21.902  0.00  0.00    +0.000 A 
ATOM      3  N   UNL     1      -0.071  10.394  21.898  0.00  0.00    +0.000 NA
ATOM      4  C   UNL     1       0.386  10.134  20.666  0.00  0.00    +0.000 A 
ATOM      5  C   UNL     1       0.238  11.073  19.713  0.00  0.00    +0.000 A 
ATOM      6  S   UNL     1      -0.547  12.405  20.370  0.00  0.00    +0.000 S 
ATOM      7  C   UNL     1       0.836  10.648  18.401  0.00  0.00    +0.000 C 
ATOM      8  C   UNL     1       1.388   9.290  18.820  0.00  0.00    +0.000 A 
ATOM      9  C   UNL     1       2.129   8.368  18.070  0.00  0.00    +0.000 A 
ATOM     10  C   UNL     1       2.531   7.149  18.686  0.00  0.00    +0.000 A 
ATOM     11  C   UNL     1       2.170   6.905  20.038  0.00  0.00    +0.000 A 
ATOM     12  C   UNL     1       1.453   7.846  20.775  0.00  0.00    +0.000 A 
ATOM     13  C   UNL     1       1.085   9.016  20.142  0.00  0.00    +0.000 A 
ATOM     14  H   UNL     1      -1.143  11.674  23.958  0.00  0.00    +0.000 HD
ATOM     15  H   UNL     1      -1.522  13.170  23.079  0.00  0.00    +0.000 HD
ENDROOT
BRANCH  10  16
ATOM     16  C   UNL     1       3.338   6.133  17.951  0.00  0.00    +0.000 A 
ATOM     17  C   UNL     1       4.353   6.523  17.056  0.00  0.00    +0.000 A 
ATOM     18  C   UNL     1       5.131   5.561  16.402  0.00  0.00    +0.000 A 
ATOM     19  C   UNL     1       4.889   4.201  16.612  0.00  0.00    +0.000 A 
ATOM     20  C   UNL     1       3.877   3.799  17.484  0.00  0.00    +0.000 A 
ATOM     21 CL   UNL     1       3.557   2.093  17.736  0.00  0.00    +0.000 Cl
ATOM     22  C   UNL     1       3.114   4.756  18.156  0.00  0.00    +0.000 A 
ENDBRANCH  10  16
TORSDOF 1
ENDMDL
