MODEL 1
REMARK VINA RESULT:      -7.6      0.000      0.000
REMARK  Name = 
REMARK  6 active torsions:
REMARK  status: ('A' for Active; 'I' for Inactive)
REMARK    1  A    between atoms: N_3  and  C_4
REMARK    2  A    between atoms: C_4  and  C_5
REMARK    3  A    between atoms: C_16  and  C_17
REMARK    4  A    between atoms: C_19  and  O_20
REMARK    5  A    between atoms: C_21  and  C_22
REMARK    6  A    between atoms: C_22  and  O_23
REMARK                            x       y       z     vdW  Elec       q    Type
REMARK                         _______ _______ _______ _____ _____    ______ ____
ROOT
ATOM      1  O   UNL     1      -0.566   9.846  21.831  0.00  0.00    +0.000 OA
ATOM      2  C   UNL     1       0.009   9.566  20.780  0.00  0.00    +0.000 C 
ATOM      3  N   UNL     1      -0.257  10.186  19.600  0.00  0.00    +0.000 N 
ATOM      4  N   UNL     1       0.912   8.551  20.779  0.00  0.00    +0.000 N 
ATOM      5  C   UNL     1       1.644   8.131  19.709  0.00  0.00    +0.000 A 
ATOM      6  N   UNL     1       1.765   8.675  18.522  0.00  0.00    +0.000 NA
ATOM      7  N   UNL     1       2.575   7.922  17.698  0.00  0.00    +0.000 NA
ATOM      8  C   UNL     1       3.016   6.825  18.290  0.00  0.00    +0.000 A 
ATOM      9  S   UNL     1       2.493   6.673  19.928  0.00  0.00    +0.000 S 
ATOM     10  H   UNL     1       0.269   9.916  18.776  0.00  0.00    +0.000 HD
ATOM     11  H   UNL     1       0.996   8.044  21.646  0.00  0.00    +0.000 HD
ENDROOT
BRANCH   8  12
ATOM     12  C   UNL     1       3.824   5.769  17.597  0.00  0.00    +0.000 C 
ATOM     13  C   UNL     1       5.198   5.563  18.218  0.00  0.00    +0.000 C 
ATOM     14  C   UNL     1       5.489   4.116  17.897  0.00  0.00    +0.000 C 
ATOM     15  C   UNL     1       4.113   3.461  17.968  0.00  0.00    +0.000 C 
ATOM     16  O   UNL     1       3.148   4.494  17.652  0.00  0.00    +0.000 OA
BRANCH  14  17
ATOM     17  O   UNL     1       6.045   4.036  16.586  0.00  0.00    +0.000 OA
ATOM     18  H   UNL     1       5.589   3.335  16.080  0.00  0.00    +0.000 HD
ENDBRANCH  14  17
BRANCH  15  19
ATOM     19  C   UNL     1       3.788   2.922  19.363  0.00  0.00    +0.000 C 
BRANCH  19  20
ATOM     20  O   UNL     1       4.930   2.260  19.908  0.00  0.00    +0.000 OA
ATOM     21  H   UNL     1       4.958   1.378  19.491  0.00  0.00    +0.000 HD
ENDBRANCH  19  20
ENDBRANCH  15  19
ENDBRANCH   8  12
BRANCH   3  22
ATOM     22  C   UNL     1      -1.332  11.137  19.440  0.00  0.00    +0.000 C 
BRANCH  22  23
ATOM     23  C   UNL     1      -2.099  10.893  18.166  0.00  0.00    +0.000 A 
ATOM     24  C   UNL     1      -1.596  10.025  17.181  0.00  0.00    +0.000 A 
ATOM     25  C   UNL     1      -2.327   9.786  16.016  0.00  0.00    +0.000 A 
ATOM     26  C   UNL     1      -3.555  10.413  15.836  0.00  0.00    +0.000 A 
ATOM     27  F   UNL     1      -4.255  10.179  14.717  0.00  0.00    +0.000 F 
ATOM     28  C   UNL     1      -4.066  11.275  16.797  0.00  0.00    +0.000 A 
ATOM     29  C   UNL     1      -3.340  11.515  17.961  0.00  0.00    +0.000 A 
ENDBRANCH  22  23
ENDBRANCH   3  22
TORSDOF 6
ENDMDL
MODEL 2
REMARK VINA RESULT:      -7.6      1.473      2.021
REMARK  Name = 
REMARK  6 active torsions:
REMARK  status: ('A' for Active; 'I' for Inactive)
REMARK    1  A    between atoms: N_3  and  C_4
REMARK    2  A    between atoms: C_4  and  C_5
REMARK    3  A    between atoms: C_16  and  C_17
REMARK    4  A    between atoms: C_19  and  O_20
REMARK    5  A    between atoms: C_21  and  C_22
REMARK    6  A    between atoms: C_22  and  O_23
REMARK                            x       y       z     vdW  Elec       q    Type
REMARK                         _______ _______ _______ _____ _____    ______ ____
ROOT
ATOM      1  O   UNL     1       0.240   8.852  22.128  0.00  0.00    +0.000 OA
ATOM      2  C   UNL     1       0.817   8.777  21.044  0.00  0.00    +0.000 C 
ATOM      3  N   UNL     1       0.684   9.711  20.066  0.00  0.00    +0.000 N 
ATOM      4  N   UNL     1       1.581   7.684  20.784  0.00  0.00    +0.000 N 
ATOM      5  C   UNL     1       2.297   7.458  19.647  0.00  0.00    +0.000 A 
ATOM      6  N   UNL     1       2.537   8.269  18.644  0.00  0.00    +0.000 NA
ATOM      7  N   UNL     1       3.277   7.650  17.658  0.00  0.00    +0.000 NA
ATOM      8  C   UNL     1       3.547   6.389  17.945  0.00  0.00    +0.000 A 
ATOM      9  S   UNL     1       2.940   5.892  19.483  0.00  0.00    +0.000 S 
ATOM     10  H   UNL     1       1.205   9.593  19.204  0.00  0.00    +0.000 HD
ATOM     11  H   UNL     1       1.562   6.964  21.489  0.00  0.00    +0.000 HD
ENDROOT
BRANCH   8  12
ATOM     12  C   UNL     1       4.240   5.448  17.006  0.00  0.00    +0.000 C 
ATOM     13  C   UNL     1       5.161   6.154  16.022  0.00  0.00    +0.000 C 
ATOM     14  C   UNL     1       6.204   5.100  15.733  0.00  0.00    +0.000 C 
ATOM     15  C   UNL     1       6.332   4.366  17.065  0.00  0.00    +0.000 C 
ATOM     16  O   UNL     1       5.059   4.510  17.740  0.00  0.00    +0.000 OA
BRANCH  14  17
ATOM     17  O   UNL     1       5.722   4.241  14.701  0.00  0.00    +0.000 OA
ATOM     18  H   UNL     1       4.873   4.585  14.361  0.00  0.00    +0.000 HD
ENDBRANCH  14  17
BRANCH  15  19
ATOM     19  C   UNL     1       7.414   4.966  17.967  0.00  0.00    +0.000 C 
BRANCH  19  20
ATOM     20  O   UNL     1       6.931   5.065  19.307  0.00  0.00    +0.000 OA
ATOM     21  H   UNL     1       6.432   4.244  19.478  0.00  0.00    +0.000 HD
ENDBRANCH  19  20
ENDBRANCH  15  19
ENDBRANCH   8  12
BRANCH   3  22
ATOM     22  C   UNL     1      -0.251  10.808  20.151  0.00  0.00    +0.000 C 
BRANCH  22  23
ATOM     23  C   UNL     1      -1.261  10.761  19.034  0.00  0.00    +0.000 A 
ATOM     24  C   UNL     1      -2.409  11.571  19.071  0.00  0.00    +0.000 A 
ATOM     25  C   UNL     1      -3.325  11.539  18.018  0.00  0.00    +0.000 A 
ATOM     26  C   UNL     1      -3.095  10.700  16.934  0.00  0.00    +0.000 A 
ATOM     27  F   UNL     1      -3.976  10.674  15.923  0.00  0.00    +0.000 F 
ATOM     28  C   UNL     1      -1.967   9.892  16.881  0.00  0.00    +0.000 A 
ATOM     29  C   UNL     1      -1.051   9.921  17.929  0.00  0.00    +0.000 A 
ENDBRANCH  22  23
ENDBRANCH   3  22
TORSDOF 6
ENDMDL
MODEL 3
REMARK VINA RESULT:      -7.5      1.557      2.124
REMARK  Name = 
REMARK  6 active torsions:
REMARK  status: ('A' for Active; 'I' for Inactive)
REMARK    1  A    between atoms: N_3  and  C_4
REMARK    2  A    between atoms: C_4  and  C_5
REMARK    3  A    between atoms: C_16  and  C_17
REMARK    4  A    between atoms: C_19  and  O_20
REMARK    5  A    between atoms: C_21  and  C_22
REMARK    6  A    between atoms: C_22  and  O_23
REMARK                            x       y       z     vdW  Elec       q    Type
REMARK                         _______ _______ _______ _____ _____    ______ ____
ROOT
ATOM      1  O   UNL     1       0.598  10.199  22.179  0.00  0.00    +0.000 OA
ATOM      2  C   UNL     1       0.957   9.652  21.138  0.00  0.00    +0.000 C 
ATOM      3  N   UNL     1       0.819  10.224  19.913  0.00  0.00    +0.000 N 
ATOM      4  N   UNL     1       1.465   8.393  21.201  0.00  0.00    +0.000 N 
ATOM      5  C   UNL     1       1.922   7.659  20.148  0.00  0.00    +0.000 A 
ATOM      6  N   UNL     1       2.121   8.028  18.905  0.00  0.00    +0.000 NA
ATOM      7  N   UNL     1       2.560   6.976  18.128  0.00  0.00    +0.000 NA
ATOM      8  C   UNL     1       2.654   5.849  18.811  0.00  0.00    +0.000 A 
ATOM      9  S   UNL     1       2.247   6.023  20.480  0.00  0.00    +0.000 S 
ATOM     10  H   UNL     1       1.155   9.722  19.098  0.00  0.00    +0.000 HD
ATOM     11  H   UNL     1       1.444   7.962  22.112  0.00  0.00    +0.000 HD
ENDROOT
BRANCH   8  12
ATOM     12  C   UNL     1       3.002   4.526  18.197  0.00  0.00    +0.000 C 
ATOM     13  C   UNL     1       4.004   3.729  19.017  0.00  0.00    +0.000 C 
ATOM     14  C   UNL     1       3.659   2.302  18.663  0.00  0.00    +0.000 C 
ATOM     15  C   UNL     1       2.146   2.348  18.473  0.00  0.00    +0.000 C 
ATOM     16  O   UNL     1       1.822   3.701  18.067  0.00  0.00    +0.000 OA
BRANCH  14  17
ATOM     17  O   UNL     1       4.332   1.949  17.456  0.00  0.00    +0.000 OA
ATOM     18  H   UNL     1       3.959   2.460  16.712  0.00  0.00    +0.000 HD
ENDBRANCH  14  17
BRANCH  15  19
ATOM     19  C   UNL     1       1.380   2.048  19.764  0.00  0.00    +0.000 C 
BRANCH  19  20
ATOM     20  O   UNL     1       0.325   2.994  19.936  0.00  0.00    +0.000 OA
ATOM     21  H   UNL     1      -0.506   2.507  19.778  0.00  0.00    +0.000 HD
ENDBRANCH  19  20
ENDBRANCH  15  19
ENDBRANCH   8  12
BRANCH   3  22
ATOM     22  C   UNL     1       0.116  11.468  19.704  0.00  0.00    +0.000 C 
BRANCH  22  23
ATOM     23  C   UNL     1      -1.194  11.250  18.994  0.00  0.00    +0.000 A 
ATOM     24  C   UNL     1      -2.330  12.004  19.336  0.00  0.00    +0.000 A 
ATOM     25  C   UNL     1      -3.532  11.811  18.652  0.00  0.00    +0.000 A 
ATOM     26  C   UNL     1      -3.599  10.869  17.633  0.00  0.00    +0.000 A 
ATOM     27  F   UNL     1      -4.755  10.688  16.978  0.00  0.00    +0.000 F 
ATOM     28  C   UNL     1      -2.487  10.114  17.283  0.00  0.00    +0.000 A 
ATOM     29  C   UNL     1      -1.286  10.303  17.961  0.00  0.00    +0.000 A 
ENDBRANCH  22  23
ENDBRANCH   3  22
TORSDOF 6
ENDMDL
MODEL 4
REMARK VINA RESULT:      -7.4      1.054      1.098
REMARK  Name = 
REMARK  6 active torsions:
REMARK  status: ('A' for Active; 'I' for Inactive)
REMARK    1  A    between atoms: N_3  and  C_4
REMARK    2  A    between atoms: C_4  and  C_5
REMARK    3  A    between atoms: C_16  and  C_17
REMARK    4  A    between atoms: C_19  and  O_20
REMARK    5  A    between atoms: C_21  and  C_22
REMARK    6  A    between atoms: C_22  and  O_23
REMARK                            x       y       z     vdW  Elec       q    Type
REMARK                         _______ _______ _______ _____ _____    ______ ____
ROOT
ATOM      1  O   UNL     1       0.019   9.485  22.384  0.00  0.00    +0.000 OA
ATOM      2  C   UNL     1       0.493   9.228  21.279  0.00  0.00    +0.000 C 
ATOM      3  N   UNL     1       0.227   9.962  20.167  0.00  0.00    +0.000 N 
ATOM      4  N   UNL     1       1.275   8.125  21.144  0.00  0.00    +0.000 N 
ATOM      5  C   UNL     1       1.888   7.712  19.998  0.00  0.00    +0.000 A 
ATOM      6  N   UNL     1       1.996   8.330  18.847  0.00  0.00    +0.000 NA
ATOM      7  N   UNL     1       2.664   7.560  17.918  0.00  0.00    +0.000 NA
ATOM      8  C   UNL     1       3.014   6.380  18.399  0.00  0.00    +0.000 A 
ATOM      9  S   UNL     1       2.579   6.158  20.055  0.00  0.00    +0.000 S 
ATOM     10  H   UNL     1       0.668   9.702  19.292  0.00  0.00    +0.000 HD
ATOM     11  H   UNL     1       1.355   7.546  21.964  0.00  0.00    +0.000 HD
ENDROOT
BRANCH   8  12
ATOM     12  C   UNL     1       3.654   5.300  17.579  0.00  0.00    +0.000 C 
ATOM     13  C   UNL     1       4.892   4.705  18.234  0.00  0.00    +0.000 C 
ATOM     14  C   UNL     1       4.914   3.300  17.679  0.00  0.00    +0.000 C 
ATOM     15  C   UNL     1       3.433   2.955  17.551  0.00  0.00    +0.000 C 
ATOM     16  O   UNL     1       2.731   4.209  17.367  0.00  0.00    +0.000 OA
BRANCH  14  17
ATOM     17  O   UNL     1       5.564   3.314  16.409  0.00  0.00    +0.000 OA
ATOM     18  H   UNL     1       4.972   3.716  15.744  0.00  0.00    +0.000 HD
ENDBRANCH  14  17
BRANCH  15  19
ATOM     19  C   UNL     1       2.874   2.282  18.807  0.00  0.00    +0.000 C 
BRANCH  19  20
ATOM     20  O   UNL     1       1.603   1.697  18.522  0.00  0.00    +0.000 OA
ATOM     21  H   UNL     1       1.760   0.738  18.429  0.00  0.00    +0.000 HD
ENDBRANCH  19  20
ENDBRANCH  15  19
ENDBRANCH   8  12
BRANCH   3  22
ATOM     22  C   UNL     1      -0.741  11.033  20.149  0.00  0.00    +0.000 C 
BRANCH  22  23
ATOM     23  C   UNL     1      -1.641  10.943  18.944  0.00  0.00    +0.000 A 
ATOM     24  C   UNL     1      -1.310  10.108  17.862  0.00  0.00    +0.000 A 
ATOM     25  C   UNL     1      -2.164  10.013  16.762  0.00  0.00    +0.000 A 
ATOM     26  C   UNL     1      -3.343  10.749  16.743  0.00  0.00    +0.000 A 
ATOM     27  F   UNL     1      -4.162  10.653  15.685  0.00  0.00    +0.000 F 
ATOM     28  C   UNL     1      -3.685  11.580  17.801  0.00  0.00    +0.000 A 
ATOM     29  C   UNL     1      -2.837  11.677  18.900  0.00  0.00    +0.000 A 
ENDBRANCH  22  23
ENDBRANCH   3  22
TORSDOF 6
ENDMDL
MODEL 5
REMARK VINA RESULT:      -7.4      1.615      1.986
REMARK  Name = 
REMARK  6 active torsions:
REMARK  status: ('A' for Active; 'I' for Inactive)
REMARK    1  A    between atoms: N_3  and  C_4
REMARK    2  A    between atoms: C_4  and  C_5
REMARK    3  A    between atoms: C_16  and  C_17
REMARK    4  A    between atoms: C_19  and  O_20
REMARK    5  A    between atoms: C_21  and  C_22
REMARK    6  A    between atoms: C_22  and  O_23
REMARK                            x       y       z     vdW  Elec       q    Type
REMARK                         _______ _______ _______ _____ _____    ______ ____
ROOT
ATOM      1  O   UNL     1       0.568  10.479  21.552  0.00  0.00    +0.000 OA
ATOM      2  C   UNL     1       0.952   9.831  20.580  0.00  0.00    +0.000 C 
ATOM      3  N   UNL     1       0.874  10.290  19.304  0.00  0.00    +0.000 N 
ATOM      4  N   UNL     1       1.426   8.573  20.779  0.00  0.00    +0.000 N 
ATOM      5  C   UNL     1       1.905   7.735  19.816  0.00  0.00    +0.000 A 
ATOM      6  N   UNL     1       2.159   7.983  18.554  0.00  0.00    +0.000 NA
ATOM      7  N   UNL     1       2.601   6.855  17.894  0.00  0.00    +0.000 NA
ATOM      8  C   UNL     1       2.642   5.794  18.682  0.00  0.00    +0.000 A 
ATOM      9  S   UNL     1       2.178   6.130  20.310  0.00  0.00    +0.000 S 
ATOM     10  H   UNL     1       1.227   9.708  18.552  0.00  0.00    +0.000 HD
ATOM     11  H   UNL     1       1.362   8.229  21.724  0.00  0.00    +0.000 HD
ENDROOT
BRANCH   8  12
ATOM     12  C   UNL     1       2.980   4.413  18.205  0.00  0.00    +0.000 C 
ATOM     13  C   UNL     1       4.013   3.715  19.077  0.00  0.00    +0.000 C 
ATOM     14  C   UNL     1       3.667   2.256  18.892  0.00  0.00    +0.000 C 
ATOM     15  C   UNL     1       2.149   2.276  18.745  0.00  0.00    +0.000 C 
ATOM     16  O   UNL     1       1.803   3.574  18.204  0.00  0.00    +0.000 OA
BRANCH  14  17
ATOM     17  O   UNL     1       4.306   1.775  17.711  0.00  0.00    +0.000 OA
ATOM     18  H   UNL     1       3.635   1.402  17.106  0.00  0.00    +0.000 HD
ENDBRANCH  14  17
BRANCH  15  19
ATOM     19  C   UNL     1       1.425   2.116  20.084  0.00  0.00    +0.000 C 
BRANCH  19  20
ATOM     20  O   UNL     1       0.337   3.037  20.163  0.00  0.00    +0.000 OA
ATOM     21  H   UNL     1       0.687   3.835  20.604  0.00  0.00    +0.000 HD
ENDBRANCH  19  20
ENDBRANCH  15  19
ENDBRANCH   8  12
BRANCH   3  22
ATOM     22  C   UNL     1       0.210  11.524  18.954  0.00  0.00    +0.000 C 
BRANCH  22  23
ATOM     23  C   UNL     1      -1.226  11.286  18.563  0.00  0.00    +0.000 A 
ATOM     24  C   UNL     1      -1.565  10.253  17.673  0.00  0.00    +0.000 A 
ATOM     25  C   UNL     1      -2.902  10.026  17.338  0.00  0.00    +0.000 A 
ATOM     26  C   UNL     1      -3.893  10.828  17.891  0.00  0.00    +0.000 A 
ATOM     27  F   UNL     1      -5.176  10.605  17.569  0.00  0.00    +0.000 F 
ATOM     28  C   UNL     1      -3.576  11.854  18.771  0.00  0.00    +0.000 A 
ATOM     29  C   UNL     1      -2.245  12.084  19.108  0.00  0.00    +0.000 A 
ENDBRANCH  22  23
ENDBRANCH   3  22
TORSDOF 6
ENDMDL
MODEL 6
REMARK VINA RESULT:      -7.3      0.768      1.235
REMARK  Name = 
REMARK  6 active torsions:
REMARK  status: ('A' for Active; 'I' for Inactive)
REMARK    1  A    between atoms: N_3  and  C_4
REMARK    2  A    between atoms: C_4  and  C_5
REMARK    3  A    between atoms: C_16  and  C_17
REMARK    4  A    between atoms: C_19  and  O_20
REMARK    5  A    between atoms: C_21  and  C_22
REMARK    6  A    between atoms: C_22  and  O_23
REMARK                            x       y       z     vdW  Elec       q    Type
REMARK                         _______ _______ _______ _____ _____    ______ ____
ROOT
ATOM      1  O   UNL     1      -0.468   9.708  22.071  0.00  0.00    +0.000 OA
ATOM      2  C   UNL     1       0.113   9.466  21.014  0.00  0.00    +0.000 C 
ATOM      3  N   UNL     1      -0.090  10.178  19.875  0.00  0.00    +0.000 N 
ATOM      4  N   UNL     1       0.958   8.403  20.961  0.00  0.00    +0.000 N 
ATOM      5  C   UNL     1       1.688   8.013  19.878  0.00  0.00    +0.000 A 
ATOM      6  N   UNL     1       1.866   8.628  18.733  0.00  0.00    +0.000 NA
ATOM      7  N   UNL     1       2.651   7.886  17.875  0.00  0.00    +0.000 NA
ATOM      8  C   UNL     1       3.015   6.728  18.399  0.00  0.00    +0.000 A 
ATOM      9  S   UNL     1       2.448   6.497  20.013  0.00  0.00    +0.000 S 
ATOM     10  H   UNL     1       0.438   9.934  19.045  0.00  0.00    +0.000 HD
ATOM     11  H   UNL     1       0.994   7.834  21.792  0.00  0.00    +0.000 HD
ENDROOT
BRANCH   8  12
ATOM     12  C   UNL     1       3.777   5.676  17.650  0.00  0.00    +0.000 C 
ATOM     13  C   UNL     1       5.015   5.193  18.391  0.00  0.00    +0.000 C 
ATOM     14  C   UNL     1       5.170   3.778  17.884  0.00  0.00    +0.000 C 
ATOM     15  C   UNL     1       3.728   3.321  17.686  0.00  0.00    +0.000 C 
ATOM     16  O   UNL     1       2.949   4.513  17.424  0.00  0.00    +0.000 OA
BRANCH  14  17
ATOM     17  O   UNL     1       5.889   3.804  16.652  0.00  0.00    +0.000 OA
ATOM     18  H   UNL     1       5.712   4.645  16.188  0.00  0.00    +0.000 HD
ENDBRANCH  14  17
BRANCH  15  19
ATOM     19  C   UNL     1       3.149   2.644  18.931  0.00  0.00    +0.000 C 
BRANCH  19  20
ATOM     20  O   UNL     1       1.803   3.075  19.138  0.00  0.00    +0.000 OA
ATOM     21  H   UNL     1       1.817   3.635  19.938  0.00  0.00    +0.000 HD
ENDBRANCH  19  20
ENDBRANCH  15  19
ENDBRANCH   8  12
BRANCH   3  22
ATOM     22  C   UNL     1      -1.105  11.199  19.760  0.00  0.00    +0.000 C 
BRANCH  22  23
ATOM     23  C   UNL     1      -1.974  10.979  18.549  0.00  0.00    +0.000 A 
ATOM     24  C   UNL     1      -3.183  11.680  18.397  0.00  0.00    +0.000 A 
ATOM     25  C   UNL     1      -3.967  11.488  17.258  0.00  0.00    +0.000 A 
ATOM     26  C   UNL     1      -3.546  10.598  16.277  0.00  0.00    +0.000 A 
ATOM     27  F   UNL     1      -4.302  10.418  15.184  0.00  0.00    +0.000 F 
ATOM     28  C   UNL     1      -2.356   9.896  16.411  0.00  0.00    +0.000 A 
ATOM     29  C   UNL     1      -1.570  10.085  17.545  0.00  0.00    +0.000 A 
ENDBRANCH  22  23
ENDBRANCH   3  22
TORSDOF 6
ENDMDL
MODEL 7
REMARK VINA RESULT:      -7.3      1.027      1.659
REMARK  Name = 
REMARK  6 active torsions:
REMARK  status: ('A' for Active; 'I' for Inactive)
REMARK    1  A    between atoms: N_3  and  C_4
REMARK    2  A    between atoms: C_4  and  C_5
REMARK    3  A    between atoms: C_16  and  C_17
REMARK    4  A    between atoms: C_19  and  O_20
REMARK    5  A    between atoms: C_21  and  C_22
REMARK    6  A    between atoms: C_22  and  O_23
REMARK                            x       y       z     vdW  Elec       q    Type
REMARK                         _______ _______ _______ _____ _____    ______ ____
ROOT
ATOM      1  O   UNL     1      -0.517   9.924  21.989  0.00  0.00    +0.000 OA
ATOM      2  C   UNL     1       0.046   9.638  20.933  0.00  0.00    +0.000 C 
ATOM      3  N   UNL     1      -0.192  10.290  19.765  0.00  0.00    +0.000 N 
ATOM      4  N   UNL     1       0.905   8.585  20.914  0.00  0.00    +0.000 N 
ATOM      5  C   UNL     1       1.618   8.152  19.837  0.00  0.00    +0.000 A 
ATOM      6  N   UNL     1       1.763   8.711  18.659  0.00  0.00    +0.000 NA
ATOM      7  N   UNL     1       2.540   7.938  17.822  0.00  0.00    +0.000 NA
ATOM      8  C   UNL     1       2.932   6.813  18.395  0.00  0.00    +0.000 A 
ATOM      9  S   UNL     1       2.402   6.655  20.030  0.00  0.00    +0.000 S 
ATOM     10  H   UNL     1       0.323  10.012  18.936  0.00  0.00    +0.000 HD
ATOM     11  H   UNL     1       0.966   8.060  21.772  0.00  0.00    +0.000 HD
ENDROOT
BRANCH   8  12
ATOM     12  C   UNL     1       3.694   5.735  17.683  0.00  0.00    +0.000 C 
ATOM     13  C   UNL     1       4.788   6.275  16.774  0.00  0.00    +0.000 C 
ATOM     14  C   UNL     1       5.795   5.149  16.767  0.00  0.00    +0.000 C 
ATOM     15  C   UNL     1       5.685   4.577  18.177  0.00  0.00    +0.000 C 
ATOM     16  O   UNL     1       4.339   4.858  18.633  0.00  0.00    +0.000 OA
BRANCH  14  17
ATOM     17  O   UNL     1       5.414   4.193  15.779  0.00  0.00    +0.000 OA
ATOM     18  H   UNL     1       5.767   3.315  16.020  0.00  0.00    +0.000 HD
ENDBRANCH  14  17
BRANCH  15  19
ATOM     19  C   UNL     1       6.661   5.233  19.157  0.00  0.00    +0.000 C 
BRANCH  19  20
ATOM     20  O   UNL     1       8.006   4.974  18.752  0.00  0.00    +0.000 OA
ATOM     21  H   UNL     1       8.402   5.844  18.553  0.00  0.00    +0.000 HD
ENDBRANCH  19  20
ENDBRANCH  15  19
ENDBRANCH   8  12
BRANCH   3  22
ATOM     22  C   UNL     1      -1.224  11.289  19.621  0.00  0.00    +0.000 C 
BRANCH  22  23
ATOM     23  C   UNL     1      -2.073  11.034  18.403  0.00  0.00    +0.000 A 
ATOM     24  C   UNL     1      -3.312  11.681  18.244  0.00  0.00    +0.000 A 
ATOM     25  C   UNL     1      -4.078  11.457  17.099  0.00  0.00    +0.000 A 
ATOM     26  C   UNL     1      -3.610  10.591  16.118  0.00  0.00    +0.000 A 
ATOM     27  F   UNL     1      -4.348  10.380  15.018  0.00  0.00    +0.000 F 
ATOM     28  C   UNL     1      -2.390   9.943  16.259  0.00  0.00    +0.000 A 
ATOM     29  C   UNL     1      -1.622  10.163  17.399  0.00  0.00    +0.000 A 
ENDBRANCH  22  23
ENDBRANCH   3  22
TORSDOF 6
ENDMDL
MODEL 8
REMARK VINA RESULT:      -7.2      1.492      2.362
REMARK  Name = 
REMARK  6 active torsions:
REMARK  status: ('A' for Active; 'I' for Inactive)
REMARK    1  A    between atoms: N_3  and  C_4
REMARK    2  A    between atoms: C_4  and  C_5
REMARK    3  A    between atoms: C_16  and  C_17
REMARK    4  A    between atoms: C_19  and  O_20
REMARK    5  A    between atoms: C_21  and  C_22
REMARK    6  A    between atoms: C_22  and  O_23
REMARK                            x       y       z     vdW  Elec       q    Type
REMARK                         _______ _______ _______ _____ _____    ______ ____
ROOT
ATOM      1  O   UNL     1       0.125  10.495  21.647  0.00  0.00    +0.000 OA
ATOM      2  C   UNL     1       0.665   9.785  20.800  0.00  0.00    +0.000 C 
ATOM      3  N   UNL     1       0.831  10.166  19.507  0.00  0.00    +0.000 N 
ATOM      4  N   UNL     1       1.067   8.536  21.154  0.00  0.00    +0.000 N 
ATOM      5  C   UNL     1       1.694   7.636  20.345  0.00  0.00    +0.000 A 
ATOM      6  N   UNL     1       2.178   7.804  19.138  0.00  0.00    +0.000 NA
ATOM      7  N   UNL     1       2.708   6.633  18.636  0.00  0.00    +0.000 NA
ATOM      8  C   UNL     1       2.582   5.622  19.477  0.00  0.00    +0.000 A 
ATOM      9  S   UNL     1       1.837   6.061  20.971  0.00  0.00    +0.000 S 
ATOM     10  H   UNL     1       1.302   9.536  18.867  0.00  0.00    +0.000 HD
ATOM     11  H   UNL     1       0.824   8.250  22.090  0.00  0.00    +0.000 HD
ENDROOT
BRANCH   8  12
ATOM     12  C   UNL     1       2.970   4.210  19.150  0.00  0.00    +0.000 C 
ATOM     13  C   UNL     1       2.123   3.597  18.046  0.00  0.00    +0.000 C 
ATOM     14  C   UNL     1       3.066   2.592  17.428  0.00  0.00    +0.000 C 
ATOM     15  C   UNL     1       4.427   3.269  17.557  0.00  0.00    +0.000 C 
ATOM     16  O   UNL     1       4.342   4.152  18.702  0.00  0.00    +0.000 OA
BRANCH  14  17
ATOM     17  O   UNL     1       3.006   1.380  18.178  0.00  0.00    +0.000 OA
ATOM     18  H   UNL     1       3.904   1.137  18.477  0.00  0.00    +0.000 HD
ENDBRANCH  14  17
BRANCH  15  19
ATOM     19  C   UNL     1       4.781   4.118  16.333  0.00  0.00    +0.000 C 
BRANCH  19  20
ATOM     20  O   UNL     1       5.070   5.457  16.736  0.00  0.00    +0.000 OA
ATOM     21  H   UNL     1       4.406   6.022  16.298  0.00  0.00    +0.000 HD
ENDBRANCH  19  20
ENDBRANCH  15  19
ENDBRANCH   8  12
BRANCH   3  22
ATOM     22  C   UNL     1       0.269  11.384  18.971  0.00  0.00    +0.000 C 
BRANCH  22  23
ATOM     23  C   UNL     1      -1.176  11.203  18.585  0.00  0.00    +0.000 A 
ATOM     24  C   UNL     1      -2.171  12.040  19.118  0.00  0.00    +0.000 A 
ATOM     25  C   UNL     1      -3.503  11.879  18.732  0.00  0.00    +0.000 A 
ATOM     26  C   UNL     1      -3.839  10.886  17.820  0.00  0.00    +0.000 A 
ATOM     27  F   UNL     1      -5.120  10.736  17.451  0.00  0.00    +0.000 F 
ATOM     28  C   UNL     1      -2.870  10.049  17.285  0.00  0.00    +0.000 A 
ATOM     29  C   UNL     1      -1.540  10.206  17.666  0.00  0.00    +0.000 A 
ENDBRANCH  22  23
ENDBRANCH   3  22
TORSDOF 6
ENDMDL
MODEL 9
REMARK VINA RESULT:      -7.1      3.507      8.496
REMARK  Name = 
REMARK  6 active torsions:
REMARK  status: ('A' for Active; 'I' for Inactive)
REMARK    1  A    between atoms: N_3  and  C_4
REMARK    2  A    between atoms: C_4  and  C_5
REMARK    3  A    between atoms: C_16  and  C_17
REMARK    4  A    between atoms: C_19  and  O_20
REMARK    5  A    between atoms: C_21  and  C_22
REMARK    6  A    between atoms: C_22  and  O_23
REMARK                            x       y       z     vdW  Elec       q    Type
REMARK                         _______ _______ _______ _____ _____    ______ ____
ROOT
ATOM      1  O   UNL     1       2.478   3.625  21.306  0.00  0.00    +0.000 OA
ATOM      2  C   UNL     1       2.536   4.653  20.633  0.00  0.00    +0.000 C 
ATOM      3  N   UNL     1       3.341   4.784  19.547  0.00  0.00    +0.000 N 
ATOM      4  N   UNL     1       1.806   5.731  21.022  0.00  0.00    +0.000 N 
ATOM      5  C   UNL     1       1.746   6.932  20.380  0.00  0.00    +0.000 A 
ATOM      6  N   UNL     1       2.227   7.270  19.207  0.00  0.00    +0.000 NA
ATOM      7  N   UNL     1       1.988   8.599  18.924  0.00  0.00    +0.000 NA
ATOM      8  C   UNL     1       1.355   9.217  19.906  0.00  0.00    +0.000 A 
ATOM      9  S   UNL     1       0.970   8.182  21.233  0.00  0.00    +0.000 S 
ATOM     10  H   UNL     1       3.324   5.656  19.028  0.00  0.00    +0.000 HD
ATOM     11  H   UNL     1       1.312   5.630  21.894  0.00  0.00    +0.000 HD
ENDROOT
BRANCH   8  12
ATOM     12  C   UNL     1       1.063  10.688  19.916  0.00  0.00    +0.000 C 
ATOM     13  C   UNL     1       1.487  11.391  18.635  0.00  0.00    +0.000 C 
ATOM     14  C   UNL     1       0.522  12.550  18.561  0.00  0.00    +0.000 C 
ATOM     15  C   UNL     1      -0.759  11.973  19.156  0.00  0.00    +0.000 C 
ATOM     16  O   UNL     1      -0.354  10.924  20.069  0.00  0.00    +0.000 OA
BRANCH  14  17
ATOM     17  O   UNL     1       1.030  13.627  19.348  0.00  0.00    +0.000 OA
ATOM     18  H   UNL     1       0.429  13.794  20.100  0.00  0.00    +0.000 HD
ENDBRANCH  14  17
BRANCH  15  19
ATOM     19  C   UNL     1      -1.672  11.350  18.097  0.00  0.00    +0.000 C 
BRANCH  19  20
ATOM     20  O   UNL     1      -1.709  12.181  16.936  0.00  0.00    +0.000 OA
ATOM     21  H   UNL     1      -2.445  11.849  16.387  0.00  0.00    +0.000 HD
ENDBRANCH  19  20
ENDBRANCH  15  19
ENDBRANCH   8  12
BRANCH   3  22
ATOM     22  C   UNL     1       4.304   3.780  19.158  0.00  0.00    +0.000 C 
BRANCH  22  23
ATOM     23  C   UNL     1       5.106   4.218  17.960  0.00  0.00    +0.000 A 
ATOM     24  C   UNL     1       6.394   4.757  18.118  0.00  0.00    +0.000 A 
ATOM     25  C   UNL     1       7.139   5.135  16.999  0.00  0.00    +0.000 A 
ATOM     26  C   UNL     1       6.598   4.976  15.729  0.00  0.00    +0.000 A 
ATOM     27  F   UNL     1       7.317   5.338  14.657  0.00  0.00    +0.000 F 
ATOM     28  C   UNL     1       5.326   4.447  15.555  0.00  0.00    +0.000 A 
ATOM     29  C   UNL     1       4.580   4.068  16.667  0.00  0.00    +0.000 A 
ENDBRANCH  22  23
ENDBRANCH   3  22
TORSDOF 6
ENDMDL
