MODEL 1
REMARK VINA RESULT:      -7.9      0.000      0.000
REMARK  Name = 
REMARK  5 active torsions:
REMARK  status: ('A' for Active; 'I' for Inactive)
REMARK    1  A    between atoms: C_2  and  C_10
REMARK    2  A    between atoms: N_3  and  C_4
REMARK    3  A    between atoms: C_10  and  C_11
REMARK    4  A    between atoms: C_10  and  N_20
REMARK    5  A    between atoms: C_23  and  C_24
REMARK                            x       y       z     vdW  Elec       q    Type
REMARK                         _______ _______ _______ _____ _____    ______ ____
ROOT
ATOM      1  C   UNL     1       0.013  11.890  19.019  0.00  0.00    +0.000 C 
ENDROOT
BRANCH   1   2
ATOM      2  N   UNL     1      -1.443  11.862  19.240  0.00  0.00    +0.000 N 
ATOM      3  C   UNL     1      -1.879  12.208  20.523  0.00  0.00    +0.000 A 
ATOM      4  O   UNL     1      -1.145  12.213  21.509  0.00  0.00    +0.000 OA
ATOM      5  C   UNL     1      -3.364  12.530  20.679  0.00  0.00    +0.000 A 
ATOM      6  N   UNL     1      -4.242  12.256  19.763  0.00  0.00    +0.000 NA
ATOM      7  C   UNL     1      -3.783  11.777  18.528  0.00  0.00    +0.000 A 
ATOM      8  C   UNL     1      -4.760  11.564  17.545  0.00  0.00    +0.000 A 
ATOM      9  C   UNL     1      -4.408  11.164  16.259  0.00  0.00    +0.000 A 
ATOM     10  C   UNL     1      -3.068  10.972  15.952  0.00  0.00    +0.000 A 
ATOM     11  C   UNL     1      -2.086  11.188  16.923  0.00  0.00    +0.000 A 
ATOM     12  C   UNL     1      -2.417  11.602  18.221  0.00  0.00    +0.000 A 
BRANCH   5  13
ATOM     13  C   UNL     1      -3.786  13.205  21.880  0.00  0.00    +0.000 A 
ATOM     14  C   UNL     1      -3.673  14.523  22.287  0.00  0.00    +0.000 A 
ATOM     15  C   UNL     1      -4.145  14.584  23.621  0.00  0.00    +0.000 A 
ATOM     16  C   UNL     1      -4.513  13.303  23.953  0.00  0.00    +0.000 A 
ATOM     17  O   UNL     1      -4.305  12.464  22.908  0.00  0.00    +0.000 OA
ENDBRANCH   5  13
ENDBRANCH   1   2
BRANCH   1  18
ATOM     18  C   UNL     1       0.614  10.516  19.190  0.00  0.00    +0.000 A 
ATOM     19  C   UNL     1       0.625   9.570  20.200  0.00  0.00    +0.000 A 
ATOM     20  C   UNL     1       1.443   8.498  19.763  0.00  0.00    +0.000 A 
ATOM     21  C   UNL     1       1.878   7.282  20.315  0.00  0.00    +0.000 A 
ATOM     22  C   UNL     1       2.719   6.460  19.552  0.00  0.00    +0.000 A 
ATOM     23  C   UNL     1       3.114   6.834  18.265  0.00  0.00    +0.000 A 
ATOM     24  C   UNL     1       2.688   8.041  17.698  0.00  0.00    +0.000 A 
ATOM     25  C   UNL     1       1.860   8.840  18.484  0.00  0.00    +0.000 A 
ATOM     26  O   UNL     1       1.354  10.054  18.130  0.00  0.00    +0.000 OA
ENDBRANCH   1  18
BRANCH   1  28
ATOM     27  O   UNL     1       1.805  12.652  20.512  0.00  0.00    +0.000 OA
ATOM     28  C   UNL     1       0.864  12.946  19.773  0.00  0.00    +0.000 C 
ATOM     29  N   UNL     1       0.520  14.275  19.545  0.00  0.00    +0.000 N 
ATOM     30  H   UNL     1      -0.368  14.489  19.104  0.00  0.00    +0.000 HD
BRANCH  29  31
ATOM     31  C   UNL     1       1.293  15.348  20.168  0.00  0.00    +0.000 C 
ATOM     32  C   UNL     1       2.424  15.855  19.263  0.00  0.00    +0.000 C 
ATOM     33  C   UNL     1       1.959  16.807  18.164  0.00  0.00    +0.000 C 
ATOM     34  C   UNL     1       1.093  17.931  18.718  0.00  0.00    +0.000 C 
ATOM     35  C   UNL     1      -0.091  17.378  19.503  0.00  0.00    +0.000 C 
ATOM     36  C   UNL     1       0.377  16.481  20.647  0.00  0.00    +0.000 C 
ENDBRANCH  29  31
ENDBRANCH   1  28
TORSDOF 5
ENDMDL
MODEL 2
REMARK VINA RESULT:      -7.9      0.823      1.072
REMARK  Name = 
REMARK  5 active torsions:
REMARK  status: ('A' for Active; 'I' for Inactive)
REMARK    1  A    between atoms: C_2  and  C_10
REMARK    2  A    between atoms: N_3  and  C_4
REMARK    3  A    between atoms: C_10  and  C_11
REMARK    4  A    between atoms: C_10  and  N_20
REMARK    5  A    between atoms: C_23  and  C_24
REMARK                            x       y       z     vdW  Elec       q    Type
REMARK                         _______ _______ _______ _____ _____    ______ ____
ROOT
ATOM      1  C   UNL     1       0.200  11.839  18.993  0.00  0.00    +0.000 C 
ENDROOT
BRANCH   1   2
ATOM      2  N   UNL     1      -1.220  11.891  19.384  0.00  0.00    +0.000 N 
ATOM      3  C   UNL     1      -1.482  12.256  20.709  0.00  0.00    +0.000 A 
ATOM      4  O   UNL     1      -0.638  12.216  21.601  0.00  0.00    +0.000 OA
ATOM      5  C   UNL     1      -2.917  12.660  21.037  0.00  0.00    +0.000 A 
ATOM      6  N   UNL     1      -3.911  12.439  20.231  0.00  0.00    +0.000 NA
ATOM      7  C   UNL     1      -3.628  11.940  18.952  0.00  0.00    +0.000 A 
ATOM      8  C   UNL     1      -4.724  11.786  18.091  0.00  0.00    +0.000 A 
ATOM      9  C   UNL     1      -4.548  11.373  16.774  0.00  0.00    +0.000 A 
ATOM     10  C   UNL     1      -3.267  11.107  16.312  0.00  0.00    +0.000 A 
ATOM     11  C   UNL     1      -2.167  11.263  17.161  0.00  0.00    +0.000 A 
ATOM     12  C   UNL     1      -2.320  11.690  18.487  0.00  0.00    +0.000 A 
BRANCH   5  13
ATOM     13  C   UNL     1      -3.157  13.352  22.278  0.00  0.00    +0.000 A 
ATOM     14  C   UNL     1      -3.270  12.899  23.581  0.00  0.00    +0.000 A 
ATOM     15  C   UNL     1      -3.644  14.012  24.373  0.00  0.00    +0.000 A 
ATOM     16  C   UNL     1      -3.743  15.076  23.510  0.00  0.00    +0.000 A 
ATOM     17  O   UNL     1      -3.446  14.690  22.245  0.00  0.00    +0.000 OA
ENDBRANCH   5  13
ENDBRANCH   1   2
BRANCH   1  18
ATOM     18  C   UNL     1       0.758  10.446  19.163  0.00  0.00    +0.000 A 
ATOM     19  C   UNL     1       0.722   9.493  20.165  0.00  0.00    +0.000 A 
ATOM     20  C   UNL     1       1.517   8.401  19.734  0.00  0.00    +0.000 A 
ATOM     21  C   UNL     1       1.907   7.169  20.284  0.00  0.00    +0.000 A 
ATOM     22  C   UNL     1       2.738   6.329  19.530  0.00  0.00    +0.000 A 
ATOM     23  C   UNL     1       3.167   6.701  18.254  0.00  0.00    +0.000 A 
ATOM     24  C   UNL     1       2.787   7.925  17.690  0.00  0.00    +0.000 A 
ATOM     25  C   UNL     1       1.968   8.741  18.467  0.00  0.00    +0.000 A 
ATOM     26  O   UNL     1       1.504   9.972  18.114  0.00  0.00    +0.000 OA
ENDBRANCH   1  18
BRANCH   1  28
ATOM     27  O   UNL     1       1.955  12.637  20.511  0.00  0.00    +0.000 OA
ATOM     28  C   UNL     1       1.179  12.886  19.587  0.00  0.00    +0.000 C 
ATOM     29  N   UNL     1       1.153  14.143  18.991  0.00  0.00    +0.000 N 
ATOM     30  H   UNL     1       0.381  14.388  18.381  0.00  0.00    +0.000 HD
BRANCH  29  31
ATOM     31  C   UNL     1       2.074  15.186  19.444  0.00  0.00    +0.000 C 
ATOM     32  C   UNL     1       3.431  15.117  18.731  0.00  0.00    +0.000 C 
ATOM     33  C   UNL     1       3.423  15.712  17.325  0.00  0.00    +0.000 C 
ATOM     34  C   UNL     1       2.812  17.107  17.304  0.00  0.00    +0.000 C 
ATOM     35  C   UNL     1       1.412  17.103  17.906  0.00  0.00    +0.000 C 
ATOM     36  C   UNL     1       1.429  16.573  19.339  0.00  0.00    +0.000 C 
ENDBRANCH  29  31
ENDBRANCH   1  28
TORSDOF 5
ENDMDL
MODEL 3
REMARK VINA RESULT:      -7.8      0.553      1.060
REMARK  Name = 
REMARK  5 active torsions:
REMARK  status: ('A' for Active; 'I' for Inactive)
REMARK    1  A    between atoms: C_2  and  C_10
REMARK    2  A    between atoms: N_3  and  C_4
REMARK    3  A    between atoms: C_10  and  C_11
REMARK    4  A    between atoms: C_10  and  N_20
REMARK    5  A    between atoms: C_23  and  C_24
REMARK                            x       y       z     vdW  Elec       q    Type
REMARK                         _______ _______ _______ _____ _____    ______ ____
ROOT
ATOM      1  C   UNL     1       0.196  12.028  18.787  0.00  0.00    +0.000 C 
ENDROOT
BRANCH   1   2
ATOM      2  N   UNL     1      -1.236  11.927  19.121  0.00  0.00    +0.000 N 
ATOM      3  C   UNL     1      -1.584  12.235  20.440  0.00  0.00    +0.000 A 
ATOM      4  O   UNL     1      -0.776  12.263  21.365  0.00  0.00    +0.000 OA
ATOM      5  C   UNL     1      -3.066  12.483  20.716  0.00  0.00    +0.000 A 
ATOM      6  N   UNL     1      -3.999  12.179  19.867  0.00  0.00    +0.000 NA
ATOM      7  C   UNL     1      -3.618  11.739  18.593  0.00  0.00    +0.000 A 
ATOM      8  C   UNL     1      -4.658  11.492  17.686  0.00  0.00    +0.000 A 
ATOM      9  C   UNL     1      -4.390  11.126  16.370  0.00  0.00    +0.000 A 
ATOM     10  C   UNL     1      -3.072  11.003  15.956  0.00  0.00    +0.000 A 
ATOM     11  C   UNL     1      -2.027  11.253  16.851  0.00  0.00    +0.000 A 
ATOM     12  C   UNL     1      -2.274  11.634  18.177  0.00  0.00    +0.000 A 
BRANCH   5  13
ATOM     13  C   UNL     1      -3.423  13.121  21.958  0.00  0.00    +0.000 A 
ATOM     14  C   UNL     1      -3.314  14.433  22.387  0.00  0.00    +0.000 A 
ATOM     15  C   UNL     1      -3.698  14.453  23.750  0.00  0.00    +0.000 A 
ATOM     16  C   UNL     1      -4.013  13.156  24.076  0.00  0.00    +0.000 A 
ATOM     17  O   UNL     1      -3.855  12.346  23.001  0.00  0.00    +0.000 OA
ENDBRANCH   5  13
ENDBRANCH   1   2
BRANCH   1  18
ATOM     18  C   UNL     1       0.861  10.674  18.835  0.00  0.00    +0.000 A 
ATOM     19  C   UNL     1       1.603   9.915  17.947  0.00  0.00    +0.000 A 
ATOM     20  C   UNL     1       1.881   8.679  18.582  0.00  0.00    +0.000 A 
ATOM     21  C   UNL     1       2.543   7.494  18.219  0.00  0.00    +0.000 A 
ATOM     22  C   UNL     1       2.607   6.448  19.149  0.00  0.00    +0.000 A 
ATOM     23  C   UNL     1       2.032   6.576  20.415  0.00  0.00    +0.000 A 
ATOM     24  C   UNL     1       1.370   7.751  20.795  0.00  0.00    +0.000 A 
ATOM     25  C   UNL     1       1.316   8.769  19.846  0.00  0.00    +0.000 A 
ATOM     26  O   UNL     1       0.708   9.977  20.007  0.00  0.00    +0.000 OA
ENDBRANCH   1  18
BRANCH   1  28
ATOM     27  O   UNL     1       2.074  12.790  20.170  0.00  0.00    +0.000 OA
ATOM     28  C   UNL     1       1.064  13.080  19.527  0.00  0.00    +0.000 C 
ATOM     29  N   UNL     1       0.650  14.402  19.402  0.00  0.00    +0.000 N 
ATOM     30  H   UNL     1      -0.280  14.599  19.048  0.00  0.00    +0.000 HD
BRANCH  29  31
ATOM     31  C   UNL     1       1.429  15.475  20.020  0.00  0.00    +0.000 C 
ATOM     32  C   UNL     1       2.357  16.174  19.017  0.00  0.00    +0.000 C 
ATOM     33  C   UNL     1       1.649  17.185  18.118  0.00  0.00    +0.000 C 
ATOM     34  C   UNL     1       0.801  18.161  18.923  0.00  0.00    +0.000 C 
ATOM     35  C   UNL     1      -0.195  17.423  19.810  0.00  0.00    +0.000 C 
ATOM     36  C   UNL     1       0.519  16.462  20.759  0.00  0.00    +0.000 C 
ENDBRANCH  29  31
ENDBRANCH   1  28
TORSDOF 5
ENDMDL
MODEL 4
REMARK VINA RESULT:      -7.7      1.353      1.802
REMARK  Name = 
REMARK  5 active torsions:
REMARK  status: ('A' for Active; 'I' for Inactive)
REMARK    1  A    between atoms: C_2  and  C_10
REMARK    2  A    between atoms: N_3  and  C_4
REMARK    3  A    between atoms: C_10  and  C_11
REMARK    4  A    between atoms: C_10  and  N_20
REMARK    5  A    between atoms: C_23  and  C_24
REMARK                            x       y       z     vdW  Elec       q    Type
REMARK                         _______ _______ _______ _____ _____    ______ ____
ROOT
ATOM      1  C   UNL     1      -1.096  12.421  18.996  0.00  0.00    +0.000 C 
ENDROOT
BRANCH   1   2
ATOM      2  N   UNL     1      -2.354  12.460  19.762  0.00  0.00    +0.000 N 
ATOM      3  C   UNL     1      -2.279  13.009  21.045  0.00  0.00    +0.000 A 
ATOM      4  O   UNL     1      -1.224  13.152  21.660  0.00  0.00    +0.000 OA
ATOM      5  C   UNL     1      -3.602  13.384  21.709  0.00  0.00    +0.000 A 
ATOM      6  N   UNL     1      -4.752  12.990  21.253  0.00  0.00    +0.000 NA
ATOM      7  C   UNL     1      -4.783  12.316  20.025  0.00  0.00    +0.000 A 
ATOM      8  C   UNL     1      -6.052  11.974  19.538  0.00  0.00    +0.000 A 
ATOM      9  C   UNL     1      -6.203  11.372  18.292  0.00  0.00    +0.000 A 
ATOM     10  C   UNL     1      -5.077  11.106  17.527  0.00  0.00    +0.000 A 
ATOM     11  C   UNL     1      -3.808  11.448  18.001  0.00  0.00    +0.000 A 
ATOM     12  C   UNL     1      -3.633  12.066  19.247  0.00  0.00    +0.000 A 
BRANCH   5  13
ATOM     13  C   UNL     1      -3.559  14.246  22.863  0.00  0.00    +0.000 A 
ATOM     14  C   UNL     1      -3.559  15.625  22.986  0.00  0.00    +0.000 A 
ATOM     15  C   UNL     1      -3.364  15.915  24.359  0.00  0.00    +0.000 A 
ATOM     16  C   UNL     1      -3.254  14.701  24.992  0.00  0.00    +0.000 A 
ATOM     17  O   UNL     1      -3.374  13.687  24.100  0.00  0.00    +0.000 OA
ENDBRANCH   5  13
ENDBRANCH   1   2
BRANCH   1  18
ATOM     18  C   UNL     1      -0.336  11.145  19.264  0.00  0.00    +0.000 A 
ATOM     19  C   UNL     1      -0.118  10.350  20.376  0.00  0.00    +0.000 A 
ATOM     20  C   UNL     1       0.759   9.309  19.982  0.00  0.00    +0.000 A 
ATOM     21  C   UNL     1       1.379   8.225  20.626  0.00  0.00    +0.000 A 
ATOM     22  C   UNL     1       2.217   7.388  19.877  0.00  0.00    +0.000 A 
ATOM     23  C   UNL     1       2.431   7.618  18.516  0.00  0.00    +0.000 A 
ATOM     24  C   UNL     1       1.821   8.692  17.857  0.00  0.00    +0.000 A 
ATOM     25  C   UNL     1       1.000   9.511  18.630  0.00  0.00    +0.000 A 
ATOM     26  O   UNL     1       0.332  10.613  18.190  0.00  0.00    +0.000 OA
ENDBRANCH   1  18
BRANCH   1  28
ATOM     27  O   UNL     1       1.081  13.535  19.210  0.00  0.00    +0.000 OA
ATOM     28  C   UNL     1      -0.139  13.641  19.068  0.00  0.00    +0.000 C 
ATOM     29  N   UNL     1      -0.739  14.889  18.935  0.00  0.00    +0.000 N 
ATOM     30  H   UNL     1      -1.746  14.967  19.022  0.00  0.00    +0.000 HD
BRANCH  29  31
ATOM     31  C   UNL     1       0.082  16.100  18.938  0.00  0.00    +0.000 C 
ATOM     32  C   UNL     1      -0.443  17.164  17.965  0.00  0.00    +0.000 C 
ATOM     33  C   UNL     1      -1.638  17.953  18.495  0.00  0.00    +0.000 C 
ATOM     34  C   UNL     1      -1.377  18.502  19.892  0.00  0.00    +0.000 C 
ATOM     35  C   UNL     1      -0.983  17.390  20.856  0.00  0.00    +0.000 C 
ATOM     36  C   UNL     1       0.255  16.644  20.361  0.00  0.00    +0.000 C 
ENDBRANCH  29  31
ENDBRANCH   1  28
TORSDOF 5
ENDMDL
MODEL 5
REMARK VINA RESULT:      -7.6      1.248      1.675
REMARK  Name = 
REMARK  5 active torsions:
REMARK  status: ('A' for Active; 'I' for Inactive)
REMARK    1  A    between atoms: C_2  and  C_10
REMARK    2  A    between atoms: N_3  and  C_4
REMARK    3  A    between atoms: C_10  and  C_11
REMARK    4  A    between atoms: C_10  and  N_20
REMARK    5  A    between atoms: C_23  and  C_24
REMARK                            x       y       z     vdW  Elec       q    Type
REMARK                         _______ _______ _______ _____ _____    ______ ____
ROOT
ATOM      1  C   UNL     1      -0.497  12.195  19.684  0.00  0.00    +0.000 C 
ENDROOT
BRANCH   1   2
ATOM      2  N   UNL     1      -1.964  12.063  19.667  0.00  0.00    +0.000 N 
ATOM      3  C   UNL     1      -2.624  12.364  20.863  0.00  0.00    +0.000 A 
ATOM      4  O   UNL     1      -2.061  12.411  21.954  0.00  0.00    +0.000 OA
ATOM      5  C   UNL     1      -4.134  12.579  20.776  0.00  0.00    +0.000 A 
ATOM      6  N   UNL     1      -4.831  12.253  19.730  0.00  0.00    +0.000 NA
ATOM      7  C   UNL     1      -4.146  11.820  18.587  0.00  0.00    +0.000 A 
ATOM      8  C   UNL     1      -4.934  11.548  17.459  0.00  0.00    +0.000 A 
ATOM      9  C   UNL     1      -4.352  11.188  16.248  0.00  0.00    +0.000 A 
ATOM     10  C   UNL     1      -2.970  11.093  16.162  0.00  0.00    +0.000 A 
ATOM     11  C   UNL     1      -2.175  11.368  17.278  0.00  0.00    +0.000 A 
ATOM     12  C   UNL     1      -2.740  11.745  18.504  0.00  0.00    +0.000 A 
BRANCH   5  13
ATOM     13  C   UNL     1      -4.791  13.210  21.892  0.00  0.00    +0.000 A 
ATOM     14  C   UNL     1      -4.945  14.541  22.241  0.00  0.00    +0.000 A 
ATOM     15  C   UNL     1      -5.562  14.563  23.515  0.00  0.00    +0.000 A 
ATOM     16  C   UNL     1      -5.746  13.250  23.873  0.00  0.00    +0.000 A 
ATOM     17  O   UNL     1      -5.288  12.425  22.898  0.00  0.00    +0.000 OA
ENDBRANCH   5  13
ENDBRANCH   1   2
BRANCH   1  18
ATOM     18  C   UNL     1       0.170  10.841  19.717  0.00  0.00    +0.000 A 
ATOM     19  C   UNL     1       0.297   9.835  20.658  0.00  0.00    +0.000 A 
ATOM     20  C   UNL     1       1.120   8.831  20.090  0.00  0.00    +0.000 A 
ATOM     21  C   UNL     1       1.646   7.602  20.525  0.00  0.00    +0.000 A 
ATOM     22  C   UNL     1       2.457   6.870  19.648  0.00  0.00    +0.000 A 
ATOM     23  C   UNL     1       2.735   7.342  18.363  0.00  0.00    +0.000 A 
ATOM     24  C   UNL     1       2.219   8.562  17.912  0.00  0.00    +0.000 A 
ATOM     25  C   UNL     1       1.424   9.271  18.810  0.00  0.00    +0.000 A 
ATOM     26  O   UNL     1       0.843  10.481  18.577  0.00  0.00    +0.000 OA
ENDBRANCH   1  18
BRANCH   1  28
ATOM     27  O   UNL     1       1.063  12.789  21.483  0.00  0.00    +0.000 OA
ATOM     28  C   UNL     1       0.157  13.142  20.726  0.00  0.00    +0.000 C 
ATOM     29  N   UNL     1      -0.325  14.446  20.744  0.00  0.00    +0.000 N 
ATOM     30  H   UNL     1      -1.194  14.661  20.267  0.00  0.00    +0.000 HD
BRANCH  29  31
ATOM     31  C   UNL     1       0.260  15.430  21.655  0.00  0.00    +0.000 C 
ATOM     32  C   UNL     1       0.274  16.843  21.057  0.00  0.00    +0.000 C 
ATOM     33  C   UNL     1      -1.074  17.558  21.125  0.00  0.00    +0.000 C 
ATOM     34  C   UNL     1      -1.668  17.512  22.526  0.00  0.00    +0.000 C 
ATOM     35  C   UNL     1      -1.782  16.078  23.029  0.00  0.00    +0.000 C 
ATOM     36  C   UNL     1      -0.422  15.383  23.027  0.00  0.00    +0.000 C 
ENDBRANCH  29  31
ENDBRANCH   1  28
TORSDOF 5
ENDMDL
MODEL 6
REMARK VINA RESULT:      -7.4      2.521      7.121
REMARK  Name = 
REMARK  5 active torsions:
REMARK  status: ('A' for Active; 'I' for Inactive)
REMARK    1  A    between atoms: C_2  and  C_10
REMARK    2  A    between atoms: N_3  and  C_4
REMARK    3  A    between atoms: C_10  and  C_11
REMARK    4  A    between atoms: C_10  and  N_20
REMARK    5  A    between atoms: C_23  and  C_24
REMARK                            x       y       z     vdW  Elec       q    Type
REMARK                         _______ _______ _______ _____ _____    ______ ____
ROOT
ATOM      1  C   UNL     1       1.038  14.735  20.783  0.00  0.00    +0.000 C 
ENDROOT
BRANCH   1   2
ATOM      2  N   UNL     1       1.743  15.642  19.860  0.00  0.00    +0.000 N 
ATOM      3  C   UNL     1       3.139  15.568  19.868  0.00  0.00    +0.000 A 
ATOM      4  O   UNL     1       3.785  15.056  20.780  0.00  0.00    +0.000 OA
ATOM      5  C   UNL     1       3.867  16.221  18.695  0.00  0.00    +0.000 A 
ATOM      6  N   UNL     1       3.279  17.028  17.865  0.00  0.00    +0.000 NA
ATOM      7  C   UNL     1       1.891  17.191  17.970  0.00  0.00    +0.000 A 
ATOM      8  C   UNL     1       1.289  18.014  17.009  0.00  0.00    +0.000 A 
ATOM      9  C   UNL     1      -0.091  18.183  16.972  0.00  0.00    +0.000 A 
ATOM     10  C   UNL     1      -0.879  17.526  17.906  0.00  0.00    +0.000 A 
ATOM     11  C   UNL     1      -0.290  16.697  18.865  0.00  0.00    +0.000 A 
ATOM     12  C   UNL     1       1.097  16.503  18.913  0.00  0.00    +0.000 A 
BRANCH   5  13
ATOM     13  C   UNL     1       5.253  15.884  18.488  0.00  0.00    +0.000 A 
ATOM     14  C   UNL     1       6.420  16.587  18.732  0.00  0.00    +0.000 A 
ATOM     15  C   UNL     1       7.483  15.815  18.203  0.00  0.00    +0.000 A 
ATOM     16  C   UNL     1       6.906  14.691  17.664  0.00  0.00    +0.000 A 
ATOM     17  O   UNL     1       5.561  14.721  17.835  0.00  0.00    +0.000 OA
ENDBRANCH   5  13
ENDBRANCH   1   2
BRANCH   1  18
ATOM     18  C   UNL     1       0.592  13.479  20.075  0.00  0.00    +0.000 A 
ATOM     19  C   UNL     1       1.132  12.219  19.883  0.00  0.00    +0.000 A 
ATOM     20  C   UNL     1       0.236  11.502  19.051  0.00  0.00    +0.000 A 
ATOM     21  C   UNL     1       0.215  10.221  18.473  0.00  0.00    +0.000 A 
ATOM     22  C   UNL     1      -0.879   9.863  17.673  0.00  0.00    +0.000 A 
ATOM     23  C   UNL     1      -1.933  10.754  17.457  0.00  0.00    +0.000 A 
ATOM     24  C   UNL     1      -1.930  12.033  18.027  0.00  0.00    +0.000 A 
ATOM     25  C   UNL     1      -0.825  12.362  18.809  0.00  0.00    +0.000 A 
ATOM     26  O   UNL     1      -0.619  13.555  19.434  0.00  0.00    +0.000 OA
ENDBRANCH   1  18
BRANCH   1  28
ATOM     27  O   UNL     1      -0.120  16.446  22.107  0.00  0.00    +0.000 OA
ATOM     28  C   UNL     1      -0.116  15.301  21.652  0.00  0.00    +0.000 C 
ATOM     29  N   UNL     1      -1.184  14.438  21.875  0.00  0.00    +0.000 N 
ATOM     30  H   UNL     1      -1.075  13.450  21.670  0.00  0.00    +0.000 HD
BRANCH  29  31
ATOM     31  C   UNL     1      -2.345  14.893  22.639  0.00  0.00    +0.000 C 
ATOM     32  C   UNL     1      -3.601  15.030  21.768  0.00  0.00    +0.000 C 
ATOM     33  C   UNL     1      -4.296  13.704  21.470  0.00  0.00    +0.000 C 
ATOM     34  C   UNL     1      -4.539  12.895  22.737  0.00  0.00    +0.000 C 
ATOM     35  C   UNL     1      -3.242  12.674  23.506  0.00  0.00    +0.000 C 
ATOM     36  C   UNL     1      -2.580  14.003  23.866  0.00  0.00    +0.000 C 
ENDBRANCH  29  31
ENDBRANCH   1  28
TORSDOF 5
ENDMDL
MODEL 7
REMARK VINA RESULT:      -7.4      1.092      1.338
REMARK  Name = 
REMARK  5 active torsions:
REMARK  status: ('A' for Active; 'I' for Inactive)
REMARK    1  A    between atoms: C_2  and  C_10
REMARK    2  A    between atoms: N_3  and  C_4
REMARK    3  A    between atoms: C_10  and  C_11
REMARK    4  A    between atoms: C_10  and  N_20
REMARK    5  A    between atoms: C_23  and  C_24
REMARK                            x       y       z     vdW  Elec       q    Type
REMARK                         _______ _______ _______ _____ _____    ______ ____
ROOT
ATOM      1  C   UNL     1      -0.123  12.363  19.334  0.00  0.00    +0.000 C 
ENDROOT
BRANCH   1   2
ATOM      2  N   UNL     1      -1.444  12.493  19.975  0.00  0.00    +0.000 N 
ATOM      3  C   UNL     1      -1.454  13.054  21.256  0.00  0.00    +0.000 A 
ATOM      4  O   UNL     1      -0.456  13.136  21.968  0.00  0.00    +0.000 OA
ATOM      5  C   UNL     1      -2.807  13.522  21.788  0.00  0.00    +0.000 A 
ATOM      6  N   UNL     1      -3.933  13.197  21.227  0.00  0.00    +0.000 NA
ATOM      7  C   UNL     1      -3.891  12.510  20.007  0.00  0.00    +0.000 A 
ATOM      8  C   UNL     1      -5.127  12.245  19.402  0.00  0.00    +0.000 A 
ATOM      9  C   UNL     1      -5.199  11.637  18.152  0.00  0.00    +0.000 A 
ATOM     10  C   UNL     1      -4.025  11.288  17.500  0.00  0.00    +0.000 A 
ATOM     11  C   UNL     1      -2.786  11.554  18.091  0.00  0.00    +0.000 A 
ATOM     12  C   UNL     1      -2.691  12.176  19.344  0.00  0.00    +0.000 A 
BRANCH   5  13
ATOM     13  C   UNL     1      -2.817  14.395  22.935  0.00  0.00    +0.000 A 
ATOM     14  C   UNL     1      -2.569  15.751  23.065  0.00  0.00    +0.000 A 
ATOM     15  C   UNL     1      -2.588  16.040  24.451  0.00  0.00    +0.000 A 
ATOM     16  C   UNL     1      -2.843  14.848  25.086  0.00  0.00    +0.000 A 
ATOM     17  O   UNL     1      -2.987  13.850  24.179  0.00  0.00    +0.000 OA
ENDBRANCH   5  13
ENDBRANCH   1   2
BRANCH   1  18
ATOM     18  C   UNL     1       0.420  10.963  19.489  0.00  0.00    +0.000 A 
ATOM     19  C   UNL     1       0.478  10.044  20.522  0.00  0.00    +0.000 A 
ATOM     20  C   UNL     1       1.194   8.919  20.043  0.00  0.00    +0.000 A 
ATOM     21  C   UNL     1       1.617   7.695  20.588  0.00  0.00    +0.000 A 
ATOM     22  C   UNL     1       2.337   6.810  19.775  0.00  0.00    +0.000 A 
ATOM     23  C   UNL     1       2.626   7.128  18.446  0.00  0.00    +0.000 A 
ATOM     24  C   UNL     1       2.211   8.342  17.885  0.00  0.00    +0.000 A 
ATOM     25  C   UNL     1       1.504   9.205  18.721  0.00  0.00    +0.000 A 
ATOM     26  O   UNL     1       1.030  10.435  18.380  0.00  0.00    +0.000 OA
ENDBRANCH   1  18
BRANCH   1  28
ATOM     27  O   UNL     1       2.074  13.102  20.138  0.00  0.00    +0.000 OA
ATOM     28  C   UNL     1       0.977  13.406  19.668  0.00  0.00    +0.000 C 
ATOM     29  N   UNL     1       0.662  14.729  19.378  0.00  0.00    +0.000 N 
ATOM     30  H   UNL     1      -0.301  14.980  19.187  0.00  0.00    +0.000 HD
BRANCH  29  31
ATOM     31  C   UNL     1       1.650  15.783  19.608  0.00  0.00    +0.000 C 
ATOM     32  C   UNL     1       1.942  16.598  18.340  0.00  0.00    +0.000 C 
ATOM     33  C   UNL     1       0.878  17.644  18.017  0.00  0.00    +0.000 C 
ATOM     34  C   UNL     1       0.559  18.517  19.224  0.00  0.00    +0.000 C 
ATOM     35  C   UNL     1       0.150  17.671  20.424  0.00  0.00    +0.000 C 
ATOM     36  C   UNL     1       1.244  16.670  20.791  0.00  0.00    +0.000 C 
ENDBRANCH  29  31
ENDBRANCH   1  28
TORSDOF 5
ENDMDL
MODEL 8
REMARK VINA RESULT:      -7.3      1.005      1.317
REMARK  Name = 
REMARK  5 active torsions:
REMARK  status: ('A' for Active; 'I' for Inactive)
REMARK    1  A    between atoms: C_2  and  C_10
REMARK    2  A    between atoms: N_3  and  C_4
REMARK    3  A    between atoms: C_10  and  C_11
REMARK    4  A    between atoms: C_10  and  N_20
REMARK    5  A    between atoms: C_23  and  C_24
REMARK                            x       y       z     vdW  Elec       q    Type
REMARK                         _______ _______ _______ _____ _____    ______ ____
ROOT
ATOM      1  C   UNL     1       0.444  11.612  18.267  0.00  0.00    +0.000 C 
ENDROOT
BRANCH   1   2
ATOM      2  N   UNL     1      -0.928  11.740  18.790  0.00  0.00    +0.000 N 
ATOM      3  C   UNL     1      -1.047  12.217  20.099  0.00  0.00    +0.000 A 
ATOM      4  O   UNL     1      -0.119  12.224  20.904  0.00  0.00    +0.000 OA
ATOM      5  C   UNL     1      -2.433  12.691  20.531  0.00  0.00    +0.000 A 
ATOM      6  N   UNL     1      -3.507  12.436  19.848  0.00  0.00    +0.000 NA
ATOM      7  C   UNL     1      -3.366  11.827  18.594  0.00  0.00    +0.000 A 
ATOM      8  C   UNL     1      -4.546  11.638  17.860  0.00  0.00    +0.000 A 
ATOM      9  C   UNL     1      -4.512  11.114  16.572  0.00  0.00    +0.000 A 
ATOM     10  C   UNL     1      -3.291  10.773  16.010  0.00  0.00    +0.000 A 
ATOM     11  C   UNL     1      -2.108  10.964  16.730  0.00  0.00    +0.000 A 
ATOM     12  C   UNL     1      -2.117  11.501  18.025  0.00  0.00    +0.000 A 
BRANCH   5  13
ATOM     13  C   UNL     1      -2.532  13.488  21.728  0.00  0.00    +0.000 A 
ATOM     14  C   UNL     1      -2.406  14.850  21.943  0.00  0.00    +0.000 A 
ATOM     15  C   UNL     1      -2.464  15.052  23.344  0.00  0.00    +0.000 A 
ATOM     16  C   UNL     1      -2.618  13.806  23.902  0.00  0.00    +0.000 A 
ATOM     17  O   UNL     1      -2.664  12.856  22.936  0.00  0.00    +0.000 OA
ENDBRANCH   5  13
ENDBRANCH   1   2
BRANCH   1  18
ATOM     18  C   UNL     1       1.018  10.252  18.577  0.00  0.00    +0.000 A 
ATOM     19  C   UNL     1       0.952   9.383  19.652  0.00  0.00    +0.000 A 
ATOM     20  C   UNL     1       1.786   8.277  19.350  0.00  0.00    +0.000 A 
ATOM     21  C   UNL     1       2.172   7.103  20.018  0.00  0.00    +0.000 A 
ATOM     22  C   UNL     1       3.053   6.223  19.375  0.00  0.00    +0.000 A 
ATOM     23  C   UNL     1       3.536   6.499  18.094  0.00  0.00    +0.000 A 
ATOM     24  C   UNL     1       3.161   7.663  17.413  0.00  0.00    +0.000 A 
ATOM     25  C   UNL     1       2.291   8.522  18.081  0.00  0.00    +0.000 A 
ATOM     26  O   UNL     1       1.822   9.709  17.606  0.00  0.00    +0.000 OA
ENDBRANCH   1  18
BRANCH   1  28
ATOM     27  O   UNL     1       2.696  12.544  18.553  0.00  0.00    +0.000 OA
ATOM     28  C   UNL     1       1.477  12.721  18.600  0.00  0.00    +0.000 C 
ATOM     29  N   UNL     1       0.946  13.961  18.938  0.00  0.00    +0.000 N 
ATOM     30  H   UNL     1      -0.039  14.034  19.167  0.00  0.00    +0.000 HD
BRANCH  29  31
ATOM     31  C   UNL     1       1.837  15.087  19.219  0.00  0.00    +0.000 C 
ATOM     32  C   UNL     1       1.236  16.431  18.786  0.00  0.00    +0.000 C 
ATOM     33  C   UNL     1       0.198  16.987  19.758  0.00  0.00    +0.000 C 
ATOM     34  C   UNL     1       0.716  17.003  21.190  0.00  0.00    +0.000 C 
ATOM     35  C   UNL     1       1.184  15.618  21.622  0.00  0.00    +0.000 C 
ATOM     36  C   UNL     1       2.273  15.089  20.690  0.00  0.00    +0.000 C 
ENDBRANCH  29  31
ENDBRANCH   1  28
TORSDOF 5
ENDMDL
MODEL 9
REMARK VINA RESULT:      -7.3      2.473      7.100
REMARK  Name = 
REMARK  5 active torsions:
REMARK  status: ('A' for Active; 'I' for Inactive)
REMARK    1  A    between atoms: C_2  and  C_10
REMARK    2  A    between atoms: N_3  and  C_4
REMARK    3  A    between atoms: C_10  and  C_11
REMARK    4  A    between atoms: C_10  and  N_20
REMARK    5  A    between atoms: C_23  and  C_24
REMARK                            x       y       z     vdW  Elec       q    Type
REMARK                         _______ _______ _______ _____ _____    ______ ____
ROOT
ATOM      1  C   UNL     1       0.944  14.756  20.556  0.00  0.00    +0.000 C 
ENDROOT
BRANCH   1   2
ATOM      2  N   UNL     1       1.695  15.686  19.694  0.00  0.00    +0.000 N 
ATOM      3  C   UNL     1       3.089  15.593  19.755  0.00  0.00    +0.000 A 
ATOM      4  O   UNL     1       3.692  15.041  20.672  0.00  0.00    +0.000 OA
ATOM      5  C   UNL     1       3.870  16.279  18.635  0.00  0.00    +0.000 A 
ATOM      6  N   UNL     1       3.324  17.123  17.813  0.00  0.00    +0.000 NA
ATOM      7  C   UNL     1       1.935  17.299  17.870  0.00  0.00    +0.000 A 
ATOM      8  C   UNL     1       1.382  18.165  16.916  0.00  0.00    +0.000 A 
ATOM      9  C   UNL     1       0.006  18.352  16.831  0.00  0.00    +0.000 A 
ATOM     10  C   UNL     1      -0.826  17.672  17.709  0.00  0.00    +0.000 A 
ATOM     11  C   UNL     1      -0.285  16.802  18.660  0.00  0.00    +0.000 A 
ATOM     12  C   UNL     1       1.097  16.589  18.755  0.00  0.00    +0.000 A 
BRANCH   5  13
ATOM     13  C   UNL     1       5.259  15.932  18.471  0.00  0.00    +0.000 A 
ATOM     14  C   UNL     1       6.424  16.614  18.780  0.00  0.00    +0.000 A 
ATOM     15  C   UNL     1       7.498  15.845  18.268  0.00  0.00    +0.000 A 
ATOM     16  C   UNL     1       6.929  14.744  17.675  0.00  0.00    +0.000 A 
ATOM     17  O   UNL     1       5.579  14.785  17.795  0.00  0.00    +0.000 OA
ENDBRANCH   5  13
ENDBRANCH   1   2
BRANCH   1  18
ATOM     18  C   UNL     1       0.324  13.644  19.744  0.00  0.00    +0.000 A 
ATOM     19  C   UNL     1      -0.880  13.467  19.085  0.00  0.00    +0.000 A 
ATOM     20  C   UNL     1      -0.882  12.149  18.564  0.00  0.00    +0.000 A 
ATOM     21  C   UNL     1      -1.795  11.359  17.845  0.00  0.00    +0.000 A 
ATOM     22  C   UNL     1      -1.428  10.050  17.504  0.00  0.00    +0.000 A 
ATOM     23  C   UNL     1      -0.179   9.538  17.862  0.00  0.00    +0.000 A 
ATOM     24  C   UNL     1       0.744  10.312  18.576  0.00  0.00    +0.000 A 
ATOM     25  C   UNL     1       0.347  11.605  18.908  0.00  0.00    +0.000 A 
ATOM     26  O   UNL     1       1.083  12.509  19.612  0.00  0.00    +0.000 OA
ENDBRANCH   1  18
BRANCH   1  28
ATOM     27  O   UNL     1       0.017  16.445  22.075  0.00  0.00    +0.000 OA
ATOM     28  C   UNL     1      -0.093  15.333  21.555  0.00  0.00    +0.000 C 
ATOM     29  N   UNL     1      -1.193  14.524  21.821  0.00  0.00    +0.000 N 
ATOM     30  H   UNL     1      -1.167  13.547  21.550  0.00  0.00    +0.000 HD
BRANCH  29  31
ATOM     31  C   UNL     1      -2.252  14.998  22.711  0.00  0.00    +0.000 C 
ATOM     32  C   UNL     1      -3.581  15.213  21.974  0.00  0.00    +0.000 C 
ATOM     33  C   UNL     1      -4.358  13.926  21.707  0.00  0.00    +0.000 C 
ATOM     34  C   UNL     1      -4.508  13.085  22.968  0.00  0.00    +0.000 C 
ATOM     35  C   UNL     1      -3.152  12.788  23.597  0.00  0.00    +0.000 C 
ATOM     36  C   UNL     1      -2.403  14.077  23.928  0.00  0.00    +0.000 C 
ENDBRANCH  29  31
ENDBRANCH   1  28
TORSDOF 5
ENDMDL
