MODEL 1
REMARK VINA RESULT:      -7.5      0.000      0.000
REMARK  Name = 
REMARK  11 active torsions:
REMARK  status: ('A' for Active; 'I' for Inactive)
REMARK    1  A    between atoms: C_1  and  C_2
REMARK    2  A    between atoms: C_2  and  O_3
REMARK    3  A    between atoms: O_3  and  C_4
REMARK    4  A    between atoms: C_4  and  C_6
REMARK    5  A    between atoms: C_14  and  N_15
REMARK    6  A    between atoms: C_16  and  C_18
REMARK    7  A    between atoms: C_18  and  C_19
REMARK    8  A    between atoms: C_19  and  N_20
REMARK    9  A    between atoms: C_24  and  O_26
REMARK   10  A    between atoms: O_26  and  C_27
REMARK   11  A    between atoms: C_27  and  C_28
REMARK                            x       y       z     vdW  Elec       q    Type
REMARK                         _______ _______ _______ _____ _____    ______ ____
ROOT
ATOM      1  N   UNL     1       2.676   6.619  17.934  0.00  0.00    +0.000 N 
ATOM      2  C   UNL     1       2.176   7.711  18.603  0.00  0.00    +0.000 C 
ATOM      3  O   UNL     1       2.162   7.893  19.819  0.00  0.00    +0.000 OA
ATOM      4  H   UNL     1       2.834   6.700  16.927  0.00  0.00    +0.000 HD
ENDROOT
BRANCH   1  13
ATOM      5  C   UNL     1       4.498   5.040  18.252  0.00  0.00    +0.000 A 
ATOM      6  N   UNL     1       4.731   3.927  19.023  0.00  0.00    +0.000 N 
ATOM      7  C   UNL     1       3.629   3.607  19.774  0.00  0.00    +0.000 A 
ATOM      8  C   UNL     1       3.445   2.563  20.692  0.00  0.00    +0.000 A 
ATOM      9  C   UNL     1       2.200   2.453  21.316  0.00  0.00    +0.000 A 
ATOM     10  C   UNL     1       1.171   3.327  20.999  0.00  0.00    +0.000 A 
ATOM     11  C   UNL     1       1.369   4.341  20.059  0.00  0.00    +0.000 A 
ATOM     12  C   UNL     1       2.632   4.533  19.457  0.00  0.00    +0.000 A 
ATOM     13  C   UNL     1       3.206   5.472  18.529  0.00  0.00    +0.000 A 
ATOM     14  H   UNL     1       5.598   3.406  19.020  0.00  0.00    +0.000 HD
BRANCH   5  15
ATOM     15  C   UNL     1       5.458   5.594  17.330  0.00  0.00    +0.000 C 
ATOM     16  O   UNL     1       5.413   6.729  16.872  0.00  0.00    +0.000 OA
BRANCH  15  17
ATOM     17  O   UNL     1       6.353   4.631  16.970  0.00  0.00    +0.000 OA
BRANCH  17  19
ATOM     18  C   UNL     1       5.919   4.075  14.693  0.00  0.00    +0.000 C 
ATOM     19  C   UNL     1       6.886   4.758  15.645  0.00  0.00    +0.000 C 
ENDBRANCH  17  19
ENDBRANCH  15  17
ENDBRANCH   5  15
ENDBRANCH   1  13
BRANCH   2  20
ATOM     20  C   UNL     1       1.725   8.839  17.713  0.00  0.00    +0.000 C 
BRANCH  20  21
ATOM     21  C   UNL     1       1.727  10.107  18.568  0.00  0.00    +0.000 C 
BRANCH  21  22
ATOM     22  N   UNL     1       0.438  10.816  18.629  0.00  0.00    +0.000 NA
ATOM     23  C   UNL     1      -0.577  10.110  19.451  0.00  0.00    +0.000 C 
ATOM     24  C   UNL     1      -0.256  10.058  20.958  0.00  0.00    +0.000 C 
ATOM     25  N   UNL     1      -0.001  11.395  21.482  0.00  0.00    +0.000 N 
ATOM     26  C   UNL     1      -0.728  11.855  22.557  0.00  0.00    +0.000 C 
ATOM     27  O   UNL     1      -1.584  11.199  23.137  0.00  0.00    +0.000 OA
ATOM     28  C   UNL     1       0.949  12.205  20.719  0.00  0.00    +0.000 C 
ATOM     29  C   UNL     1       0.633  12.174  19.205  0.00  0.00    +0.000 C 
BRANCH  26  30
ATOM     30  O   UNL     1      -0.448  13.154  22.849  0.00  0.00    +0.000 OA
BRANCH  30  31
ATOM     31  C   UNL     1      -1.469  13.841  23.581  0.00  0.00    +0.000 C 
ATOM     32  C   UNL     1      -1.502  15.276  23.085  0.00  0.00    +0.000 C 
ENDBRANCH  30  31
ENDBRANCH  26  30
ENDBRANCH  21  22
ENDBRANCH  20  21
ENDBRANCH   2  20
TORSDOF 9
ENDMDL
MODEL 2
REMARK VINA RESULT:      -7.4      5.613      7.073
REMARK  Name = 
REMARK  11 active torsions:
REMARK  status: ('A' for Active; 'I' for Inactive)
REMARK    1  A    between atoms: C_1  and  C_2
REMARK    2  A    between atoms: C_2  and  O_3
REMARK    3  A    between atoms: O_3  and  C_4
REMARK    4  A    between atoms: C_4  and  C_6
REMARK    5  A    between atoms: C_14  and  N_15
REMARK    6  A    between atoms: C_16  and  C_18
REMARK    7  A    between atoms: C_18  and  C_19
REMARK    8  A    between atoms: C_19  and  N_20
REMARK    9  A    between atoms: C_24  and  O_26
REMARK   10  A    between atoms: O_26  and  C_27
REMARK   11  A    between atoms: C_27  and  C_28
REMARK                            x       y       z     vdW  Elec       q    Type
REMARK                         _______ _______ _______ _____ _____    ______ ____
ROOT
ATOM      1  N   UNL     1       6.403   7.294  16.832  0.00  0.00    +0.000 N 
ATOM      2  C   UNL     1       7.458   7.488  17.692  0.00  0.00    +0.000 C 
ATOM      3  O   UNL     1       7.864   6.711  18.556  0.00  0.00    +0.000 OA
ATOM      4  H   UNL     1       6.322   7.909  16.021  0.00  0.00    +0.000 HD
ENDROOT
BRANCH   1  13
ATOM      5  C   UNL     1       5.776   5.092  16.010  0.00  0.00    +0.000 A 
ATOM      6  N   UNL     1       4.794   4.169  16.278  0.00  0.00    +0.000 N 
ATOM      7  C   UNL     1       3.921   4.637  17.226  0.00  0.00    +0.000 A 
ATOM      8  C   UNL     1       2.795   4.019  17.788  0.00  0.00    +0.000 A 
ATOM      9  C   UNL     1       2.062   4.735  18.738  0.00  0.00    +0.000 A 
ATOM     10  C   UNL     1       2.417   6.032  19.074  0.00  0.00    +0.000 A 
ATOM     11  C   UNL     1       3.526   6.639  18.479  0.00  0.00    +0.000 A 
ATOM     12  C   UNL     1       4.338   5.926  17.568  0.00  0.00    +0.000 A 
ATOM     13  C   UNL     1       5.546   6.191  16.831  0.00  0.00    +0.000 A 
ATOM     14  H   UNL     1       4.720   3.272  15.818  0.00  0.00    +0.000 HD
BRANCH   5  15
ATOM     15  C   UNL     1       6.814   4.899  15.029  0.00  0.00    +0.000 C 
ATOM     16  O   UNL     1       7.735   5.680  14.824  0.00  0.00    +0.000 OA
BRANCH  15  17
ATOM     17  O   UNL     1       6.551   3.777  14.303  0.00  0.00    +0.000 OA
BRANCH  17  19
ATOM     18  C   UNL     1       5.352   3.332  12.291  0.00  0.00    +0.000 C 
ATOM     19  C   UNL     1       6.613   3.943  12.879  0.00  0.00    +0.000 C 
ENDBRANCH  17  19
ENDBRANCH  15  17
ENDBRANCH   5  15
ENDBRANCH   1  13
BRANCH   2  20
ATOM     20  C   UNL     1       8.258   8.737  17.431  0.00  0.00    +0.000 C 
BRANCH  20  21
ATOM     21  C   UNL     1       8.495   9.403  18.786  0.00  0.00    +0.000 C 
BRANCH  21  22
ATOM     22  N   UNL     1       9.749  10.168  18.890  0.00  0.00    +0.000 NA
ATOM     23  C   UNL     1       9.888  11.206  17.838  0.00  0.00    +0.000 C 
ATOM     24  C   UNL     1       8.883  12.369  17.950  0.00  0.00    +0.000 C 
ATOM     25  N   UNL     1       8.927  12.968  19.280  0.00  0.00    +0.000 N 
ATOM     26  C   UNL     1       9.151  14.320  19.411  0.00  0.00    +0.000 C 
ATOM     27  O   UNL     1       9.300  15.085  18.466  0.00  0.00    +0.000 OA
ATOM     28  C   UNL     1       8.850  12.030  20.402  0.00  0.00    +0.000 C 
ATOM     29  C   UNL     1       9.824  10.843  20.215  0.00  0.00    +0.000 C 
BRANCH  26  30
ATOM     30  O   UNL     1       9.274  14.697  20.713  0.00  0.00    +0.000 OA
BRANCH  30  31
ATOM     31  C   UNL     1      10.601  15.054  21.114  0.00  0.00    +0.000 C 
ATOM     32  C   UNL     1      10.492  15.850  22.403  0.00  0.00    +0.000 C 
ENDBRANCH  30  31
ENDBRANCH  26  30
ENDBRANCH  21  22
ENDBRANCH  20  21
ENDBRANCH   2  20
TORSDOF 9
ENDMDL
MODEL 3
REMARK VINA RESULT:      -7.3      1.688      2.025
REMARK  Name = 
REMARK  11 active torsions:
REMARK  status: ('A' for Active; 'I' for Inactive)
REMARK    1  A    between atoms: C_1  and  C_2
REMARK    2  A    between atoms: C_2  and  O_3
REMARK    3  A    between atoms: O_3  and  C_4
REMARK    4  A    between atoms: C_4  and  C_6
REMARK    5  A    between atoms: C_14  and  N_15
REMARK    6  A    between atoms: C_16  and  C_18
REMARK    7  A    between atoms: C_18  and  C_19
REMARK    8  A    between atoms: C_19  and  N_20
REMARK    9  A    between atoms: C_24  and  O_26
REMARK   10  A    between atoms: O_26  and  C_27
REMARK   11  A    between atoms: C_27  and  C_28
REMARK                            x       y       z     vdW  Elec       q    Type
REMARK                         _______ _______ _______ _____ _____    ______ ____
ROOT
ATOM      1  N   UNL     1       2.849   6.942  17.463  0.00  0.00    +0.000 N 
ATOM      2  C   UNL     1       2.383   7.695  18.515  0.00  0.00    +0.000 C 
ATOM      3  O   UNL     1       2.344   7.368  19.701  0.00  0.00    +0.000 OA
ATOM      4  H   UNL     1       3.038   7.415  16.577  0.00  0.00    +0.000 HD
ENDROOT
BRANCH   1  13
ATOM      5  C   UNL     1       4.541   5.252  17.019  0.00  0.00    +0.000 A 
ATOM      6  N   UNL     1       4.718   3.919  17.301  0.00  0.00    +0.000 N 
ATOM      7  C   UNL     1       3.635   3.407  17.969  0.00  0.00    +0.000 A 
ATOM      8  C   UNL     1       3.412   2.108  18.447  0.00  0.00    +0.000 A 
ATOM      9  C   UNL     1       2.198   1.848  19.089  0.00  0.00    +0.000 A 
ATOM     10  C   UNL     1       1.233   2.837  19.206  0.00  0.00    +0.000 A 
ATOM     11  C   UNL     1       1.467   4.116  18.696  0.00  0.00    +0.000 A 
ATOM     12  C   UNL     1       2.707   4.443  18.103  0.00  0.00    +0.000 A 
ATOM     13  C   UNL     1       3.309   5.626  17.544  0.00  0.00    +0.000 A 
ATOM     14  H   UNL     1       5.534   3.386  17.031  0.00  0.00    +0.000 HD
BRANCH   5  15
ATOM     15  C   UNL     1       5.493   6.053  16.291  0.00  0.00    +0.000 C 
ATOM     16  O   UNL     1       5.220   6.763  15.331  0.00  0.00    +0.000 OA
BRANCH  15  17
ATOM     17  O   UNL     1       6.748   5.814  16.767  0.00  0.00    +0.000 OA
BRANCH  17  19
ATOM     18  C   UNL     1       7.810   7.765  17.631  0.00  0.00    +0.000 C 
ATOM     19  C   UNL     1       7.074   6.486  17.992  0.00  0.00    +0.000 C 
ENDBRANCH  17  19
ENDBRANCH  15  17
ENDBRANCH   5  15
ENDBRANCH   1  13
BRANCH   2  20
ATOM     20  C   UNL     1       2.009   9.109  18.158  0.00  0.00    +0.000 C 
BRANCH  20  21
ATOM     21  C   UNL     1       1.094   9.621  19.271  0.00  0.00    +0.000 C 
BRANCH  21  22
ATOM     22  N   UNL     1       1.063  11.085  19.424  0.00  0.00    +0.000 NA
ATOM     23  C   UNL     1      -0.105  11.715  18.758  0.00  0.00    +0.000 C 
ATOM     24  C   UNL     1      -1.466  11.374  19.396  0.00  0.00    +0.000 C 
ATOM     25  N   UNL     1      -1.460  11.670  20.824  0.00  0.00    +0.000 N 
ATOM     26  C   UNL     1      -2.422  12.501  21.352  0.00  0.00    +0.000 C 
ATOM     27  O   UNL     1      -3.323  13.011  20.696  0.00  0.00    +0.000 OA
ATOM     28  C   UNL     1      -0.323  11.139  21.578  0.00  0.00    +0.000 C 
ATOM     29  C   UNL     1       1.018  11.443  20.868  0.00  0.00    +0.000 C 
BRANCH  26  30
ATOM     30  O   UNL     1      -2.210  12.762  22.670  0.00  0.00    +0.000 OA
BRANCH  30  31
ATOM     31  C   UNL     1      -3.277  12.372  23.541  0.00  0.00    +0.000 C 
ATOM     32  C   UNL     1      -3.695  13.599  24.333  0.00  0.00    +0.000 C 
ENDBRANCH  30  31
ENDBRANCH  26  30
ENDBRANCH  21  22
ENDBRANCH  20  21
ENDBRANCH   2  20
TORSDOF 9
ENDMDL
MODEL 4
REMARK VINA RESULT:      -7.3      0.774      1.115
REMARK  Name = 
REMARK  11 active torsions:
REMARK  status: ('A' for Active; 'I' for Inactive)
REMARK    1  A    between atoms: C_1  and  C_2
REMARK    2  A    between atoms: C_2  and  O_3
REMARK    3  A    between atoms: O_3  and  C_4
REMARK    4  A    between atoms: C_4  and  C_6
REMARK    5  A    between atoms: C_14  and  N_15
REMARK    6  A    between atoms: C_16  and  C_18
REMARK    7  A    between atoms: C_18  and  C_19
REMARK    8  A    between atoms: C_19  and  N_20
REMARK    9  A    between atoms: C_24  and  O_26
REMARK   10  A    between atoms: O_26  and  C_27
REMARK   11  A    between atoms: C_27  and  C_28
REMARK                            x       y       z     vdW  Elec       q    Type
REMARK                         _______ _______ _______ _____ _____    ______ ____
ROOT
ATOM      1  N   UNL     1       2.684   6.835  17.873  0.00  0.00    +0.000 N 
ATOM      2  C   UNL     1       2.180   7.883  18.606  0.00  0.00    +0.000 C 
ATOM      3  O   UNL     1       2.149   7.983  19.832  0.00  0.00    +0.000 OA
ATOM      4  H   UNL     1       2.858   6.982  16.877  0.00  0.00    +0.000 HD
ENDROOT
BRANCH   1  13
ATOM      5  C   UNL     1       4.440   5.158  18.006  0.00  0.00    +0.000 A 
ATOM      6  N   UNL     1       4.676   4.015  18.731  0.00  0.00    +0.000 N 
ATOM      7  C   UNL     1       3.624   3.732  19.564  0.00  0.00    +0.000 A 
ATOM      8  C   UNL     1       3.460   2.676  20.472  0.00  0.00    +0.000 A 
ATOM      9  C   UNL     1       2.266   2.615  21.195  0.00  0.00    +0.000 A 
ATOM     10  C   UNL     1       1.262   3.548  20.983  0.00  0.00    +0.000 A 
ATOM     11  C   UNL     1       1.436   4.574  20.051  0.00  0.00    +0.000 A 
ATOM     12  C   UNL     1       2.655   4.716  19.351  0.00  0.00    +0.000 A 
ATOM     13  C   UNL     1       3.200   5.648  18.398  0.00  0.00    +0.000 A 
ATOM     14  H   UNL     1       5.510   3.450  18.644  0.00  0.00    +0.000 HD
BRANCH   5  15
ATOM     15  C   UNL     1       5.349   5.685  17.019  0.00  0.00    +0.000 C 
ATOM     16  O   UNL     1       5.010   6.237  15.980  0.00  0.00    +0.000 OA
BRANCH  15  17
ATOM     17  O   UNL     1       6.630   5.379  17.370  0.00  0.00    +0.000 OA
BRANCH  17  19
ATOM     18  C   UNL     1       7.649   7.525  17.569  0.00  0.00    +0.000 C 
ATOM     19  C   UNL     1       7.232   6.272  18.319  0.00  0.00    +0.000 C 
ENDBRANCH  17  19
ENDBRANCH  15  17
ENDBRANCH   5  15
ENDBRANCH   1  13
BRANCH   2  20
ATOM     20  C   UNL     1       1.748   9.071  17.788  0.00  0.00    +0.000 C 
BRANCH  20  21
ATOM     21  C   UNL     1       1.601  10.247  18.754  0.00  0.00    +0.000 C 
BRANCH  21  22
ATOM     22  N   UNL     1       0.254  10.839  18.811  0.00  0.00    +0.000 NA
ATOM     23  C   UNL     1      -0.692  10.056  19.645  0.00  0.00    +0.000 C 
ATOM     24  C   UNL     1      -0.363  10.052  21.152  0.00  0.00    +0.000 C 
ATOM     25  N   UNL     1      -0.227  11.413  21.658  0.00  0.00    +0.000 N 
ATOM     26  C   UNL     1      -0.989  11.821  22.730  0.00  0.00    +0.000 C 
ATOM     27  O   UNL     1      -1.782  11.098  23.321  0.00  0.00    +0.000 OA
ATOM     28  C   UNL     1       0.645  12.296  20.881  0.00  0.00    +0.000 C 
ATOM     29  C   UNL     1       0.329  12.216  19.369  0.00  0.00    +0.000 C 
BRANCH  26  30
ATOM     30  O   UNL     1      -0.825  13.144  23.004  0.00  0.00    +0.000 OA
BRANCH  30  31
ATOM     31  C   UNL     1      -2.039  13.901  23.066  0.00  0.00    +0.000 C 
ATOM     32  C   UNL     1      -1.679  15.307  23.514  0.00  0.00    +0.000 C 
ENDBRANCH  30  31
ENDBRANCH  26  30
ENDBRANCH  21  22
ENDBRANCH  20  21
ENDBRANCH   2  20
TORSDOF 9
ENDMDL
MODEL 5
REMARK VINA RESULT:      -7.3      1.555      1.880
REMARK  Name = 
REMARK  11 active torsions:
REMARK  status: ('A' for Active; 'I' for Inactive)
REMARK    1  A    between atoms: C_1  and  C_2
REMARK    2  A    between atoms: C_2  and  O_3
REMARK    3  A    between atoms: O_3  and  C_4
REMARK    4  A    between atoms: C_4  and  C_6
REMARK    5  A    between atoms: C_14  and  N_15
REMARK    6  A    between atoms: C_16  and  C_18
REMARK    7  A    between atoms: C_18  and  C_19
REMARK    8  A    between atoms: C_19  and  N_20
REMARK    9  A    between atoms: C_24  and  O_26
REMARK   10  A    between atoms: O_26  and  C_27
REMARK   11  A    between atoms: C_27  and  C_28
REMARK                            x       y       z     vdW  Elec       q    Type
REMARK                         _______ _______ _______ _____ _____    ______ ____
ROOT
ATOM      1  N   UNL     1       3.053   6.847  17.402  0.00  0.00    +0.000 N 
ATOM      2  C   UNL     1       2.516   7.590  18.426  0.00  0.00    +0.000 C 
ATOM      3  O   UNL     1       2.384   7.247  19.600  0.00  0.00    +0.000 OA
ATOM      4  H   UNL     1       3.314   7.330  16.540  0.00  0.00    +0.000 HD
ENDROOT
BRANCH   1  13
ATOM      5  C   UNL     1       4.762   5.147  17.078  0.00  0.00    +0.000 A 
ATOM      6  N   UNL     1       4.901   3.807  17.348  0.00  0.00    +0.000 N 
ATOM      7  C   UNL     1       3.759   3.295  17.908  0.00  0.00    +0.000 A 
ATOM      8  C   UNL     1       3.482   1.990  18.340  0.00  0.00    +0.000 A 
ATOM      9  C   UNL     1       2.214   1.731  18.867  0.00  0.00    +0.000 A 
ATOM     10  C   UNL     1       1.252   2.728  18.917  0.00  0.00    +0.000 A 
ATOM     11  C   UNL     1       1.541   4.014  18.453  0.00  0.00    +0.000 A 
ATOM     12  C   UNL     1       2.832   4.338  17.980  0.00  0.00    +0.000 A 
ATOM     13  C   UNL     1       3.492   5.524  17.498  0.00  0.00    +0.000 A 
ATOM     14  H   UNL     1       5.733   3.270  17.142  0.00  0.00    +0.000 HD
BRANCH   5  15
ATOM     15  C   UNL     1       5.782   5.950  16.451  0.00  0.00    +0.000 C 
ATOM     16  O   UNL     1       5.595   6.706  15.506  0.00  0.00    +0.000 OA
BRANCH  15  17
ATOM     17  O   UNL     1       6.994   5.658  17.003  0.00  0.00    +0.000 OA
BRANCH  17  19
ATOM     18  C   UNL     1       7.848   5.755  19.226  0.00  0.00    +0.000 C 
ATOM     19  C   UNL     1       7.442   6.574  18.013  0.00  0.00    +0.000 C 
ENDBRANCH  17  19
ENDBRANCH  15  17
ENDBRANCH   5  15
ENDBRANCH   1  13
BRANCH   2  20
ATOM     20  C   UNL     1       2.185   9.013  18.062  0.00  0.00    +0.000 C 
BRANCH  20  21
ATOM     21  C   UNL     1       1.079   9.469  19.015  0.00  0.00    +0.000 C 
BRANCH  21  22
ATOM     22  N   UNL     1       0.475  10.771  18.686  0.00  0.00    +0.000 NA
ATOM     23  C   UNL     1      -0.847  10.978  19.329  0.00  0.00    +0.000 C 
ATOM     24  C   UNL     1      -0.798  11.112  20.864  0.00  0.00    +0.000 C 
ATOM     25  N   UNL     1       0.143  12.151  21.265  0.00  0.00    +0.000 N 
ATOM     26  C   UNL     1      -0.281  13.180  22.076  0.00  0.00    +0.000 C 
ATOM     27  O   UNL     1      -1.420  13.279  22.517  0.00  0.00    +0.000 OA
ATOM     28  C   UNL     1       1.471  12.077  20.651  0.00  0.00    +0.000 C 
ATOM     29  C   UNL     1       1.376  11.873  19.121  0.00  0.00    +0.000 C 
BRANCH  26  30
ATOM     30  O   UNL     1       0.685  14.119  22.264  0.00  0.00    +0.000 OA
BRANCH  30  31
ATOM     31  C   UNL     1       0.260  15.470  22.050  0.00  0.00    +0.000 C 
ATOM     32  C   UNL     1       0.453  15.783  20.576  0.00  0.00    +0.000 C 
ENDBRANCH  30  31
ENDBRANCH  26  30
ENDBRANCH  21  22
ENDBRANCH  20  21
ENDBRANCH   2  20
TORSDOF 9
ENDMDL
MODEL 6
REMARK VINA RESULT:      -7.3      1.644      1.974
REMARK  Name = 
REMARK  11 active torsions:
REMARK  status: ('A' for Active; 'I' for Inactive)
REMARK    1  A    between atoms: C_1  and  C_2
REMARK    2  A    between atoms: C_2  and  O_3
REMARK    3  A    between atoms: O_3  and  C_4
REMARK    4  A    between atoms: C_4  and  C_6
REMARK    5  A    between atoms: C_14  and  N_15
REMARK    6  A    between atoms: C_16  and  C_18
REMARK    7  A    between atoms: C_18  and  C_19
REMARK    8  A    between atoms: C_19  and  N_20
REMARK    9  A    between atoms: C_24  and  O_26
REMARK   10  A    between atoms: O_26  and  C_27
REMARK   11  A    between atoms: C_27  and  C_28
REMARK                            x       y       z     vdW  Elec       q    Type
REMARK                         _______ _______ _______ _____ _____    ______ ____
ROOT
ATOM      1  N   UNL     1       3.043   7.013  17.380  0.00  0.00    +0.000 N 
ATOM      2  C   UNL     1       2.475   7.788  18.365  0.00  0.00    +0.000 C 
ATOM      3  O   UNL     1       2.316   7.485  19.546  0.00  0.00    +0.000 OA
ATOM      4  H   UNL     1       3.322   7.468  16.509  0.00  0.00    +0.000 HD
ENDROOT
BRANCH   1  13
ATOM      5  C   UNL     1       4.789   5.328  17.214  0.00  0.00    +0.000 A 
ATOM      6  N   UNL     1       4.922   3.995  17.520  0.00  0.00    +0.000 N 
ATOM      7  C   UNL     1       3.748   3.480  18.006  0.00  0.00    +0.000 A 
ATOM      8  C   UNL     1       3.454   2.180  18.442  0.00  0.00    +0.000 A 
ATOM      9  C   UNL     1       2.154   1.916  18.881  0.00  0.00    +0.000 A 
ATOM     10  C   UNL     1       1.180   2.902  18.842  0.00  0.00    +0.000 A 
ATOM     11  C   UNL     1       1.489   4.183  18.376  0.00  0.00    +0.000 A 
ATOM     12  C   UNL     1       2.807   4.513  17.990  0.00  0.00    +0.000 A 
ATOM     13  C   UNL     1       3.487   5.698  17.534  0.00  0.00    +0.000 A 
ATOM     14  H   UNL     1       5.772   3.465  17.385  0.00  0.00    +0.000 HD
BRANCH   5  15
ATOM     15  C   UNL     1       5.843   6.132  16.647  0.00  0.00    +0.000 C 
ATOM     16  O   UNL     1       6.476   6.984  17.256  0.00  0.00    +0.000 OA
BRANCH  15  17
ATOM     17  O   UNL     1       5.949   5.869  15.314  0.00  0.00    +0.000 OA
BRANCH  17  19
ATOM     18  C   UNL     1       6.331   3.961  13.937  0.00  0.00    +0.000 C 
ATOM     19  C   UNL     1       6.947   4.901  14.960  0.00  0.00    +0.000 C 
ENDBRANCH  17  19
ENDBRANCH  15  17
ENDBRANCH   5  15
ENDBRANCH   1  13
BRANCH   2  20
ATOM     20  C   UNL     1       2.144   9.195  17.943  0.00  0.00    +0.000 C 
BRANCH  20  21
ATOM     21  C   UNL     1       0.978   9.657  18.816  0.00  0.00    +0.000 C 
BRANCH  21  22
ATOM     22  N   UNL     1       1.206  10.919  19.539  0.00  0.00    +0.000 NA
ATOM     23  C   UNL     1       0.497  12.074  18.932  0.00  0.00    +0.000 C 
ATOM     24  C   UNL     1      -1.040  12.008  19.037  0.00  0.00    +0.000 C 
ATOM     25  N   UNL     1      -1.459  11.808  20.419  0.00  0.00    +0.000 N 
ATOM     26  C   UNL     1      -2.344  12.690  20.997  0.00  0.00    +0.000 C 
ATOM     27  O   UNL     1      -2.838  13.647  20.413  0.00  0.00    +0.000 OA
ATOM     28  C   UNL     1      -0.786  10.724  21.137  0.00  0.00    +0.000 C 
ATOM     29  C   UNL     1       0.749  10.787  20.949  0.00  0.00    +0.000 C 
BRANCH  26  30
ATOM     30  O   UNL     1      -2.544  12.428  22.317  0.00  0.00    +0.000 OA
BRANCH  30  31
ATOM     31  C   UNL     1      -3.890  12.611  22.771  0.00  0.00    +0.000 C 
ATOM     32  C   UNL     1      -3.887  12.467  24.283  0.00  0.00    +0.000 C 
ENDBRANCH  30  31
ENDBRANCH  26  30
ENDBRANCH  21  22
ENDBRANCH  20  21
ENDBRANCH   2  20
TORSDOF 9
ENDMDL
MODEL 7
REMARK VINA RESULT:      -7.2      1.472      1.730
REMARK  Name = 
REMARK  11 active torsions:
REMARK  status: ('A' for Active; 'I' for Inactive)
REMARK    1  A    between atoms: C_1  and  C_2
REMARK    2  A    between atoms: C_2  and  O_3
REMARK    3  A    between atoms: O_3  and  C_4
REMARK    4  A    between atoms: C_4  and  C_6
REMARK    5  A    between atoms: C_14  and  N_15
REMARK    6  A    between atoms: C_16  and  C_18
REMARK    7  A    between atoms: C_18  and  C_19
REMARK    8  A    between atoms: C_19  and  N_20
REMARK    9  A    between atoms: C_24  and  O_26
REMARK   10  A    between atoms: O_26  and  C_27
REMARK   11  A    between atoms: C_27  and  C_28
REMARK                            x       y       z     vdW  Elec       q    Type
REMARK                         _______ _______ _______ _____ _____    ______ ____
ROOT
ATOM      1  N   UNL     1       2.955   6.787  17.327  0.00  0.00    +0.000 N 
ATOM      2  C   UNL     1       2.445   7.616  18.298  0.00  0.00    +0.000 C 
ATOM      3  O   UNL     1       2.384   7.393  19.506  0.00  0.00    +0.000 OA
ATOM      4  H   UNL     1       3.155   7.186  16.408  0.00  0.00    +0.000 HD
ENDROOT
BRANCH   1  13
ATOM      5  C   UNL     1       4.731   5.135  17.156  0.00  0.00    +0.000 A 
ATOM      6  N   UNL     1       4.918   3.827  17.534  0.00  0.00    +0.000 N 
ATOM      7  C   UNL     1       3.790   3.318  18.123  0.00  0.00    +0.000 A 
ATOM      8  C   UNL     1       3.558   2.041  18.656  0.00  0.00    +0.000 A 
ATOM      9  C   UNL     1       2.295   1.776  19.190  0.00  0.00    +0.000 A 
ATOM     10  C   UNL     1       1.294   2.736  19.151  0.00  0.00    +0.000 A 
ATOM     11  C   UNL     1       1.540   3.990  18.589  0.00  0.00    +0.000 A 
ATOM     12  C   UNL     1       2.823   4.326  18.102  0.00  0.00    +0.000 A 
ATOM     13  C   UNL     1       3.443   5.495  17.533  0.00  0.00    +0.000 A 
ATOM     14  H   UNL     1       5.772   3.309  17.380  0.00  0.00    +0.000 HD
BRANCH   5  15
ATOM     15  C   UNL     1       5.728   5.925  16.476  0.00  0.00    +0.000 C 
ATOM     16  O   UNL     1       5.506   6.657  15.520  0.00  0.00    +0.000 OA
BRANCH  15  17
ATOM     17  O   UNL     1       6.958   5.649  16.993  0.00  0.00    +0.000 OA
BRANCH  17  19
ATOM     18  C   UNL     1       7.786   7.780  17.668  0.00  0.00    +0.000 C 
ATOM     19  C   UNL     1       7.320   6.417  18.150  0.00  0.00    +0.000 C 
ENDBRANCH  17  19
ENDBRANCH  15  17
ENDBRANCH   5  15
ENDBRANCH   1  13
BRANCH   2  20
ATOM     20  C   UNL     1       2.047   8.984  17.810  0.00  0.00    +0.000 C 
BRANCH  20  21
ATOM     21  C   UNL     1       1.649   9.797  19.042  0.00  0.00    +0.000 C 
BRANCH  21  22
ATOM     22  N   UNL     1       0.200   9.991  19.215  0.00  0.00    +0.000 NA
ATOM     23  C   UNL     1      -0.281   9.609  20.568  0.00  0.00    +0.000 C 
ATOM     24  C   UNL     1       0.225  10.517  21.706  0.00  0.00    +0.000 C 
ATOM     25  N   UNL     1      -0.071  11.917  21.425  0.00  0.00    +0.000 N 
ATOM     26  C   UNL     1      -0.778  12.662  22.342  0.00  0.00    +0.000 C 
ATOM     27  O   UNL     1      -1.172  12.229  23.419  0.00  0.00    +0.000 OA
ATOM     28  C   UNL     1       0.314  12.394  20.095  0.00  0.00    +0.000 C 
ATOM     29  C   UNL     1      -0.152  11.419  18.988  0.00  0.00    +0.000 C 
BRANCH  26  30
ATOM     30  O   UNL     1      -1.065  13.909  21.881  0.00  0.00    +0.000 OA
BRANCH  30  31
ATOM     31  C   UNL     1      -2.439  14.294  22.000  0.00  0.00    +0.000 C 
ATOM     32  C   UNL     1      -3.178  13.733  20.797  0.00  0.00    +0.000 C 
ENDBRANCH  30  31
ENDBRANCH  26  30
ENDBRANCH  21  22
ENDBRANCH  20  21
ENDBRANCH   2  20
TORSDOF 9
ENDMDL
MODEL 8
REMARK VINA RESULT:      -7.2      1.269      1.655
REMARK  Name = 
REMARK  11 active torsions:
REMARK  status: ('A' for Active; 'I' for Inactive)
REMARK    1  A    between atoms: C_1  and  C_2
REMARK    2  A    between atoms: C_2  and  O_3
REMARK    3  A    between atoms: O_3  and  C_4
REMARK    4  A    between atoms: C_4  and  C_6
REMARK    5  A    between atoms: C_14  and  N_15
REMARK    6  A    between atoms: C_16  and  C_18
REMARK    7  A    between atoms: C_18  and  C_19
REMARK    8  A    between atoms: C_19  and  N_20
REMARK    9  A    between atoms: C_24  and  O_26
REMARK   10  A    between atoms: O_26  and  C_27
REMARK   11  A    between atoms: C_27  and  C_28
REMARK                            x       y       z     vdW  Elec       q    Type
REMARK                         _______ _______ _______ _____ _____    ______ ____
ROOT
ATOM      1  N   UNL     1       2.621   6.935  17.936  0.00  0.00    +0.000 N 
ATOM      2  C   UNL     1       2.106   7.956  18.700  0.00  0.00    +0.000 C 
ATOM      3  O   UNL     1       2.058   8.012  19.928  0.00  0.00    +0.000 OA
ATOM      4  H   UNL     1       2.809   7.118  16.949  0.00  0.00    +0.000 HD
ENDROOT
BRANCH   1  13
ATOM      5  C   UNL     1       4.368   5.244  18.020  0.00  0.00    +0.000 A 
ATOM      6  N   UNL     1       4.596   4.079  18.711  0.00  0.00    +0.000 N 
ATOM      7  C   UNL     1       3.542   3.777  19.533  0.00  0.00    +0.000 A 
ATOM      8  C   UNL     1       3.371   2.695  20.409  0.00  0.00    +0.000 A 
ATOM      9  C   UNL     1       2.176   2.618  21.128  0.00  0.00    +0.000 A 
ATOM     10  C   UNL     1       1.177   3.562  20.943  0.00  0.00    +0.000 A 
ATOM     11  C   UNL     1       1.358   4.616  20.044  0.00  0.00    +0.000 A 
ATOM     12  C   UNL     1       2.578   4.772  19.349  0.00  0.00    +0.000 A 
ATOM     13  C   UNL     1       3.130   5.729  18.426  0.00  0.00    +0.000 A 
ATOM     14  H   UNL     1       5.428   3.513  18.608  0.00  0.00    +0.000 HD
BRANCH   5  15
ATOM     15  C   UNL     1       5.281   5.796  17.050  0.00  0.00    +0.000 C 
ATOM     16  O   UNL     1       4.954   6.507  16.108  0.00  0.00    +0.000 OA
BRANCH  15  17
ATOM     17  O   UNL     1       6.536   5.320  17.285  0.00  0.00    +0.000 OA
BRANCH  17  19
ATOM     18  C   UNL     1       7.849   5.809  19.213  0.00  0.00    +0.000 C 
ATOM     19  C   UNL     1       7.461   6.277  17.821  0.00  0.00    +0.000 C 
ENDBRANCH  17  19
ENDBRANCH  15  17
ENDBRANCH   5  15
ENDBRANCH   1  13
BRANCH   2  20
ATOM     20  C   UNL     1       1.685   9.173  17.918  0.00  0.00    +0.000 C 
BRANCH  20  21
ATOM     21  C   UNL     1       0.518   9.805  18.676  0.00  0.00    +0.000 C 
BRANCH  21  22
ATOM     22  N   UNL     1       0.736  11.197  19.102  0.00  0.00    +0.000 NA
ATOM     23  C   UNL     1      -0.359  12.111  18.688  0.00  0.00    +0.000 C 
ATOM     24  C   UNL     1      -1.708  11.850  19.387  0.00  0.00    +0.000 C 
ATOM     25  N   UNL     1      -1.551  11.850  20.837  0.00  0.00    +0.000 N 
ATOM     26  C   UNL     1      -2.325  12.690  21.606  0.00  0.00    +0.000 C 
ATOM     27  O   UNL     1      -3.176  13.445  21.152  0.00  0.00    +0.000 OA
ATOM     28  C   UNL     1      -0.464  11.020  21.358  0.00  0.00    +0.000 C 
ATOM     29  C   UNL     1       0.854  11.262  20.584  0.00  0.00    +0.000 C 
BRANCH  26  30
ATOM     30  O   UNL     1      -1.979  12.648  22.921  0.00  0.00    +0.000 OA
BRANCH  30  31
ATOM     31  C   UNL     1      -2.493  13.724  23.714  0.00  0.00    +0.000 C 
ATOM     32  C   UNL     1      -1.326  14.626  24.076  0.00  0.00    +0.000 C 
ENDBRANCH  30  31
ENDBRANCH  26  30
ENDBRANCH  21  22
ENDBRANCH  20  21
ENDBRANCH   2  20
TORSDOF 9
ENDMDL
MODEL 9
REMARK VINA RESULT:      -7.1      1.046      1.046
REMARK  Name = 
REMARK  11 active torsions:
REMARK  status: ('A' for Active; 'I' for Inactive)
REMARK    1  A    between atoms: C_1  and  C_2
REMARK    2  A    between atoms: C_2  and  O_3
REMARK    3  A    between atoms: O_3  and  C_4
REMARK    4  A    between atoms: C_4  and  C_6
REMARK    5  A    between atoms: C_14  and  N_15
REMARK    6  A    between atoms: C_16  and  C_18
REMARK    7  A    between atoms: C_18  and  C_19
REMARK    8  A    between atoms: C_19  and  N_20
REMARK    9  A    between atoms: C_24  and  O_26
REMARK   10  A    between atoms: O_26  and  C_27
REMARK   11  A    between atoms: C_27  and  C_28
REMARK                            x       y       z     vdW  Elec       q    Type
REMARK                         _______ _______ _______ _____ _____    ______ ____
ROOT
ATOM      1  N   UNL     1       3.068   6.718  17.360  0.00  0.00    +0.000 N 
ATOM      2  C   UNL     1       2.528   7.580  18.285  0.00  0.00    +0.000 C 
ATOM      3  O   UNL     1       2.354   7.367  19.484  0.00  0.00    +0.000 OA
ATOM      4  H   UNL     1       3.367   7.100  16.461  0.00  0.00    +0.000 HD
ENDROOT
BRANCH   1  13
ATOM      5  C   UNL     1       4.737   4.951  17.291  0.00  0.00    +0.000 A 
ATOM      6  N   UNL     1       4.822   3.641  17.697  0.00  0.00    +0.000 N 
ATOM      7  C   UNL     1       3.638   3.216  18.244  0.00  0.00    +0.000 A 
ATOM      8  C   UNL     1       3.300   1.967  18.785  0.00  0.00    +0.000 A 
ATOM      9  C   UNL     1       2.001   1.794  19.268  0.00  0.00    +0.000 A 
ATOM     10  C   UNL     1       1.068   2.816  19.171  0.00  0.00    +0.000 A 
ATOM     11  C   UNL     1       1.420   4.042  18.601  0.00  0.00    +0.000 A 
ATOM     12  C   UNL     1       2.742   4.285  18.166  0.00  0.00    +0.000 A 
ATOM     13  C   UNL     1       3.460   5.400  17.607  0.00  0.00    +0.000 A 
ATOM     14  H   UNL     1       5.646   3.065  17.587  0.00  0.00    +0.000 HD
BRANCH   5  15
ATOM     15  C   UNL     1       5.811   5.662  16.644  0.00  0.00    +0.000 C 
ATOM     16  O   UNL     1       5.819   6.867  16.424  0.00  0.00    +0.000 OA
BRANCH  15  17
ATOM     17  O   UNL     1       6.757   4.775  16.225  0.00  0.00    +0.000 OA
BRANCH  17  19
ATOM     18  C   UNL     1       6.113   3.993  14.067  0.00  0.00    +0.000 C 
ATOM     19  C   UNL     1       7.098   4.859  14.833  0.00  0.00    +0.000 C 
ENDBRANCH  17  19
ENDBRANCH  15  17
ENDBRANCH   5  15
ENDBRANCH   1  13
BRANCH   2  20
ATOM     20  C   UNL     1       2.254   8.966  17.766  0.00  0.00    +0.000 C 
BRANCH  20  21
ATOM     21  C   UNL     1       1.841   9.817  18.967  0.00  0.00    +0.000 C 
BRANCH  21  22
ATOM     22  N   UNL     1       0.417  10.188  19.005  0.00  0.00    +0.000 NA
ATOM     23  C   UNL     1      -0.292   9.656  20.196  0.00  0.00    +0.000 C 
ATOM     24  C   UNL     1       0.156  10.273  21.536  0.00  0.00    +0.000 C 
ATOM     25  N   UNL     1       0.077  11.728  21.491  0.00  0.00    +0.000 N 
ATOM     26  C   UNL     1      -0.656  12.401  22.443  0.00  0.00    +0.000 C 
ATOM     27  O   UNL     1      -1.246  11.853  23.366  0.00  0.00    +0.000 OA
ATOM     28  C   UNL     1       0.700  12.363  20.328  0.00  0.00    +0.000 C 
ATOM     29  C   UNL     1       0.278  11.670  19.011  0.00  0.00    +0.000 C 
BRANCH  26  30
ATOM     30  O   UNL     1      -0.720  13.737  22.195  0.00  0.00    +0.000 OA
BRANCH  30  31
ATOM     31  C   UNL     1      -1.021  14.548  23.336  0.00  0.00    +0.000 C 
ATOM     32  C   UNL     1      -1.345  15.944  22.833  0.00  0.00    +0.000 C 
ENDBRANCH  30  31
ENDBRANCH  26  30
ENDBRANCH  21  22
ENDBRANCH  20  21
ENDBRANCH   2  20
TORSDOF 9
ENDMDL
