MODEL 1
REMARK VINA RESULT:      -8.8      0.000      0.000
REMARK  Name = 
REMARK  7 active torsions:
REMARK  status: ('A' for Active; 'I' for Inactive)
REMARK    1  A    between atoms: C_1  and  C_2
REMARK    2  A    between atoms: C_7  and  C_8
REMARK    3  A    between atoms: C_8  and  N_9
REMARK    4  A    between atoms: C_13  and  C_15
REMARK    5  A    between atoms: C_17  and  N_18
REMARK    6  A    between atoms: C_28  and  O_29
REMARK    7  A    between atoms: C_30  and  O_31
REMARK                            x       y       z     vdW  Elec       q    Type
REMARK                         _______ _______ _______ _____ _____    ______ ____
ROOT
ATOM      1  C   UNL     1       0.927  10.187  20.109  0.00  0.00    +0.000 C 
ATOM      2  O   UNL     1      -0.237  10.411  19.288  0.00  0.00    +0.000 OA
ATOM      3  C   UNL     1      -0.719  11.750  19.551  0.00  0.00    +0.000 C 
ATOM      4  C   UNL     1      -0.404  11.996  21.021  0.00  0.00    +0.000 C 
ATOM      5  C   UNL     1       0.937  11.289  21.186  0.00  0.00    +0.000 C 
ENDROOT
BRANCH   3   6
ATOM      6  N   UNL     1      -2.128  11.844  19.226  0.00  0.00    +0.000 N 
ATOM      7  C   UNL     1      -3.144  12.273  20.032  0.00  0.00    +0.000 A 
ATOM      8  N   UNL     1      -4.306  12.299  19.414  0.00  0.00    +0.000 NA
ATOM      9  C   UNL     1      -4.043  11.801  18.153  0.00  0.00    +0.000 A 
ATOM     10  C   UNL     1      -4.855  11.575  17.026  0.00  0.00    +0.000 A 
ATOM     11  N   UNL     1      -6.216  11.863  16.979  0.00  0.00    +0.000 N 
ATOM     12  N   UNL     1      -4.287  11.074  15.909  0.00  0.00    +0.000 NA
ATOM     13  C   UNL     1      -2.962  10.791  15.935  0.00  0.00    +0.000 A 
ATOM     14  N   UNL     1      -2.087  10.970  16.943  0.00  0.00    +0.000 NA
ATOM     15  C   UNL     1      -2.694  11.493  18.019  0.00  0.00    +0.000 A 
ATOM     16  H   UNL     1      -6.502  12.570  17.646  0.00  0.00    +0.000 HD
ATOM     17  H   UNL     1      -6.542  11.959  16.026  0.00  0.00    +0.000 HD
ENDBRANCH   3   6
BRANCH   1  22
ATOM     18  N   UNL     1       3.646   6.036  19.047  0.00  0.00    +0.000 NA
ATOM     19  C   UNL     1       2.687   5.397  19.916  0.00  0.00    +0.000 C 
ATOM     20  C   UNL     1       1.939   6.490  20.701  0.00  0.00    +0.000 C 
ATOM     21  N   UNL     1       1.602   7.732  19.964  0.00  0.00    +0.000 N 
ATOM     22  C   UNL     1       1.059   8.767  20.738  0.00  0.00    +0.000 C 
ATOM     23  O   UNL     1       0.759   8.574  21.920  0.00  0.00    +0.000 OA
ATOM     24  C   UNL     1       2.260   8.004  18.673  0.00  0.00    +0.000 C 
ATOM     25  C   UNL     1       2.995   6.820  18.018  0.00  0.00    +0.000 C 
BRANCH  18  26
ATOM     26  C   UNL     1       5.051   5.693  18.998  0.00  0.00    +0.000 C 
BRANCH  26  33
ATOM     27  C   UNL     1       7.308   7.036  17.494  0.00  0.00    +0.000 C 
ATOM     28  C   UNL     1       6.706   5.741  17.019  0.00  0.00    +0.000 A 
ATOM     29  C   UNL     1       7.187   5.222  15.799  0.00  0.00    +0.000 A 
ATOM     30  C   UNL     1       6.463   4.264  15.104  0.00  0.00    +0.000 A 
ATOM     31  C   UNL     1       5.273   3.793  15.643  0.00  0.00    +0.000 A 
ATOM     32  C   UNL     1       4.858   4.209  16.916  0.00  0.00    +0.000 A 
ATOM     33  C   UNL     1       5.578   5.165  17.656  0.00  0.00    +0.000 A 
ENDBRANCH  26  33
ENDBRANCH  18  26
ENDBRANCH   1  22
BRANCH   4  34
ATOM     34  O   UNL     1      -0.320  13.376  21.365  0.00  0.00    +0.000 OA
ATOM     35  H   UNL     1      -1.134  13.600  21.861  0.00  0.00    +0.000 HD
ENDBRANCH   4  34
BRANCH   5  36
ATOM     36  O   UNL     1       2.006  12.234  21.000  0.00  0.00    +0.000 OA
ATOM     37  H   UNL     1       1.667  13.043  20.578  0.00  0.00    +0.000 HD
ENDBRANCH   5  36
TORSDOF 6
ENDMDL
MODEL 2
REMARK VINA RESULT:      -8.6      0.320      1.230
REMARK  Name = 
REMARK  7 active torsions:
REMARK  status: ('A' for Active; 'I' for Inactive)
REMARK    1  A    between atoms: C_1  and  C_2
REMARK    2  A    between atoms: C_7  and  C_8
REMARK    3  A    between atoms: C_8  and  N_9
REMARK    4  A    between atoms: C_13  and  C_15
REMARK    5  A    between atoms: C_17  and  N_18
REMARK    6  A    between atoms: C_28  and  O_29
REMARK    7  A    between atoms: C_30  and  O_31
REMARK                            x       y       z     vdW  Elec       q    Type
REMARK                         _______ _______ _______ _____ _____    ______ ____
ROOT
ATOM      1  C   UNL     1       0.862  10.206  20.174  0.00  0.00    +0.000 C 
ATOM      2  O   UNL     1      -0.299  10.422  19.346  0.00  0.00    +0.000 OA
ATOM      3  C   UNL     1      -0.761  11.776  19.567  0.00  0.00    +0.000 C 
ATOM      4  C   UNL     1      -0.443  12.062  21.029  0.00  0.00    +0.000 C 
ATOM      5  C   UNL     1       0.887  11.341  21.217  0.00  0.00    +0.000 C 
ENDROOT
BRANCH   3   6
ATOM      6  N   UNL     1      -2.168  11.881  19.238  0.00  0.00    +0.000 N 
ATOM      7  C   UNL     1      -3.182  12.324  20.039  0.00  0.00    +0.000 A 
ATOM      8  N   UNL     1      -4.342  12.357  19.418  0.00  0.00    +0.000 NA
ATOM      9  C   UNL     1      -4.081  11.848  18.161  0.00  0.00    +0.000 A 
ATOM     10  C   UNL     1      -4.892  11.622  17.034  0.00  0.00    +0.000 A 
ATOM     11  N   UNL     1      -6.250  11.922  16.982  0.00  0.00    +0.000 N 
ATOM     12  N   UNL     1      -4.326  11.107  15.922  0.00  0.00    +0.000 NA
ATOM     13  C   UNL     1      -3.004  10.813  15.953  0.00  0.00    +0.000 A 
ATOM     14  N   UNL     1      -2.130  10.991  16.961  0.00  0.00    +0.000 NA
ATOM     15  C   UNL     1      -2.735  11.526  18.033  0.00  0.00    +0.000 A 
ATOM     16  H   UNL     1      -6.532  12.635  17.643  0.00  0.00    +0.000 HD
ATOM     17  H   UNL     1      -6.574  12.015  16.028  0.00  0.00    +0.000 HD
ENDBRANCH   3   6
BRANCH   1  22
ATOM     18  N   UNL     1       3.455   5.956  19.191  0.00  0.00    +0.000 NA
ATOM     19  C   UNL     1       2.500   5.370  20.100  0.00  0.00    +0.000 C 
ATOM     20  C   UNL     1       1.796   6.506  20.865  0.00  0.00    +0.000 C 
ATOM     21  N   UNL     1       1.473   7.732  20.095  0.00  0.00    +0.000 N 
ATOM     22  C   UNL     1       0.973   8.805  20.847  0.00  0.00    +0.000 C 
ATOM     23  O   UNL     1       0.694   8.657  22.040  0.00  0.00    +0.000 OA
ATOM     24  C   UNL     1       2.110   7.945  18.782  0.00  0.00    +0.000 C 
ATOM     25  C   UNL     1       2.800   6.724  18.151  0.00  0.00    +0.000 C 
BRANCH  18  26
ATOM     26  C   UNL     1       4.850   5.577  19.124  0.00  0.00    +0.000 C 
BRANCH  26  33
ATOM     27  C   UNL     1       4.046   3.089  17.598  0.00  0.00    +0.000 C 
ATOM     28  C   UNL     1       4.932   4.139  16.983  0.00  0.00    +0.000 A 
ATOM     29  C   UNL     1       5.436   3.875  15.692  0.00  0.00    +0.000 A 
ATOM     30  C   UNL     1       6.526   4.579  15.200  0.00  0.00    +0.000 A 
ATOM     31  C   UNL     1       7.095   5.576  15.982  0.00  0.00    +0.000 A 
ATOM     32  C   UNL     1       6.517   5.930  17.210  0.00  0.00    +0.000 A 
ATOM     33  C   UNL     1       5.401   5.250  17.729  0.00  0.00    +0.000 A 
ENDBRANCH  26  33
ENDBRANCH  18  26
ENDBRANCH   1  22
BRANCH   4  34
ATOM     34  O   UNL     1      -0.338  13.450  21.331  0.00  0.00    +0.000 OA
ATOM     35  H   UNL     1      -0.342  13.932  20.479  0.00  0.00    +0.000 HD
ENDBRANCH   4  34
BRANCH   5  36
ATOM     36  O   UNL     1       1.970  12.264  21.004  0.00  0.00    +0.000 OA
ATOM     37  H   UNL     1       2.646  11.861  20.431  0.00  0.00    +0.000 HD
ENDBRANCH   5  36
TORSDOF 6
ENDMDL
MODEL 3
REMARK VINA RESULT:      -8.2      3.486      9.687
REMARK  Name = 
REMARK  7 active torsions:
REMARK  status: ('A' for Active; 'I' for Inactive)
REMARK    1  A    between atoms: C_1  and  C_2
REMARK    2  A    between atoms: C_7  and  C_8
REMARK    3  A    between atoms: C_8  and  N_9
REMARK    4  A    between atoms: C_13  and  C_15
REMARK    5  A    between atoms: C_17  and  N_18
REMARK    6  A    between atoms: C_28  and  O_29
REMARK    7  A    between atoms: C_30  and  O_31
REMARK                            x       y       z     vdW  Elec       q    Type
REMARK                         _______ _______ _______ _____ _____    ______ ____
ROOT
ATOM      1  C   UNL     1       2.457   5.107  18.500  0.00  0.00    +0.000 C 
ATOM      2  O   UNL     1       3.302   5.663  17.472  0.00  0.00    +0.000 OA
ATOM      3  C   UNL     1       4.002   4.571  16.830  0.00  0.00    +0.000 C 
ATOM      4  C   UNL     1       4.225   3.546  17.935  0.00  0.00    +0.000 C 
ATOM      5  C   UNL     1       2.939   3.664  18.746  0.00  0.00    +0.000 C 
ENDROOT
BRANCH   3   6
ATOM      6  N   UNL     1       5.225   5.055  16.220  0.00  0.00    +0.000 N 
ATOM      7  C   UNL     1       6.123   5.942  16.742  0.00  0.00    +0.000 A 
ATOM      8  N   UNL     1       7.167   6.126  15.960  0.00  0.00    +0.000 NA
ATOM      9  C   UNL     1       6.904   5.363  14.840  0.00  0.00    +0.000 A 
ATOM     10  C   UNL     1       7.621   5.133  13.651  0.00  0.00    +0.000 A 
ATOM     11  N   UNL     1       8.868   5.687  13.376  0.00  0.00    +0.000 N 
ATOM     12  N   UNL     1       7.089   4.308  12.724  0.00  0.00    +0.000 NA
ATOM     13  C   UNL     1       5.877   3.756  12.977  0.00  0.00    +0.000 A 
ATOM     14  N   UNL     1       5.107   3.893  14.072  0.00  0.00    +0.000 NA
ATOM     15  C   UNL     1       5.689   4.701  14.972  0.00  0.00    +0.000 A 
ATOM     16  H   UNL     1       9.383   5.952  14.206  0.00  0.00    +0.000 HD
ATOM     17  H   UNL     1       9.360   5.159  12.667  0.00  0.00    +0.000 HD
ENDBRANCH   3   6
BRANCH   1  22
ATOM     18  N   UNL     1       0.470   9.579  19.844  0.00  0.00    +0.000 NA
ATOM     19  C   UNL     1       1.314   9.409  21.002  0.00  0.00    +0.000 C 
ATOM     20  C   UNL     1       1.774   7.941  21.057  0.00  0.00    +0.000 C 
ATOM     21  N   UNL     1       2.102   7.293  19.765  0.00  0.00    +0.000 N 
ATOM     22  C   UNL     1       2.369   5.918  19.828  0.00  0.00    +0.000 C 
ATOM     23  O   UNL     1       2.463   5.347  20.919  0.00  0.00    +0.000 OA
ATOM     24  C   UNL     1       1.671   7.933  18.509  0.00  0.00    +0.000 C 
ATOM     25  C   UNL     1       1.211   9.398  18.612  0.00  0.00    +0.000 C 
BRANCH  18  26
ATOM     26  C   UNL     1      -0.853  10.163  19.883  0.00  0.00    +0.000 C 
BRANCH  26  33
ATOM     27  C   UNL     1      -0.836  12.880  18.548  0.00  0.00    +0.000 C 
ATOM     28  C   UNL     1      -1.415  11.670  17.864  0.00  0.00    +0.000 A 
ATOM     29  C   UNL     1      -2.020  11.873  16.607  0.00  0.00    +0.000 A 
ATOM     30  C   UNL     1      -2.887  10.928  16.078  0.00  0.00    +0.000 A 
ATOM     31  C   UNL     1      -3.125   9.758  16.786  0.00  0.00    +0.000 A 
ATOM     32  C   UNL     1      -2.426   9.493  17.973  0.00  0.00    +0.000 A 
ATOM     33  C   UNL     1      -1.526  10.421  18.527  0.00  0.00    +0.000 A 
ENDBRANCH  26  33
ENDBRANCH  18  26
ENDBRANCH   1  22
BRANCH   4  34
ATOM     34  O   UNL     1       4.427   2.221  17.454  0.00  0.00    +0.000 OA
ATOM     35  H   UNL     1       4.098   1.610  18.145  0.00  0.00    +0.000 HD
ENDBRANCH   4  34
BRANCH   5  36
ATOM     36  O   UNL     1       1.992   2.680  18.292  0.00  0.00    +0.000 OA
ATOM     37  H   UNL     1       1.403   3.067  17.620  0.00  0.00    +0.000 HD
ENDBRANCH   5  36
TORSDOF 6
ENDMDL
MODEL 4
REMARK VINA RESULT:      -8.2      3.665      9.953
REMARK  Name = 
REMARK  7 active torsions:
REMARK  status: ('A' for Active; 'I' for Inactive)
REMARK    1  A    between atoms: C_1  and  C_2
REMARK    2  A    between atoms: C_7  and  C_8
REMARK    3  A    between atoms: C_8  and  N_9
REMARK    4  A    between atoms: C_13  and  C_15
REMARK    5  A    between atoms: C_17  and  N_18
REMARK    6  A    between atoms: C_28  and  O_29
REMARK    7  A    between atoms: C_30  and  O_31
REMARK                            x       y       z     vdW  Elec       q    Type
REMARK                         _______ _______ _______ _____ _____    ______ ____
ROOT
ATOM      1  C   UNL     1       2.375   4.852  18.463  0.00  0.00    +0.000 C 
ATOM      2  O   UNL     1       3.218   5.432  17.447  0.00  0.00    +0.000 OA
ATOM      3  C   UNL     1       3.975   4.364  16.830  0.00  0.00    +0.000 C 
ATOM      4  C   UNL     1       4.217   3.361  17.950  0.00  0.00    +0.000 C 
ATOM      5  C   UNL     1       2.910   3.433  18.735  0.00  0.00    +0.000 C 
ENDROOT
BRANCH   3   6
ATOM      6  N   UNL     1       5.189   4.892  16.240  0.00  0.00    +0.000 N 
ATOM      7  C   UNL     1       6.082   5.760  16.803  0.00  0.00    +0.000 A 
ATOM      8  N   UNL     1       7.119   5.995  16.027  0.00  0.00    +0.000 NA
ATOM      9  C   UNL     1       6.857   5.289  14.869  0.00  0.00    +0.000 A 
ATOM     10  C   UNL     1       7.568   5.130  13.665  0.00  0.00    +0.000 A 
ATOM     11  N   UNL     1       8.808   5.711  13.413  0.00  0.00    +0.000 N 
ATOM     12  N   UNL     1       7.039   4.349  12.700  0.00  0.00    +0.000 NA
ATOM     13  C   UNL     1       5.835   3.772  12.930  0.00  0.00    +0.000 A 
ATOM     14  N   UNL     1       5.070   3.843  14.035  0.00  0.00    +0.000 NA
ATOM     15  C   UNL     1       5.649   4.609  14.972  0.00  0.00    +0.000 A 
ATOM     16  H   UNL     1       9.326   5.937  14.253  0.00  0.00    +0.000 HD
ATOM     17  H   UNL     1       9.301   5.226  12.674  0.00  0.00    +0.000 HD
ENDBRANCH   3   6
BRANCH   1  22
ATOM     18  N   UNL     1       0.736   9.514  19.618  0.00  0.00    +0.000 NA
ATOM     19  C   UNL     1       1.424   9.259  20.860  0.00  0.00    +0.000 C 
ATOM     20  C   UNL     1       1.716   7.751  20.954  0.00  0.00    +0.000 C 
ATOM     21  N   UNL     1       2.115   7.067  19.700  0.00  0.00    +0.000 N 
ATOM     22  C   UNL     1       2.227   5.672  19.780  0.00  0.00    +0.000 C 
ATOM     23  O   UNL     1       2.137   5.098  20.869  0.00  0.00    +0.000 OA
ATOM     24  C   UNL     1       1.897   7.746  18.410  0.00  0.00    +0.000 C 
ATOM     25  C   UNL     1       1.586   9.252  18.474  0.00  0.00    +0.000 C 
BRANCH  18  26
ATOM     26  C   UNL     1      -0.514  10.236  19.515  0.00  0.00    +0.000 C 
BRANCH  26  33
ATOM     27  C   UNL     1      -1.174  11.665  22.100  0.00  0.00    +0.000 C 
ATOM     28  C   UNL     1      -0.640  12.407  20.905  0.00  0.00    +0.000 A 
ATOM     29  C   UNL     1      -0.535  13.809  21.016  0.00  0.00    +0.000 A 
ATOM     30  C   UNL     1      -0.413  14.602  19.883  0.00  0.00    +0.000 A 
ATOM     31  C   UNL     1      -0.358  13.994  18.636  0.00  0.00    +0.000 A 
ATOM     32  C   UNL     1      -0.330  12.596  18.530  0.00  0.00    +0.000 A 
ATOM     33  C   UNL     1      -0.433  11.763  19.659  0.00  0.00    +0.000 A 
ENDBRANCH  26  33
ENDBRANCH  18  26
ENDBRANCH   1  22
BRANCH   4  34
ATOM     34  O   UNL     1       4.483   2.040  17.488  0.00  0.00    +0.000 OA
ATOM     35  H   UNL     1       5.087   2.119  16.722  0.00  0.00    +0.000 HD
ENDBRANCH   4  34
BRANCH   5  36
ATOM     36  O   UNL     1       2.014   2.406  18.272  0.00  0.00    +0.000 OA
ATOM     37  H   UNL     1       1.280   2.803  17.771  0.00  0.00    +0.000 HD
ENDBRANCH   5  36
TORSDOF 6
ENDMDL
MODEL 5
REMARK VINA RESULT:      -8.2      1.566      2.197
REMARK  Name = 
REMARK  7 active torsions:
REMARK  status: ('A' for Active; 'I' for Inactive)
REMARK    1  A    between atoms: C_1  and  C_2
REMARK    2  A    between atoms: C_7  and  C_8
REMARK    3  A    between atoms: C_8  and  N_9
REMARK    4  A    between atoms: C_13  and  C_15
REMARK    5  A    between atoms: C_17  and  N_18
REMARK    6  A    between atoms: C_28  and  O_29
REMARK    7  A    between atoms: C_30  and  O_31
REMARK                            x       y       z     vdW  Elec       q    Type
REMARK                         _______ _______ _______ _____ _____    ______ ____
ROOT
ATOM      1  C   UNL     1       0.960   9.339  18.669  0.00  0.00    +0.000 C 
ATOM      2  O   UNL     1      -0.445   9.659  18.703  0.00  0.00    +0.000 OA
ATOM      3  C   UNL     1      -0.596  11.054  18.348  0.00  0.00    +0.000 C 
ATOM      4  C   UNL     1       0.652  11.733  18.898  0.00  0.00    +0.000 C 
ATOM      5  C   UNL     1       1.726  10.677  18.659  0.00  0.00    +0.000 C 
ENDROOT
BRANCH   3   6
ATOM      6  N   UNL     1      -1.836  11.574  18.888  0.00  0.00    +0.000 N 
ATOM      7  C   UNL     1      -2.040  12.144  20.112  0.00  0.00    +0.000 A 
ATOM      8  N   UNL     1      -3.274  12.573  20.273  0.00  0.00    +0.000 NA
ATOM      9  C   UNL     1      -3.926  12.207  19.113  0.00  0.00    +0.000 A 
ATOM     10  C   UNL     1      -5.251  12.373  18.668  0.00  0.00    +0.000 A 
ATOM     11  N   UNL     1      -6.240  13.024  19.399  0.00  0.00    +0.000 N 
ATOM     12  N   UNL     1      -5.589  11.899  17.450  0.00  0.00    +0.000 NA
ATOM     13  C   UNL     1      -4.637  11.265  16.722  0.00  0.00    +0.000 A 
ATOM     14  N   UNL     1      -3.345  11.054  17.035  0.00  0.00    +0.000 NA
ATOM     15  C   UNL     1      -3.053  11.564  18.242  0.00  0.00    +0.000 A 
ATOM     16  H   UNL     1      -5.873  13.680  20.078  0.00  0.00    +0.000 HD
ATOM     17  H   UNL     1      -6.994  13.340  18.803  0.00  0.00    +0.000 HD
ENDBRANCH   3   6
BRANCH   1  22
ATOM     18  N   UNL     1       3.481   4.936  18.766  0.00  0.00    +0.000 NA
ATOM     19  C   UNL     1       3.006   4.894  20.128  0.00  0.00    +0.000 C 
ATOM     20  C   UNL     1       2.508   6.299  20.513  0.00  0.00    +0.000 C 
ATOM     21  N   UNL     1       1.783   7.062  19.468  0.00  0.00    +0.000 N 
ATOM     22  C   UNL     1       1.475   8.390  19.793  0.00  0.00    +0.000 C 
ATOM     23  O   UNL     1       1.676   8.819  20.932  0.00  0.00    +0.000 OA
ATOM     24  C   UNL     1       1.858   6.612  18.066  0.00  0.00    +0.000 C 
ATOM     25  C   UNL     1       2.403   5.192  17.832  0.00  0.00    +0.000 C 
BRANCH  18  26
ATOM     26  C   UNL     1       4.786   4.471  18.347  0.00  0.00    +0.000 C 
BRANCH  26  33
ATOM     27  C   UNL     1       5.189   6.313  15.979  0.00  0.00    +0.000 C 
ATOM     28  C   UNL     1       6.011   6.451  17.233  0.00  0.00    +0.000 A 
ATOM     29  C   UNL     1       7.030   7.425  17.226  0.00  0.00    +0.000 A 
ATOM     30  C   UNL     1       8.055   7.383  18.160  0.00  0.00    +0.000 A 
ATOM     31  C   UNL     1       8.047   6.388  19.129  0.00  0.00    +0.000 A 
ATOM     32  C   UNL     1       6.968   5.497  19.220  0.00  0.00    +0.000 A 
ATOM     33  C   UNL     1       5.903   5.524  18.301  0.00  0.00    +0.000 A 
ENDBRANCH  26  33
ENDBRANCH  18  26
ENDBRANCH   1  22
BRANCH   4  34
ATOM     34  O   UNL     1       0.967  12.962  18.252  0.00  0.00    +0.000 OA
ATOM     35  H   UNL     1       0.192  13.551  18.357  0.00  0.00    +0.000 HD
ENDBRANCH   4  34
BRANCH   5  36
ATOM     36  O   UNL     1       2.379  10.931  17.402  0.00  0.00    +0.000 OA
ATOM     37  H   UNL     1       3.214  11.411  17.550  0.00  0.00    +0.000 HD
ENDBRANCH   5  36
TORSDOF 6
ENDMDL
MODEL 6
REMARK VINA RESULT:      -8.2      0.676      1.583
REMARK  Name = 
REMARK  7 active torsions:
REMARK  status: ('A' for Active; 'I' for Inactive)
REMARK    1  A    between atoms: C_1  and  C_2
REMARK    2  A    between atoms: C_7  and  C_8
REMARK    3  A    between atoms: C_8  and  N_9
REMARK    4  A    between atoms: C_13  and  C_15
REMARK    5  A    between atoms: C_17  and  N_18
REMARK    6  A    between atoms: C_28  and  O_29
REMARK    7  A    between atoms: C_30  and  O_31
REMARK                            x       y       z     vdW  Elec       q    Type
REMARK                         _______ _______ _______ _____ _____    ______ ____
ROOT
ATOM      1  C   UNL     1       1.000  10.156  19.910  0.00  0.00    +0.000 C 
ATOM      2  O   UNL     1       0.045  10.277  18.837  0.00  0.00    +0.000 OA
ATOM      3  C   UNL     1      -0.591  11.572  18.947  0.00  0.00    +0.000 C 
ATOM      4  C   UNL     1      -0.648  11.853  20.443  0.00  0.00    +0.000 C 
ATOM      5  C   UNL     1       0.670  11.262  20.932  0.00  0.00    +0.000 C 
ENDROOT
BRANCH   3   6
ATOM      6  N   UNL     1      -1.889  11.546  18.302  0.00  0.00    +0.000 N 
ATOM      7  C   UNL     1      -2.176  11.176  17.019  0.00  0.00    +0.000 A 
ATOM      8  N   UNL     1      -3.466  11.202  16.760  0.00  0.00    +0.000 NA
ATOM      9  C   UNL     1      -4.047  11.673  17.921  0.00  0.00    +0.000 A 
ATOM     10  C   UNL     1      -5.381  11.928  18.287  0.00  0.00    +0.000 A 
ATOM     11  N   UNL     1      -6.472  11.707  17.451  0.00  0.00    +0.000 N 
ATOM     12  N   UNL     1      -5.635  12.389  19.530  0.00  0.00    +0.000 NA
ATOM     13  C   UNL     1      -4.585  12.606  20.360  0.00  0.00    +0.000 A 
ATOM     14  N   UNL     1      -3.277  12.394  20.128  0.00  0.00    +0.000 NA
ATOM     15  C   UNL     1      -3.080  11.913  18.890  0.00  0.00    +0.000 A 
ATOM     16  H   UNL     1      -6.293  11.023  16.726  0.00  0.00    +0.000 HD
ATOM     17  H   UNL     1      -7.331  11.618  17.977  0.00  0.00    +0.000 HD
ENDBRANCH   3   6
BRANCH   1  22
ATOM     18  N   UNL     1       3.677   5.932  19.047  0.00  0.00    +0.000 NA
ATOM     19  C   UNL     1       2.689   5.337  19.915  0.00  0.00    +0.000 C 
ATOM     20  C   UNL     1       1.940   6.467  20.646  0.00  0.00    +0.000 C 
ATOM     21  N   UNL     1       1.639   7.688  19.861  0.00  0.00    +0.000 N 
ATOM     22  C   UNL     1       1.096   8.756  20.589  0.00  0.00    +0.000 C 
ATOM     23  O   UNL     1       0.766   8.607  21.769  0.00  0.00    +0.000 OA
ATOM     24  C   UNL     1       2.331   7.907  18.577  0.00  0.00    +0.000 C 
ATOM     25  C   UNL     1       3.060   6.692  17.978  0.00  0.00    +0.000 C 
BRANCH  18  26
ATOM     26  C   UNL     1       5.077   5.567  19.042  0.00  0.00    +0.000 C 
BRANCH  26  33
ATOM     27  C   UNL     1       7.165   7.146  17.524  0.00  0.00    +0.000 C 
ATOM     28  C   UNL     1       6.708   5.791  17.054  0.00  0.00    +0.000 A 
ATOM     29  C   UNL     1       7.238   5.324  15.834  0.00  0.00    +0.000 A 
ATOM     30  C   UNL     1       6.621   4.290  15.145  0.00  0.00    +0.000 A 
ATOM     31  C   UNL     1       5.493   3.692  15.691  0.00  0.00    +0.000 A 
ATOM     32  C   UNL     1       5.040   4.064  16.965  0.00  0.00    +0.000 A 
ATOM     33  C   UNL     1       5.653   5.096  17.698  0.00  0.00    +0.000 A 
ENDBRANCH  26  33
ENDBRANCH  18  26
ENDBRANCH   1  22
BRANCH   4  34
ATOM     34  O   UNL     1      -0.757  13.237  20.763  0.00  0.00    +0.000 OA
ATOM     35  H   UNL     1      -1.531  13.336  21.355  0.00  0.00    +0.000 HD
ENDBRANCH   4  34
BRANCH   5  36
ATOM     36  O   UNL     1       1.673  12.292  20.975  0.00  0.00    +0.000 OA
ATOM     37  H   UNL     1       1.261  13.153  21.170  0.00  0.00    +0.000 HD
ENDBRANCH   5  36
TORSDOF 6
ENDMDL
MODEL 7
REMARK VINA RESULT:      -8.1      3.727      9.967
REMARK  Name = 
REMARK  7 active torsions:
REMARK  status: ('A' for Active; 'I' for Inactive)
REMARK    1  A    between atoms: C_1  and  C_2
REMARK    2  A    between atoms: C_7  and  C_8
REMARK    3  A    between atoms: C_8  and  N_9
REMARK    4  A    between atoms: C_13  and  C_15
REMARK    5  A    between atoms: C_17  and  N_18
REMARK    6  A    between atoms: C_28  and  O_29
REMARK    7  A    between atoms: C_30  and  O_31
REMARK                            x       y       z     vdW  Elec       q    Type
REMARK                         _______ _______ _______ _____ _____    ______ ____
ROOT
ATOM      1  C   UNL     1       2.365   4.907  18.497  0.00  0.00    +0.000 C 
ATOM      2  O   UNL     1       3.211   5.486  17.484  0.00  0.00    +0.000 OA
ATOM      3  C   UNL     1       3.939   4.413  16.841  0.00  0.00    +0.000 C 
ATOM      4  C   UNL     1       4.167   3.384  17.941  0.00  0.00    +0.000 C 
ATOM      5  C   UNL     1       2.870   3.471  18.738  0.00  0.00    +0.000 C 
ENDROOT
BRANCH   3   6
ATOM      6  N   UNL     1       5.160   4.924  16.250  0.00  0.00    +0.000 N 
ATOM      7  C   UNL     1       6.061   5.785  16.809  0.00  0.00    +0.000 A 
ATOM      8  N   UNL     1       7.102   6.004  16.033  0.00  0.00    +0.000 NA
ATOM      9  C   UNL     1       6.834   5.295  14.879  0.00  0.00    +0.000 A 
ATOM     10  C   UNL     1       7.544   5.121  13.677  0.00  0.00    +0.000 A 
ATOM     11  N   UNL     1       8.791   5.686  13.423  0.00  0.00    +0.000 N 
ATOM     12  N   UNL     1       7.008   4.341  12.715  0.00  0.00    +0.000 NA
ATOM     13  C   UNL     1       5.797   3.778  12.947  0.00  0.00    +0.000 A 
ATOM     14  N   UNL     1       5.032   3.864  14.050  0.00  0.00    +0.000 NA
ATOM     15  C   UNL     1       5.618   4.629  14.985  0.00  0.00    +0.000 A 
ATOM     16  H   UNL     1       9.310   5.911  14.263  0.00  0.00    +0.000 HD
ATOM     17  H   UNL     1       9.280   5.192  12.688  0.00  0.00    +0.000 HD
ENDBRANCH   3   6
BRANCH   1  22
ATOM     18  N   UNL     1       0.722   9.538  19.766  0.00  0.00    +0.000 NA
ATOM     19  C   UNL     1       1.446   9.270  20.985  0.00  0.00    +0.000 C 
ATOM     20  C   UNL     1       1.752   7.763  21.048  0.00  0.00    +0.000 C 
ATOM     21  N   UNL     1       2.122   7.101  19.774  0.00  0.00    +0.000 N 
ATOM     22  C   UNL     1       2.246   5.706  19.830  0.00  0.00    +0.000 C 
ATOM     23  O   UNL     1       2.191   5.115  20.912  0.00  0.00    +0.000 OA
ATOM     24  C   UNL     1       1.863   7.797  18.500  0.00  0.00    +0.000 C 
ATOM     25  C   UNL     1       1.543   9.299  18.595  0.00  0.00    +0.000 C 
BRANCH  18  26
ATOM     26  C   UNL     1      -0.535  10.251  19.708  0.00  0.00    +0.000 C 
BRANCH  26  33
ATOM     27  C   UNL     1       0.617  13.001  19.187  0.00  0.00    +0.000 C 
ATOM     28  C   UNL     1      -0.252  12.726  20.385  0.00  0.00    +0.000 A 
ATOM     29  C   UNL     1      -0.441  13.785  21.296  0.00  0.00    +0.000 A 
ATOM     30  C   UNL     1      -0.900  13.539  22.582  0.00  0.00    +0.000 A 
ATOM     31  C   UNL     1      -1.208  12.236  22.952  0.00  0.00    +0.000 A 
ATOM     32  C   UNL     1      -1.146  11.199  22.010  0.00  0.00    +0.000 A 
ATOM     33  C   UNL     1      -0.703  11.417  20.693  0.00  0.00    +0.000 A 
ENDBRANCH  26  33
ENDBRANCH  18  26
ENDBRANCH   1  22
BRANCH   4  34
ATOM     34  O   UNL     1       4.400   2.066  17.453  0.00  0.00    +0.000 OA
ATOM     35  H   UNL     1       5.367   1.968  17.335  0.00  0.00    +0.000 HD
ENDBRANCH   4  34
BRANCH   5  36
ATOM     36  O   UNL     1       1.947   2.473  18.266  0.00  0.00    +0.000 OA
ATOM     37  H   UNL     1       1.066   2.620  18.655  0.00  0.00    +0.000 HD
ENDBRANCH   5  36
TORSDOF 6
ENDMDL
MODEL 8
REMARK VINA RESULT:      -8.1      3.672      9.839
REMARK  Name = 
REMARK  7 active torsions:
REMARK  status: ('A' for Active; 'I' for Inactive)
REMARK    1  A    between atoms: C_1  and  C_2
REMARK    2  A    between atoms: C_7  and  C_8
REMARK    3  A    between atoms: C_8  and  N_9
REMARK    4  A    between atoms: C_13  and  C_15
REMARK    5  A    between atoms: C_17  and  N_18
REMARK    6  A    between atoms: C_28  and  O_29
REMARK    7  A    between atoms: C_30  and  O_31
REMARK                            x       y       z     vdW  Elec       q    Type
REMARK                         _______ _______ _______ _____ _____    ______ ____
ROOT
ATOM      1  C   UNL     1       2.303   4.437  18.390  0.00  0.00    +0.000 C 
ATOM      2  O   UNL     1       3.141   5.070  17.402  0.00  0.00    +0.000 OA
ATOM      3  C   UNL     1       3.946   4.044  16.774  0.00  0.00    +0.000 C 
ATOM      4  C   UNL     1       4.204   3.023  17.875  0.00  0.00    +0.000 C 
ATOM      5  C   UNL     1       2.883   3.031  18.638  0.00  0.00    +0.000 C 
ENDROOT
BRANCH   3   6
ATOM      6  N   UNL     1       5.150   4.628  16.218  0.00  0.00    +0.000 N 
ATOM      7  C   UNL     1       6.024   5.481  16.830  0.00  0.00    +0.000 A 
ATOM      8  N   UNL     1       7.057   5.779  16.071  0.00  0.00    +0.000 NA
ATOM      9  C   UNL     1       6.812   5.134  14.876  0.00  0.00    +0.000 A 
ATOM     10  C   UNL     1       7.528   5.056  13.667  0.00  0.00    +0.000 A 
ATOM     11  N   UNL     1       8.756   5.674  13.450  0.00  0.00    +0.000 N 
ATOM     12  N   UNL     1       7.016   4.319  12.658  0.00  0.00    +0.000 NA
ATOM     13  C   UNL     1       5.823   3.707  12.852  0.00  0.00    +0.000 A 
ATOM     14  N   UNL     1       5.055   3.701  13.957  0.00  0.00    +0.000 NA
ATOM     15  C   UNL     1       5.617   4.425  14.938  0.00  0.00    +0.000 A 
ATOM     16  H   UNL     1       9.268   5.863  14.303  0.00  0.00    +0.000 HD
ATOM     17  H   UNL     1       9.260   5.241  12.687  0.00  0.00    +0.000 HD
ENDBRANCH   3   6
BRANCH   1  22
ATOM     18  N   UNL     1       1.023   9.198  19.594  0.00  0.00    +0.000 NA
ATOM     19  C   UNL     1       1.554   8.829  20.885  0.00  0.00    +0.000 C 
ATOM     20  C   UNL     1       1.685   7.296  20.936  0.00  0.00    +0.000 C 
ATOM     21  N   UNL     1       2.139   6.621  19.697  0.00  0.00    +0.000 N 
ATOM     22  C   UNL     1       2.104   5.220  19.723  0.00  0.00    +0.000 C 
ATOM     23  O   UNL     1       1.849   4.619  20.771  0.00  0.00    +0.000 OA
ATOM     24  C   UNL     1       2.120   7.365  18.424  0.00  0.00    +0.000 C 
ATOM     25  C   UNL     1       1.954   8.891  18.527  0.00  0.00    +0.000 C 
BRANCH  18  26
ATOM     26  C   UNL     1      -0.133  10.048  19.405  0.00  0.00    +0.000 C 
BRANCH  26  33
ATOM     27  C   UNL     1      -1.879  11.863  17.726  0.00  0.00    +0.000 C 
ATOM     28  C   UNL     1      -0.745  12.406  18.554  0.00  0.00    +0.000 A 
ATOM     29  C   UNL     1      -0.483  13.787  18.452  0.00  0.00    +0.000 A 
ATOM     30  C   UNL     1       0.734  14.309  18.868  0.00  0.00    +0.000 A 
ATOM     31  C   UNL     1       1.680  13.458  19.423  0.00  0.00    +0.000 A 
ATOM     32  C   UNL     1       1.374  12.108  19.647  0.00  0.00    +0.000 A 
ATOM     33  C   UNL     1       0.143  11.551  19.254  0.00  0.00    +0.000 A 
ENDBRANCH  26  33
ENDBRANCH  18  26
ENDBRANCH   1  22
BRANCH   4  34
ATOM     34  O   UNL     1       4.525   1.724  17.388  0.00  0.00    +0.000 OA
ATOM     35  H   UNL     1       3.813   1.465  16.767  0.00  0.00    +0.000 HD
ENDBRANCH   4  34
BRANCH   5  36
ATOM     36  O   UNL     1       2.032   1.985  18.137  0.00  0.00    +0.000 OA
ATOM     37  H   UNL     1       1.793   1.374  18.856  0.00  0.00    +0.000 HD
ENDBRANCH   5  36
TORSDOF 6
ENDMDL
MODEL 9
REMARK VINA RESULT:      -8.0      0.759      2.014
REMARK  Name = 
REMARK  7 active torsions:
REMARK  status: ('A' for Active; 'I' for Inactive)
REMARK    1  A    between atoms: C_1  and  C_2
REMARK    2  A    between atoms: C_7  and  C_8
REMARK    3  A    between atoms: C_8  and  N_9
REMARK    4  A    between atoms: C_13  and  C_15
REMARK    5  A    between atoms: C_17  and  N_18
REMARK    6  A    between atoms: C_28  and  O_29
REMARK    7  A    between atoms: C_30  and  O_31
REMARK                            x       y       z     vdW  Elec       q    Type
REMARK                         _______ _______ _______ _____ _____    ______ ____
ROOT
ATOM      1  C   UNL     1       0.934  10.210  20.052  0.00  0.00    +0.000 C 
ATOM      2  O   UNL     1      -0.007  10.313  18.965  0.00  0.00    +0.000 OA
ATOM      3  C   UNL     1      -0.615  11.625  19.021  0.00  0.00    +0.000 C 
ATOM      4  C   UNL     1      -0.681  11.961  20.505  0.00  0.00    +0.000 C 
ATOM      5  C   UNL     1       0.618  11.359  21.030  0.00  0.00    +0.000 C 
ENDROOT
BRANCH   3   6
ATOM      6  N   UNL     1      -1.906  11.604  18.363  0.00  0.00    +0.000 N 
ATOM      7  C   UNL     1      -2.178  11.259  17.069  0.00  0.00    +0.000 A 
ATOM      8  N   UNL     1      -3.466  11.282  16.799  0.00  0.00    +0.000 NA
ATOM      9  C   UNL     1      -4.061  11.725  17.963  0.00  0.00    +0.000 A 
ATOM     10  C   UNL     1      -5.401  11.964  18.321  0.00  0.00    +0.000 A 
ATOM     11  N   UNL     1      -6.482  11.755  17.470  0.00  0.00    +0.000 N 
ATOM     12  N   UNL     1      -5.670  12.398  19.571  0.00  0.00    +0.000 NA
ATOM     13  C   UNL     1      -4.630  12.604  20.416  0.00  0.00    +0.000 A 
ATOM     14  N   UNL     1      -3.317  12.405  20.192  0.00  0.00    +0.000 NA
ATOM     15  C   UNL     1      -3.105  11.951  18.947  0.00  0.00    +0.000 A 
ATOM     16  H   UNL     1      -6.291  11.087  16.733  0.00  0.00    +0.000 HD
ATOM     17  H   UNL     1      -7.346  11.649  17.986  0.00  0.00    +0.000 HD
ENDBRANCH   3   6
BRANCH   1  22
ATOM     18  N   UNL     1       3.414   5.849  19.288  0.00  0.00    +0.000 NA
ATOM     19  C   UNL     1       2.426   5.329  20.202  0.00  0.00    +0.000 C 
ATOM     20  C   UNL     1       1.743   6.515  20.907  0.00  0.00    +0.000 C 
ATOM     21  N   UNL     1       1.471   7.718  20.083  0.00  0.00    +0.000 N 
ATOM     22  C   UNL     1       0.991   8.834  20.782  0.00  0.00    +0.000 C 
ATOM     23  O   UNL     1       0.686   8.743  21.975  0.00  0.00    +0.000 OA
ATOM     24  C   UNL     1       2.137   7.859  18.775  0.00  0.00    +0.000 C 
ATOM     25  C   UNL     1       2.801   6.593  18.206  0.00  0.00    +0.000 C 
BRANCH  18  26
ATOM     26  C   UNL     1       4.798   5.426  19.262  0.00  0.00    +0.000 C 
BRANCH  26  33
ATOM     27  C   UNL     1       4.094   3.022  17.564  0.00  0.00    +0.000 C 
ATOM     28  C   UNL     1       4.991   4.115  17.048  0.00  0.00    +0.000 A 
ATOM     29  C   UNL     1       5.552   3.932  15.768  0.00  0.00    +0.000 A 
ATOM     30  C   UNL     1       6.652   4.675  15.363  0.00  0.00    +0.000 A 
ATOM     31  C   UNL     1       7.174   5.632  16.224  0.00  0.00    +0.000 A 
ATOM     32  C   UNL     1       6.539   5.909  17.444  0.00  0.00    +0.000 A 
ATOM     33  C   UNL     1       5.412   5.187  17.875  0.00  0.00    +0.000 A 
ENDBRANCH  26  33
ENDBRANCH  18  26
ENDBRANCH   1  22
BRANCH   4  34
ATOM     34  O   UNL     1      -0.762  13.357  20.773  0.00  0.00    +0.000 OA
ATOM     35  H   UNL     1      -0.562  13.824  19.936  0.00  0.00    +0.000 HD
ENDBRANCH   4  34
BRANCH   5  36
ATOM     36  O   UNL     1       1.644  12.368  21.047  0.00  0.00    +0.000 OA
ATOM     37  H   UNL     1       2.520  11.954  21.143  0.00  0.00    +0.000 HD
ENDBRANCH   5  36
TORSDOF 6
ENDMDL
