MODEL 1
REMARK VINA RESULT:      -7.1      0.000      0.000
REMARK  Name = 
REMARK  7 active torsions:
REMARK  status: ('A' for Active; 'I' for Inactive)
REMARK    1  A    between atoms: C_1  and  C_2
REMARK    2  A    between atoms: C_2  and  N_3
REMARK    3  A    between atoms: C_2  and  C_12
REMARK    4  A    between atoms: N_3  and  C_4
REMARK    5  A    between atoms: C_4  and  C_5
REMARK    6  A    between atoms: C_8  and  O_9
REMARK    7  A    between atoms: C_10  and  O_11
REMARK                            x       y       z     vdW  Elec       q    Type
REMARK                         _______ _______ _______ _____ _____    ______ ____
ROOT
ATOM      1  C   UNL     1       5.150   4.864  18.416  0.00  0.00    +0.000 C 
ENDROOT
BRANCH   1   2
ATOM      2  C   UNL     1       6.079   4.521  17.231  0.00  0.00    +0.000 C 
ATOM      3  N   UNL     1       5.518   3.497  16.318  0.00  0.00    +0.000 NA
ATOM      4  C   UNL     1       6.273   3.689  15.072  0.00  0.00    +0.000 C 
ATOM      5  C   UNL     1       6.463   5.198  14.913  0.00  0.00    +0.000 C 
ATOM      6  C   UNL     1       6.346   5.757  16.343  0.00  0.00    +0.000 C 
ATOM      7  H   UNL     1       4.535   3.713  16.144  0.00  0.00    +0.000 HD
BRANCH   5   8
ATOM      8  O   UNL     1       7.699   5.487  14.273  0.00  0.00    +0.000 OA
ATOM      9  H   UNL     1       8.350   4.840  14.595  0.00  0.00    +0.000 HD
ENDBRANCH   5   8
BRANCH   6  10
ATOM     10  O   UNL     1       7.516   6.478  16.730  0.00  0.00    +0.000 OA
ATOM     11  H   UNL     1       7.489   6.640  17.688  0.00  0.00    +0.000 HD
ENDBRANCH   6  10
ENDBRANCH   1   2
BRANCH   1  12
ATOM     12  N   UNL     1       4.572   6.207  18.280  0.00  0.00    +0.000 NA
ATOM     13  H   UNL     1       4.706   6.719  19.153  0.00  0.00    +0.000 HD
BRANCH  12  15
ATOM     14  C   UNL     1       2.547   7.580  18.103  0.00  0.00    +0.000 C 
ATOM     15  C   UNL     1       3.154   6.188  17.892  0.00  0.00    +0.000 C 
BRANCH  15  16
ATOM     16  C   UNL     1       2.343   5.129  18.623  0.00  0.00    +0.000 A 
ATOM     17  C   UNL     1       1.906   3.988  17.926  0.00  0.00    +0.000 A 
ATOM     18  C   UNL     1       1.180   2.991  18.577  0.00  0.00    +0.000 A 
ATOM     19  C   UNL     1       0.875   3.121  19.932  0.00  0.00    +0.000 A 
ATOM     20  C   UNL     1       1.302   4.248  20.635  0.00  0.00    +0.000 A 
ATOM     21  C   UNL     1       2.036   5.238  19.988  0.00  0.00    +0.000 A 
ENDBRANCH  15  16
ENDBRANCH  12  15
ENDBRANCH   1  12
TORSDOF 6
ENDMDL
MODEL 2
REMARK VINA RESULT:      -7.1      0.123      1.176
REMARK  Name = 
REMARK  7 active torsions:
REMARK  status: ('A' for Active; 'I' for Inactive)
REMARK    1  A    between atoms: C_1  and  C_2
REMARK    2  A    between atoms: C_2  and  N_3
REMARK    3  A    between atoms: C_2  and  C_12
REMARK    4  A    between atoms: N_3  and  C_4
REMARK    5  A    between atoms: C_4  and  C_5
REMARK    6  A    between atoms: C_8  and  O_9
REMARK    7  A    between atoms: C_10  and  O_11
REMARK                            x       y       z     vdW  Elec       q    Type
REMARK                         _______ _______ _______ _____ _____    ______ ____
ROOT
ATOM      1  C   UNL     1       5.117   4.899  18.402  0.00  0.00    +0.000 C 
ENDROOT
BRANCH   1   2
ATOM      2  C   UNL     1       6.076   4.558  17.239  0.00  0.00    +0.000 C 
ATOM      3  N   UNL     1       5.565   3.493  16.345  0.00  0.00    +0.000 NA
ATOM      4  C   UNL     1       6.332   3.680  15.106  0.00  0.00    +0.000 C 
ATOM      5  C   UNL     1       6.472   5.189  14.910  0.00  0.00    +0.000 C 
ATOM      6  C   UNL     1       6.315   5.780  16.324  0.00  0.00    +0.000 C 
ATOM      7  H   UNL     1       4.578   3.670  16.151  0.00  0.00    +0.000 HD
BRANCH   5   8
ATOM      8  O   UNL     1       7.708   5.505  14.281  0.00  0.00    +0.000 OA
ATOM      9  H   UNL     1       7.728   5.033  13.431  0.00  0.00    +0.000 HD
ENDBRANCH   5   8
BRANCH   6  10
ATOM     10  O   UNL     1       7.452   6.551  16.709  0.00  0.00    +0.000 OA
ATOM     11  H   UNL     1       7.829   6.979  15.921  0.00  0.00    +0.000 HD
ENDBRANCH   6  10
ENDBRANCH   1   2
BRANCH   1  12
ATOM     12  N   UNL     1       4.503   6.221  18.227  0.00  0.00    +0.000 NA
ATOM     13  H   UNL     1       4.673   6.782  19.063  0.00  0.00    +0.000 HD
BRANCH  12  15
ATOM     14  C   UNL     1       2.422   7.519  18.186  0.00  0.00    +0.000 C 
ATOM     15  C   UNL     1       3.067   6.153  17.921  0.00  0.00    +0.000 C 
BRANCH  15  16
ATOM     16  C   UNL     1       2.338   5.057  18.682  0.00  0.00    +0.000 A 
ATOM     17  C   UNL     1       2.141   5.190  20.069  0.00  0.00    +0.000 A 
ATOM     18  C   UNL     1       1.457   4.210  20.788  0.00  0.00    +0.000 A 
ATOM     19  C   UNL     1       0.963   3.082  20.135  0.00  0.00    +0.000 A 
ATOM     20  C   UNL     1       1.152   2.937  18.760  0.00  0.00    +0.000 A 
ATOM     21  C   UNL     1       1.826   3.919  18.040  0.00  0.00    +0.000 A 
ENDBRANCH  15  16
ENDBRANCH  12  15
ENDBRANCH   1  12
TORSDOF 6
ENDMDL
MODEL 3
REMARK VINA RESULT:      -7.0      1.891      2.933
REMARK  Name = 
REMARK  7 active torsions:
REMARK  status: ('A' for Active; 'I' for Inactive)
REMARK    1  A    between atoms: C_1  and  C_2
REMARK    2  A    between atoms: C_2  and  N_3
REMARK    3  A    between atoms: C_2  and  C_12
REMARK    4  A    between atoms: N_3  and  C_4
REMARK    5  A    between atoms: C_4  and  C_5
REMARK    6  A    between atoms: C_8  and  O_9
REMARK    7  A    between atoms: C_10  and  O_11
REMARK                            x       y       z     vdW  Elec       q    Type
REMARK                         _______ _______ _______ _____ _____    ______ ____
ROOT
ATOM      1  C   UNL     1       4.982   6.151  16.508  0.00  0.00    +0.000 C 
ENDROOT
BRANCH   1   2
ATOM      2  C   UNL     1       6.409   6.087  17.096  0.00  0.00    +0.000 C 
ATOM      3  N   UNL     1       7.010   7.421  17.334  0.00  0.00    +0.000 NA
ATOM      4  C   UNL     1       8.077   7.154  18.309  0.00  0.00    +0.000 C 
ATOM      5  C   UNL     1       7.527   6.101  19.271  0.00  0.00    +0.000 C 
ATOM      6  C   UNL     1       6.426   5.380  18.469  0.00  0.00    +0.000 C 
ATOM      7  H   UNL     1       6.310   8.025  17.769  0.00  0.00    +0.000 HD
BRANCH   5   8
ATOM      8  O   UNL     1       8.566   5.247  19.733  0.00  0.00    +0.000 OA
ATOM      9  H   UNL     1       8.889   4.744  18.965  0.00  0.00    +0.000 HD
ENDBRANCH   5   8
BRANCH   6  10
ATOM     10  O   UNL     1       6.671   3.978  18.371  0.00  0.00    +0.000 OA
ATOM     11  H   UNL     1       7.107   3.672  19.185  0.00  0.00    +0.000 HD
ENDBRANCH   6  10
ENDBRANCH   1   2
BRANCH   1  12
ATOM     12  N   UNL     1       4.117   5.107  17.074  0.00  0.00    +0.000 NA
ATOM     13  H   UNL     1       3.949   4.392  16.365  0.00  0.00    +0.000 HD
BRANCH  12  15
ATOM     14  C   UNL     1       3.095   7.004  18.245  0.00  0.00    +0.000 C 
ATOM     15  C   UNL     1       2.851   5.633  17.603  0.00  0.00    +0.000 C 
BRANCH  15  16
ATOM     16  C   UNL     1       2.169   4.692  18.584  0.00  0.00    +0.000 A 
ATOM     17  C   UNL     1       2.149   5.016  19.954  0.00  0.00    +0.000 A 
ATOM     18  C   UNL     1       1.511   4.182  20.872  0.00  0.00    +0.000 A 
ATOM     19  C   UNL     1       0.888   3.012  20.439  0.00  0.00    +0.000 A 
ATOM     20  C   UNL     1       0.901   2.680  19.084  0.00  0.00    +0.000 A 
ATOM     21  C   UNL     1       1.528   3.516  18.165  0.00  0.00    +0.000 A 
ENDBRANCH  15  16
ENDBRANCH  12  15
ENDBRANCH   1  12
TORSDOF 6
ENDMDL
MODEL 4
REMARK VINA RESULT:      -6.9      3.073      6.083
REMARK  Name = 
REMARK  7 active torsions:
REMARK  status: ('A' for Active; 'I' for Inactive)
REMARK    1  A    between atoms: C_1  and  C_2
REMARK    2  A    between atoms: C_2  and  N_3
REMARK    3  A    between atoms: C_2  and  C_12
REMARK    4  A    between atoms: N_3  and  C_4
REMARK    5  A    between atoms: C_4  and  C_5
REMARK    6  A    between atoms: C_8  and  O_9
REMARK    7  A    between atoms: C_10  and  O_11
REMARK                            x       y       z     vdW  Elec       q    Type
REMARK                         _______ _______ _______ _____ _____    ______ ____
ROOT
ATOM      1  C   UNL     1       3.290   3.380  17.343  0.00  0.00    +0.000 C 
ENDROOT
BRANCH   1   2
ATOM      2  C   UNL     1       2.936   3.744  18.801  0.00  0.00    +0.000 C 
ATOM      3  N   UNL     1       1.526   4.166  18.980  0.00  0.00    +0.000 NA
ATOM      4  C   UNL     1       1.284   3.976  20.417  0.00  0.00    +0.000 C 
ATOM      5  C   UNL     1       2.019   2.695  20.810  0.00  0.00    +0.000 C 
ATOM      6  C   UNL     1       3.125   2.539  19.749  0.00  0.00    +0.000 C 
ATOM      7  H   UNL     1       0.923   3.529  18.457  0.00  0.00    +0.000 HD
BRANCH   5   8
ATOM      8  O   UNL     1       2.500   2.778  22.146  0.00  0.00    +0.000 OA
ATOM      9  H   UNL     1       2.485   3.717  22.400  0.00  0.00    +0.000 HD
ENDBRANCH   5   8
BRANCH   6  10
ATOM     10  O   UNL     1       4.424   2.492  20.338  0.00  0.00    +0.000 OA
ATOM     11  H   UNL     1       5.089   2.706  19.661  0.00  0.00    +0.000 HD
ENDBRANCH   6  10
ENDBRANCH   1   2
BRANCH   1  12
ATOM     12  N   UNL     1       4.743   3.296  17.143  0.00  0.00    +0.000 NA
ATOM     13  H   UNL     1       5.202   3.236  18.053  0.00  0.00    +0.000 HD
BRANCH  12  15
ATOM     14  C   UNL     1       5.967   3.862  15.095  0.00  0.00    +0.000 C 
ATOM     15  C   UNL     1       5.281   4.411  16.352  0.00  0.00    +0.000 C 
BRANCH  15  16
ATOM     16  C   UNL     1       6.229   5.305  17.137  0.00  0.00    +0.000 A 
ATOM     17  C   UNL     1       6.875   4.796  18.279  0.00  0.00    +0.000 A 
ATOM     18  C   UNL     1       7.766   5.587  19.004  0.00  0.00    +0.000 A 
ATOM     19  C   UNL     1       8.024   6.897  18.602  0.00  0.00    +0.000 A 
ATOM     20  C   UNL     1       7.390   7.414  17.471  0.00  0.00    +0.000 A 
ATOM     21  C   UNL     1       6.508   6.622  16.741  0.00  0.00    +0.000 A 
ENDBRANCH  15  16
ENDBRANCH  12  15
ENDBRANCH   1  12
TORSDOF 6
ENDMDL
MODEL 5
REMARK VINA RESULT:      -6.8      1.274      1.811
REMARK  Name = 
REMARK  7 active torsions:
REMARK  status: ('A' for Active; 'I' for Inactive)
REMARK    1  A    between atoms: C_1  and  C_2
REMARK    2  A    between atoms: C_2  and  N_3
REMARK    3  A    between atoms: C_2  and  C_12
REMARK    4  A    between atoms: N_3  and  C_4
REMARK    5  A    between atoms: C_4  and  C_5
REMARK    6  A    between atoms: C_8  and  O_9
REMARK    7  A    between atoms: C_10  and  O_11
REMARK                            x       y       z     vdW  Elec       q    Type
REMARK                         _______ _______ _______ _____ _____    ______ ____
ROOT
ATOM      1  C   UNL     1       4.638   5.884  18.735  0.00  0.00    +0.000 C 
ENDROOT
BRANCH   1   2
ATOM      2  C   UNL     1       5.974   5.788  17.964  0.00  0.00    +0.000 C 
ATOM      3  N   UNL     1       6.819   4.646  18.386  0.00  0.00    +0.000 NA
ATOM      4  C   UNL     1       7.732   4.450  17.252  0.00  0.00    +0.000 C 
ATOM      5  C   UNL     1       6.907   4.691  15.988  0.00  0.00    +0.000 C 
ATOM      6  C   UNL     1       5.743   5.589  16.450  0.00  0.00    +0.000 C 
ATOM      7  H   UNL     1       6.229   3.818  18.481  0.00  0.00    +0.000 HD
BRANCH   5   8
ATOM      8  O   UNL     1       7.709   5.260  14.961  0.00  0.00    +0.000 OA
ATOM      9  H   UNL     1       7.495   6.207  14.919  0.00  0.00    +0.000 HD
ENDBRANCH   5   8
BRANCH   6  10
ATOM     10  O   UNL     1       5.698   6.817  15.726  0.00  0.00    +0.000 OA
ATOM     11  H   UNL     1       6.602   7.161  15.625  0.00  0.00    +0.000 HD
ENDBRANCH   6  10
ENDBRANCH   1   2
BRANCH   1  12
ATOM     12  N   UNL     1       3.549   6.362  17.872  0.00  0.00    +0.000 NA
ATOM     13  H   UNL     1       3.779   7.295  17.530  0.00  0.00    +0.000 HD
BRANCH  12  15
ATOM     14  C   UNL     1       2.253   7.344  19.708  0.00  0.00    +0.000 C 
ATOM     15  C   UNL     1       2.240   6.351  18.539  0.00  0.00    +0.000 C 
BRANCH  15  16
ATOM     16  C   UNL     1       1.813   4.969  19.010  0.00  0.00    +0.000 A 
ATOM     17  C   UNL     1       1.647   4.727  20.386  0.00  0.00    +0.000 A 
ATOM     18  C   UNL     1       1.234   3.476  20.844  0.00  0.00    +0.000 A 
ATOM     19  C   UNL     1       0.986   2.447  19.936  0.00  0.00    +0.000 A 
ATOM     20  C   UNL     1       1.147   2.674  18.569  0.00  0.00    +0.000 A 
ATOM     21  C   UNL     1       1.549   3.925  18.110  0.00  0.00    +0.000 A 
ENDBRANCH  15  16
ENDBRANCH  12  15
ENDBRANCH   1  12
TORSDOF 6
ENDMDL
MODEL 6
REMARK VINA RESULT:      -6.8      1.255      1.381
REMARK  Name = 
REMARK  7 active torsions:
REMARK  status: ('A' for Active; 'I' for Inactive)
REMARK    1  A    between atoms: C_1  and  C_2
REMARK    2  A    between atoms: C_2  and  N_3
REMARK    3  A    between atoms: C_2  and  C_12
REMARK    4  A    between atoms: N_3  and  C_4
REMARK    5  A    between atoms: C_4  and  C_5
REMARK    6  A    between atoms: C_8  and  O_9
REMARK    7  A    between atoms: C_10  and  O_11
REMARK                            x       y       z     vdW  Elec       q    Type
REMARK                         _______ _______ _______ _____ _____    ______ ____
ROOT
ATOM      1  C   UNL     1       4.543   5.648  18.758  0.00  0.00    +0.000 C 
ENDROOT
BRANCH   1   2
ATOM      2  C   UNL     1       5.903   5.633  18.026  0.00  0.00    +0.000 C 
ATOM      3  N   UNL     1       6.749   4.468  18.375  0.00  0.00    +0.000 NA
ATOM      4  C   UNL     1       7.701   4.380  17.259  0.00  0.00    +0.000 C 
ATOM      5  C   UNL     1       6.912   4.719  15.994  0.00  0.00    +0.000 C 
ATOM      6  C   UNL     1       5.722   5.562  16.493  0.00  0.00    +0.000 C 
ATOM      7  H   UNL     1       6.168   3.628  18.380  0.00  0.00    +0.000 HD
BRANCH   5   8
ATOM      8  O   UNL     1       7.739   5.383  15.046  0.00  0.00    +0.000 OA
ATOM      9  H   UNL     1       8.285   6.021  15.536  0.00  0.00    +0.000 HD
ENDBRANCH   5   8
BRANCH   6  10
ATOM     10  O   UNL     1       5.685   6.848  15.876  0.00  0.00    +0.000 OA
ATOM     11  H   UNL     1       6.174   6.813  15.036  0.00  0.00    +0.000 HD
ENDBRANCH   6  10
ENDBRANCH   1   2
BRANCH   1  12
ATOM     12  N   UNL     1       3.530   6.397  18.002  0.00  0.00    +0.000 NA
ATOM     13  H   UNL     1       3.861   7.351  17.855  0.00  0.00    +0.000 HD
BRANCH  12  15
ATOM     14  C   UNL     1       2.200   7.388  19.808  0.00  0.00    +0.000 C 
ATOM     15  C   UNL     1       2.209   6.388  18.645  0.00  0.00    +0.000 C 
BRANCH  15  16
ATOM     16  C   UNL     1       1.775   5.009  19.116  0.00  0.00    +0.000 A 
ATOM     17  C   UNL     1       1.511   4.004  18.167  0.00  0.00    +0.000 A 
ATOM     18  C   UNL     1       1.134   2.724  18.572  0.00  0.00    +0.000 A 
ATOM     19  C   UNL     1       1.011   2.429  19.929  0.00  0.00    +0.000 A 
ATOM     20  C   UNL     1       1.270   3.416  20.881  0.00  0.00    +0.000 A 
ATOM     21  C   UNL     1       1.656   4.691  20.478  0.00  0.00    +0.000 A 
ENDBRANCH  15  16
ENDBRANCH  12  15
ENDBRANCH   1  12
TORSDOF 6
ENDMDL
MODEL 7
REMARK VINA RESULT:      -6.8      1.617      1.922
REMARK  Name = 
REMARK  7 active torsions:
REMARK  status: ('A' for Active; 'I' for Inactive)
REMARK    1  A    between atoms: C_1  and  C_2
REMARK    2  A    between atoms: C_2  and  N_3
REMARK    3  A    between atoms: C_2  and  C_12
REMARK    4  A    between atoms: N_3  and  C_4
REMARK    5  A    between atoms: C_4  and  C_5
REMARK    6  A    between atoms: C_8  and  O_9
REMARK    7  A    between atoms: C_10  and  O_11
REMARK                            x       y       z     vdW  Elec       q    Type
REMARK                         _______ _______ _______ _____ _____    ______ ____
ROOT
ATOM      1  C   UNL     1       3.899   6.100  17.272  0.00  0.00    +0.000 C 
ENDROOT
BRANCH   1   2
ATOM      2  C   UNL     1       5.045   5.093  17.031  0.00  0.00    +0.000 C 
ATOM      3  N   UNL     1       5.610   5.156  15.662  0.00  0.00    +0.000 NA
ATOM      4  C   UNL     1       6.932   4.531  15.800  0.00  0.00    +0.000 C 
ATOM      5  C   UNL     1       7.485   4.988  17.150  0.00  0.00    +0.000 C 
ATOM      6  C   UNL     1       6.238   5.352  17.977  0.00  0.00    +0.000 C 
ATOM      7  H   UNL     1       5.735   6.136  15.402  0.00  0.00    +0.000 HD
BRANCH   5   8
ATOM      8  O   UNL     1       8.296   3.976  17.733  0.00  0.00    +0.000 OA
ATOM      9  H   UNL     1       8.026   3.889  18.663  0.00  0.00    +0.000 HD
ENDBRANCH   5   8
BRANCH   6  10
ATOM     10  O   UNL     1       6.164   4.600  19.187  0.00  0.00    +0.000 OA
ATOM     11  H   UNL     1       7.062   4.354  19.466  0.00  0.00    +0.000 HD
ENDBRANCH   6  10
ENDBRANCH   1   2
BRANCH   1  12
ATOM     12  N   UNL     1       3.730   6.395  18.701  0.00  0.00    +0.000 NA
ATOM     13  H   UNL     1       4.335   5.777  19.243  0.00  0.00    +0.000 HD
BRANCH  12  15
ATOM     14  C   UNL     1       2.021   7.444  20.113  0.00  0.00    +0.000 C 
ATOM     15  C   UNL     1       2.334   6.293  19.148  0.00  0.00    +0.000 C 
BRANCH  15  16
ATOM     16  C   UNL     1       1.999   4.952  19.782  0.00  0.00    +0.000 A 
ATOM     17  C   UNL     1       1.360   3.962  19.012  0.00  0.00    +0.000 A 
ATOM     18  C   UNL     1       1.062   2.716  19.562  0.00  0.00    +0.000 A 
ATOM     19  C   UNL     1       1.393   2.440  20.888  0.00  0.00    +0.000 A 
ATOM     20  C   UNL     1       2.027   3.412  21.662  0.00  0.00    +0.000 A 
ATOM     21  C   UNL     1       2.334   4.653  21.112  0.00  0.00    +0.000 A 
ENDBRANCH  15  16
ENDBRANCH  12  15
ENDBRANCH   1  12
TORSDOF 6
ENDMDL
MODEL 8
REMARK VINA RESULT:      -6.8      3.266      6.202
REMARK  Name = 
REMARK  7 active torsions:
REMARK  status: ('A' for Active; 'I' for Inactive)
REMARK    1  A    between atoms: C_1  and  C_2
REMARK    2  A    between atoms: C_2  and  N_3
REMARK    3  A    between atoms: C_2  and  C_12
REMARK    4  A    between atoms: N_3  and  C_4
REMARK    5  A    between atoms: C_4  and  C_5
REMARK    6  A    between atoms: C_8  and  O_9
REMARK    7  A    between atoms: C_10  and  O_11
REMARK                            x       y       z     vdW  Elec       q    Type
REMARK                         _______ _______ _______ _____ _____    ______ ____
ROOT
ATOM      1  C   UNL     1       3.392   3.687  17.107  0.00  0.00    +0.000 C 
ENDROOT
BRANCH   1   2
ATOM      2  C   UNL     1       3.061   3.608  18.614  0.00  0.00    +0.000 C 
ATOM      3  N   UNL     1       3.045   4.928  19.286  0.00  0.00    +0.000 NA
ATOM      4  C   UNL     1       2.254   4.691  20.502  0.00  0.00    +0.000 C 
ATOM      5  C   UNL     1       1.125   3.741  20.102  0.00  0.00    +0.000 C 
ATOM      6  C   UNL     1       1.657   3.009  18.856  0.00  0.00    +0.000 C 
ATOM      7  H   UNL     1       2.547   5.594  18.693  0.00  0.00    +0.000 HD
BRANCH   5   8
ATOM      8  O   UNL     1       0.783   2.881  21.182  0.00  0.00    +0.000 OA
ATOM      9  H   UNL     1       0.410   2.070  20.797  0.00  0.00    +0.000 HD
ENDBRANCH   5   8
BRANCH   6  10
ATOM     10  O   UNL     1       1.678   1.594  19.038  0.00  0.00    +0.000 OA
ATOM     11  H   UNL     1       2.354   1.368  19.700  0.00  0.00    +0.000 HD
ENDBRANCH   6  10
ENDBRANCH   1   2
BRANCH   1  12
ATOM     12  N   UNL     1       4.817   3.441  16.853  0.00  0.00    +0.000 NA
ATOM     13  H   UNL     1       5.287   3.250  17.739  0.00  0.00    +0.000 HD
BRANCH  12  15
ATOM     14  C   UNL     1       6.226   3.988  14.920  0.00  0.00    +0.000 C 
ATOM     15  C   UNL     1       5.473   4.544  16.135  0.00  0.00    +0.000 C 
BRANCH  15  16
ATOM     16  C   UNL     1       6.401   5.368  17.014  0.00  0.00    +0.000 A 
ATOM     17  C   UNL     1       6.592   6.733  16.730  0.00  0.00    +0.000 A 
ATOM     18  C   UNL     1       7.420   7.517  17.533  0.00  0.00    +0.000 A 
ATOM     19  C   UNL     1       8.073   6.951  18.627  0.00  0.00    +0.000 A 
ATOM     20  C   UNL     1       7.893   5.598  18.919  0.00  0.00    +0.000 A 
ATOM     21  C   UNL     1       7.059   4.817  18.125  0.00  0.00    +0.000 A 
ENDBRANCH  15  16
ENDBRANCH  12  15
ENDBRANCH   1  12
TORSDOF 6
ENDMDL
MODEL 9
REMARK VINA RESULT:      -6.8      3.289      6.216
REMARK  Name = 
REMARK  7 active torsions:
REMARK  status: ('A' for Active; 'I' for Inactive)
REMARK    1  A    between atoms: C_1  and  C_2
REMARK    2  A    between atoms: C_2  and  N_3
REMARK    3  A    between atoms: C_2  and  C_12
REMARK    4  A    between atoms: N_3  and  C_4
REMARK    5  A    between atoms: C_4  and  C_5
REMARK    6  A    between atoms: C_8  and  O_9
REMARK    7  A    between atoms: C_10  and  O_11
REMARK                            x       y       z     vdW  Elec       q    Type
REMARK                         _______ _______ _______ _____ _____    ______ ____
ROOT
ATOM      1  C   UNL     1       3.480   3.674  17.102  0.00  0.00    +0.000 C 
ENDROOT
BRANCH   1   2
ATOM      2  C   UNL     1       3.114   3.511  18.594  0.00  0.00    +0.000 C 
ATOM      3  N   UNL     1       3.283   4.753  19.384  0.00  0.00    +0.000 NA
ATOM      4  C   UNL     1       2.444   4.530  20.569  0.00  0.00    +0.000 C 
ATOM      5  C   UNL     1       1.194   3.800  20.080  0.00  0.00    +0.000 C 
ATOM      6  C   UNL     1       1.632   3.111  18.774  0.00  0.00    +0.000 C 
ATOM      7  H   UNL     1       2.901   5.536  18.852  0.00  0.00    +0.000 HD
BRANCH   5   8
ATOM      8  O   UNL     1       0.707   2.908  21.075  0.00  0.00    +0.000 OA
ATOM      9  H   UNL     1       1.223   3.068  21.883  0.00  0.00    +0.000 HD
ENDBRANCH   5   8
BRANCH   6  10
ATOM     10  O   UNL     1       1.439   1.698  18.826  0.00  0.00    +0.000 OA
ATOM     11  H   UNL     1       2.041   1.269  18.195  0.00  0.00    +0.000 HD
ENDBRANCH   6  10
ENDBRANCH   1   2
BRANCH   1  12
ATOM     12  N   UNL     1       4.915   3.462  16.871  0.00  0.00    +0.000 NA
ATOM     13  H   UNL     1       5.378   3.303  17.767  0.00  0.00    +0.000 HD
BRANCH  12  15
ATOM     14  C   UNL     1       6.346   4.001  14.953  0.00  0.00    +0.000 C 
ATOM     15  C   UNL     1       5.550   4.565  16.137  0.00  0.00    +0.000 C 
BRANCH  15  16
ATOM     16  C   UNL     1       6.432   5.443  17.010  0.00  0.00    +0.000 A 
ATOM     17  C   UNL     1       7.076   4.883  18.129  0.00  0.00    +0.000 A 
ATOM     18  C   UNL     1       7.908   5.660  18.934  0.00  0.00    +0.000 A 
ATOM     19  C   UNL     1       8.107   7.008  18.638  0.00  0.00    +0.000 A 
ATOM     20  C   UNL     1       7.475   7.576  17.531  0.00  0.00    +0.000 A 
ATOM     21  C   UNL     1       6.652   6.799  16.721  0.00  0.00    +0.000 A 
ENDBRANCH  15  16
ENDBRANCH  12  15
ENDBRANCH   1  12
TORSDOF 6
ENDMDL
