MODEL 1
REMARK VINA RESULT:      -7.9      0.000      0.000
REMARK  Name = 
REMARK  10 active torsions:
REMARK  status: ('A' for Active; 'I' for Inactive)
REMARK    1  A    between atoms: C_1  and  N_2
REMARK    2  A    between atoms: N_2  and  C_3
REMARK    3  A    between atoms: N_2  and  C_4
REMARK    4  A    between atoms: C_4  and  C_5
REMARK    5  A    between atoms: C_5  and  C_6
REMARK    6  A    between atoms: C_6  and  O_7
REMARK    7  A    between atoms: O_7  and  C_8
REMARK    8  A    between atoms: C_11  and  C_12
REMARK    9  A    between atoms: C_17  and  N_18
REMARK   10  A    between atoms: C_19  and  C_21
REMARK                            x       y       z     vdW  Elec       q    Type
REMARK                         _______ _______ _______ _____ _____    ______ ____
ROOT
ATOM      1  C   UNL     1       2.066   6.761  19.982  0.00  0.00    +0.000 A 
ATOM      2  C   UNL     1       1.655   5.643  20.714  0.00  0.00    +0.000 A 
ATOM      3  C   UNL     1       2.123   4.379  20.397  0.00  0.00    +0.000 A 
ATOM      4  C   UNL     1       3.007   4.178  19.331  0.00  0.00    +0.000 A 
ATOM      5 CL   UNL     1       3.617   2.561  19.300  0.00  0.00    +0.000 Cl
ATOM      6  C   UNL     1       3.405   5.261  18.509  0.00  0.00    +0.000 A 
ATOM      7  C   UNL     1       2.934   6.544  18.882  0.00  0.00    +0.000 A 
ENDROOT
BRANCH   1  11
ATOM      8  C   UNL     1       0.558  10.554  21.092  0.00  0.00    +0.000 A 
ATOM      9  C   UNL     1       0.694   9.606  22.087  0.00  0.00    +0.000 A 
ATOM     10  C   UNL     1       1.218   8.367  21.724  0.00  0.00    +0.000 A 
ATOM     11  C   UNL     1       1.577   8.090  20.389  0.00  0.00    +0.000 A 
ATOM     12  C   UNL     1       1.387   9.126  19.485  0.00  0.00    +0.000 A 
ATOM     13  N   UNL     1       0.907  10.344  19.806  0.00  0.00    +0.000 NA
BRANCH   8  14
ATOM     14  O   UNL     1       0.035  11.783  21.427  0.00  0.00    +0.000 OA
BRANCH  14  15
ATOM     15  C   UNL     1      -1.247  11.974  20.808  0.00  0.00    +0.000 C 
BRANCH  15  16
ATOM     16  C   UNL     1      -2.099  12.844  21.719  0.00  0.00    +0.000 C 
BRANCH  16  17
ATOM     17  C   UNL     1      -2.489  12.089  22.996  0.00  0.00    +0.000 C 
BRANCH  17  19
ATOM     18  C   UNL     1      -4.158  12.662  24.634  0.00  0.00    +0.000 C 
ATOM     19  N   UNL     1      -3.933  12.132  23.286  0.00  0.00    +0.000 NA
ATOM     20  C   UNL     1      -4.671  12.940  22.314  0.00  0.00    +0.000 C 
ENDBRANCH  17  19
ENDBRANCH  16  17
ENDBRANCH  15  16
ENDBRANCH  14  15
ENDBRANCH   8  14
ENDBRANCH   1  11
BRANCH   6  21
ATOM     21  N   UNL     1       4.236   5.221  17.335  0.00  0.00    +0.000 N 
ATOM     22  C   UNL     1       5.573   4.872  17.263  0.00  0.00    +0.000 C 
ATOM     23  O   UNL     1       6.262   4.512  18.214  0.00  0.00    +0.000 OA
ATOM     24  H   UNL     1       3.779   5.296  16.430  0.00  0.00    +0.000 HD
BRANCH  22  25
ATOM     25  C   UNL     1       6.204   4.850  15.943  0.00  0.00    +0.000 A 
ATOM     26  C   UNL     1       5.887   3.884  15.009  0.00  0.00    +0.000 A 
ATOM     27  O   UNL     1       6.626   4.096  13.898  0.00  0.00    +0.000 OA
ATOM     28  C   UNL     1       7.367   5.190  14.209  0.00  0.00    +0.000 A 
ATOM     29  N   UNL     1       8.234   5.545  13.244  0.00  0.00    +0.000 N 
ATOM     30  N   UNL     1       7.155   5.703  15.400  0.00  0.00    +0.000 NA
ATOM     31  H   UNL     1       8.437   4.838  12.556  0.00  0.00    +0.000 HD
ATOM     32  H   UNL     1       9.036   6.084  13.535  0.00  0.00    +0.000 HD
ENDBRANCH  22  25
ENDBRANCH   6  21
TORSDOF 8
ENDMDL
MODEL 2
REMARK VINA RESULT:      -7.9      0.728      1.037
REMARK  Name = 
REMARK  10 active torsions:
REMARK  status: ('A' for Active; 'I' for Inactive)
REMARK    1  A    between atoms: C_1  and  N_2
REMARK    2  A    between atoms: N_2  and  C_3
REMARK    3  A    between atoms: N_2  and  C_4
REMARK    4  A    between atoms: C_4  and  C_5
REMARK    5  A    between atoms: C_5  and  C_6
REMARK    6  A    between atoms: C_6  and  O_7
REMARK    7  A    between atoms: O_7  and  C_8
REMARK    8  A    between atoms: C_11  and  C_12
REMARK    9  A    between atoms: C_17  and  N_18
REMARK   10  A    between atoms: C_19  and  C_21
REMARK                            x       y       z     vdW  Elec       q    Type
REMARK                         _______ _______ _______ _____ _____    ______ ____
ROOT
ATOM      1  C   UNL     1       1.927   6.894  20.204  0.00  0.00    +0.000 A 
ATOM      2  C   UNL     1       1.468   5.796  20.936  0.00  0.00    +0.000 A 
ATOM      3  C   UNL     1       1.911   4.516  20.642  0.00  0.00    +0.000 A 
ATOM      4  C   UNL     1       2.817   4.282  19.601  0.00  0.00    +0.000 A 
ATOM      5 CL   UNL     1       3.384   2.650  19.601  0.00  0.00    +0.000 Cl
ATOM      6  C   UNL     1       3.263   5.346  18.780  0.00  0.00    +0.000 A 
ATOM      7  C   UNL     1       2.817   6.645  19.129  0.00  0.00    +0.000 A 
ENDROOT
BRANCH   1  11
ATOM      8  C   UNL     1       0.707  10.784  21.339  0.00  0.00    +0.000 A 
ATOM      9  C   UNL     1       0.763  10.502  19.988  0.00  0.00    +0.000 A 
ATOM     10  C   UNL     1       1.138   9.212  19.618  0.00  0.00    +0.000 A 
ATOM     11  C   UNL     1       1.463   8.240  20.586  0.00  0.00    +0.000 A 
ATOM     12  C   UNL     1       1.370   8.652  21.909  0.00  0.00    +0.000 A 
ATOM     13  N   UNL     1       0.987   9.883  22.303  0.00  0.00    +0.000 NA
BRANCH   8  14
ATOM     14  O   UNL     1       0.348  12.054  21.727  0.00  0.00    +0.000 OA
BRANCH  14  15
ATOM     15  C   UNL     1      -0.937  12.405  21.190  0.00  0.00    +0.000 C 
BRANCH  15  16
ATOM     16  C   UNL     1      -1.998  12.105  22.238  0.00  0.00    +0.000 C 
BRANCH  16  17
ATOM     17  C   UNL     1      -3.371  12.629  21.798  0.00  0.00    +0.000 C 
BRANCH  17  19
ATOM     18  C   UNL     1      -3.802  12.493  24.163  0.00  0.00    +0.000 C 
ATOM     19  N   UNL     1      -4.412  12.484  22.830  0.00  0.00    +0.000 NA
ATOM     20  C   UNL     1      -5.424  13.538  22.749  0.00  0.00    +0.000 C 
ENDBRANCH  17  19
ENDBRANCH  16  17
ENDBRANCH  15  16
ENDBRANCH  14  15
ENDBRANCH   8  14
ENDBRANCH   1  11
BRANCH   6  21
ATOM     21  N   UNL     1       4.123   5.273  17.628  0.00  0.00    +0.000 N 
ATOM     22  C   UNL     1       5.436   4.841  17.587  0.00  0.00    +0.000 C 
ATOM     23  O   UNL     1       6.075   4.422  18.549  0.00  0.00    +0.000 OA
ATOM     24  H   UNL     1       3.697   5.392  16.713  0.00  0.00    +0.000 HD
BRANCH  22  25
ATOM     25  C   UNL     1       6.102   4.801  16.284  0.00  0.00    +0.000 A 
ATOM     26  C   UNL     1       5.867   3.780  15.386  0.00  0.00    +0.000 A 
ATOM     27  O   UNL     1       6.621   3.988  14.284  0.00  0.00    +0.000 OA
ATOM     28  C   UNL     1       7.288   5.136  14.564  0.00  0.00    +0.000 A 
ATOM     29  N   UNL     1       8.157   5.501  13.605  0.00  0.00    +0.000 N 
ATOM     30  N   UNL     1       7.015   5.686  15.726  0.00  0.00    +0.000 NA
ATOM     31  H   UNL     1       8.419   4.779  12.954  0.00  0.00    +0.000 HD
ATOM     32  H   UNL     1       8.919   6.099  13.891  0.00  0.00    +0.000 HD
ENDBRANCH  22  25
ENDBRANCH   6  21
TORSDOF 8
ENDMDL
MODEL 3
REMARK VINA RESULT:      -7.5      2.110      2.573
REMARK  Name = 
REMARK  10 active torsions:
REMARK  status: ('A' for Active; 'I' for Inactive)
REMARK    1  A    between atoms: C_1  and  N_2
REMARK    2  A    between atoms: N_2  and  C_3
REMARK    3  A    between atoms: N_2  and  C_4
REMARK    4  A    between atoms: C_4  and  C_5
REMARK    5  A    between atoms: C_5  and  C_6
REMARK    6  A    between atoms: C_6  and  O_7
REMARK    7  A    between atoms: O_7  and  C_8
REMARK    8  A    between atoms: C_11  and  C_12
REMARK    9  A    between atoms: C_17  and  N_18
REMARK   10  A    between atoms: C_19  and  C_21
REMARK                            x       y       z     vdW  Elec       q    Type
REMARK                         _______ _______ _______ _____ _____    ______ ____
ROOT
ATOM      1  C   UNL     1       2.093   6.683  20.110  0.00  0.00    +0.000 A 
ATOM      2  C   UNL     1       1.740   5.565  20.871  0.00  0.00    +0.000 A 
ATOM      3  C   UNL     1       2.385   4.353  20.687  0.00  0.00    +0.000 A 
ATOM      4  C   UNL     1       3.396   4.206  19.730  0.00  0.00    +0.000 A 
ATOM      5 CL   UNL     1       4.190   2.677  19.868  0.00  0.00    +0.000 Cl
ATOM      6  C   UNL     1       3.749   5.283  18.881  0.00  0.00    +0.000 A 
ATOM      7  C   UNL     1       3.093   6.516  19.119  0.00  0.00    +0.000 A 
ENDROOT
BRANCH   1  11
ATOM      8  C   UNL     1       0.050  10.324  20.793  0.00  0.00    +0.000 A 
ATOM      9  C   UNL     1       0.014   9.375  21.796  0.00  0.00    +0.000 A 
ATOM     10  C   UNL     1       0.712   8.189  21.580  0.00  0.00    +0.000 A 
ATOM     11  C   UNL     1       1.411   7.962  20.377  0.00  0.00    +0.000 A 
ATOM     12  C   UNL     1       1.364   8.993  19.448  0.00  0.00    +0.000 A 
ATOM     13  N   UNL     1       0.721  10.163  19.634  0.00  0.00    +0.000 NA
BRANCH   8  14
ATOM     14  O   UNL     1      -0.640  11.501  20.982  0.00  0.00    +0.000 OA
BRANCH  14  15
ATOM     15  C   UNL     1      -0.578  12.320  19.804  0.00  0.00    +0.000 C 
BRANCH  15  16
ATOM     16  C   UNL     1      -1.991  12.520  19.278  0.00  0.00    +0.000 C 
BRANCH  16  17
ATOM     17  C   UNL     1      -2.188  11.802  17.938  0.00  0.00    +0.000 C 
BRANCH  17  19
ATOM     18  C   UNL     1      -4.294  11.529  16.804  0.00  0.00    +0.000 C 
ATOM     19  N   UNL     1      -3.430  11.014  17.871  0.00  0.00    +0.000 NA
ATOM     20  C   UNL     1      -3.174   9.590  17.647  0.00  0.00    +0.000 C 
ENDBRANCH  17  19
ENDBRANCH  16  17
ENDBRANCH  15  16
ENDBRANCH  14  15
ENDBRANCH   8  14
ENDBRANCH   1  11
BRANCH   6  21
ATOM     21  N   UNL     1       4.700   5.283  17.801  0.00  0.00    +0.000 N 
ATOM     22  C   UNL     1       4.732   4.432  16.711  0.00  0.00    +0.000 C 
ATOM     23  O   UNL     1       3.919   3.540  16.485  0.00  0.00    +0.000 OA
ATOM     24  H   UNL     1       5.326   6.080  17.724  0.00  0.00    +0.000 HD
BRANCH  22  25
ATOM     25  C   UNL     1       5.768   4.655  15.702  0.00  0.00    +0.000 A 
ATOM     26  C   UNL     1       6.938   5.321  16.004  0.00  0.00    +0.000 A 
ATOM     27  O   UNL     1       7.697   5.396  14.889  0.00  0.00    +0.000 OA
ATOM     28  C   UNL     1       6.947   4.767  13.948  0.00  0.00    +0.000 A 
ATOM     29  N   UNL     1       7.500   4.779  12.723  0.00  0.00    +0.000 N 
ATOM     30  N   UNL     1       5.798   4.284  14.364  0.00  0.00    +0.000 NA
ATOM     31  H   UNL     1       8.227   5.460  12.577  0.00  0.00    +0.000 HD
ATOM     32  H   UNL     1       6.869   4.672  11.942  0.00  0.00    +0.000 HD
ENDBRANCH  22  25
ENDBRANCH   6  21
TORSDOF 8
ENDMDL
MODEL 4
REMARK VINA RESULT:      -7.5      2.120      2.906
REMARK  Name = 
REMARK  10 active torsions:
REMARK  status: ('A' for Active; 'I' for Inactive)
REMARK    1  A    between atoms: C_1  and  N_2
REMARK    2  A    between atoms: N_2  and  C_3
REMARK    3  A    between atoms: N_2  and  C_4
REMARK    4  A    between atoms: C_4  and  C_5
REMARK    5  A    between atoms: C_5  and  C_6
REMARK    6  A    between atoms: C_6  and  O_7
REMARK    7  A    between atoms: O_7  and  C_8
REMARK    8  A    between atoms: C_11  and  C_12
REMARK    9  A    between atoms: C_17  and  N_18
REMARK   10  A    between atoms: C_19  and  C_21
REMARK                            x       y       z     vdW  Elec       q    Type
REMARK                         _______ _______ _______ _____ _____    ______ ____
ROOT
ATOM      1  C   UNL     1       1.980   6.864  20.155  0.00  0.00    +0.000 A 
ATOM      2  C   UNL     1       1.541   5.765  20.899  0.00  0.00    +0.000 A 
ATOM      3  C   UNL     1       1.997   4.489  20.612  0.00  0.00    +0.000 A 
ATOM      4  C   UNL     1       2.897   4.258  19.564  0.00  0.00    +0.000 A 
ATOM      5 CL   UNL     1       3.485   2.633  19.571  0.00  0.00    +0.000 Cl
ATOM      6  C   UNL     1       3.323   5.321  18.731  0.00  0.00    +0.000 A 
ATOM      7  C   UNL     1       2.864   6.617  19.075  0.00  0.00    +0.000 A 
ENDROOT
BRANCH   1  11
ATOM      8  C   UNL     1       0.720  10.744  21.277  0.00  0.00    +0.000 A 
ATOM      9  C   UNL     1       0.820  10.471  19.927  0.00  0.00    +0.000 A 
ATOM     10  C   UNL     1       1.208   9.184  19.560  0.00  0.00    +0.000 A 
ATOM     11  C   UNL     1       1.502   8.206  20.532  0.00  0.00    +0.000 A 
ATOM     12  C   UNL     1       1.367   8.609  21.853  0.00  0.00    +0.000 A 
ATOM     13  N   UNL     1       0.970   9.837  22.244  0.00  0.00    +0.000 NA
BRANCH   8  14
ATOM     14  O   UNL     1       0.347  12.012  21.662  0.00  0.00    +0.000 OA
BRANCH  14  15
ATOM     15  C   UNL     1       0.998  13.001  20.850  0.00  0.00    +0.000 C 
BRANCH  15  16
ATOM     16  C   UNL     1      -0.003  14.101  20.532  0.00  0.00    +0.000 C 
BRANCH  16  17
ATOM     17  C   UNL     1       0.034  14.467  19.043  0.00  0.00    +0.000 C 
BRANCH  17  19
ATOM     18  C   UNL     1       0.268  16.699  19.915  0.00  0.00    +0.000 C 
ATOM     19  N   UNL     1       0.567  15.815  18.783  0.00  0.00    +0.000 NA
ATOM     20  C   UNL     1       2.010  15.806  18.539  0.00  0.00    +0.000 C 
ENDBRANCH  17  19
ENDBRANCH  16  17
ENDBRANCH  15  16
ENDBRANCH  14  15
ENDBRANCH   8  14
ENDBRANCH   1  11
BRANCH   6  21
ATOM     21  N   UNL     1       4.174   5.250  17.573  0.00  0.00    +0.000 N 
ATOM     22  C   UNL     1       5.492   4.832  17.523  0.00  0.00    +0.000 C 
ATOM     23  O   UNL     1       6.143   4.427  18.482  0.00  0.00    +0.000 OA
ATOM     24  H   UNL     1       3.739   5.359  16.660  0.00  0.00    +0.000 HD
BRANCH  22  25
ATOM     25  C   UNL     1       6.146   4.791  16.215  0.00  0.00    +0.000 A 
ATOM     26  C   UNL     1       5.921   3.758  15.328  0.00  0.00    +0.000 A 
ATOM     27  O   UNL     1       6.662   3.968  14.218  0.00  0.00    +0.000 OA
ATOM     28  C   UNL     1       7.312   5.130  14.482  0.00  0.00    +0.000 A 
ATOM     29  N   UNL     1       8.167   5.500  13.512  0.00  0.00    +0.000 N 
ATOM     30  N   UNL     1       7.040   5.686  15.641  0.00  0.00    +0.000 NA
ATOM     31  H   UNL     1       8.435   4.777  12.865  0.00  0.00    +0.000 HD
ATOM     32  H   UNL     1       8.921   6.113  13.786  0.00  0.00    +0.000 HD
ENDBRANCH  22  25
ENDBRANCH   6  21
TORSDOF 8
ENDMDL
MODEL 5
REMARK VINA RESULT:      -7.5      1.441      1.755
REMARK  Name = 
REMARK  10 active torsions:
REMARK  status: ('A' for Active; 'I' for Inactive)
REMARK    1  A    between atoms: C_1  and  N_2
REMARK    2  A    between atoms: N_2  and  C_3
REMARK    3  A    between atoms: N_2  and  C_4
REMARK    4  A    between atoms: C_4  and  C_5
REMARK    5  A    between atoms: C_5  and  C_6
REMARK    6  A    between atoms: C_6  and  O_7
REMARK    7  A    between atoms: O_7  and  C_8
REMARK    8  A    between atoms: C_11  and  C_12
REMARK    9  A    between atoms: C_17  and  N_18
REMARK   10  A    between atoms: C_19  and  C_21
REMARK                            x       y       z     vdW  Elec       q    Type
REMARK                         _______ _______ _______ _____ _____    ______ ____
ROOT
ATOM      1  C   UNL     1       1.903   6.871  20.245  0.00  0.00    +0.000 A 
ATOM      2  C   UNL     1       1.453   5.788  21.006  0.00  0.00    +0.000 A 
ATOM      3  C   UNL     1       1.886   4.502  20.731  0.00  0.00    +0.000 A 
ATOM      4  C   UNL     1       2.773   4.243  19.679  0.00  0.00    +0.000 A 
ATOM      5 CL   UNL     1       3.335   2.609  19.702  0.00  0.00    +0.000 Cl
ATOM      6  C   UNL     1       3.210   5.289  18.830  0.00  0.00    +0.000 A 
ATOM      7  C   UNL     1       2.774   6.596  19.160  0.00  0.00    +0.000 A 
ENDROOT
BRANCH   1  11
ATOM      8  C   UNL     1       0.716  10.784  21.327  0.00  0.00    +0.000 A 
ATOM      9  C   UNL     1       0.801  10.494  19.980  0.00  0.00    +0.000 A 
ATOM     10  C   UNL     1       1.164   9.196  19.626  0.00  0.00    +0.000 A 
ATOM     11  C   UNL     1       1.451   8.225  20.608  0.00  0.00    +0.000 A 
ATOM     12  C   UNL     1       1.332   8.646  21.925  0.00  0.00    +0.000 A 
ATOM     13  N   UNL     1       0.959   9.885  22.303  0.00  0.00    +0.000 NA
BRANCH   8  14
ATOM     14  O   UNL     1       0.367  12.063  21.700  0.00  0.00    +0.000 OA
BRANCH  14  15
ATOM     15  C   UNL     1      -0.879  12.061  22.414  0.00  0.00    +0.000 C 
BRANCH  15  16
ATOM     16  C   UNL     1      -1.093  13.440  23.017  0.00  0.00    +0.000 C 
BRANCH  16  17
ATOM     17  C   UNL     1      -2.500  13.570  23.613  0.00  0.00    +0.000 C 
BRANCH  17  19
ATOM     18  C   UNL     1      -4.266  15.163  23.988  0.00  0.00    +0.000 C 
ATOM     19  N   UNL     1      -2.820  14.932  24.072  0.00  0.00    +0.000 NA
ATOM     20  C   UNL     1      -2.366  15.178  25.442  0.00  0.00    +0.000 C 
ENDBRANCH  17  19
ENDBRANCH  16  17
ENDBRANCH  15  16
ENDBRANCH  14  15
ENDBRANCH   8  14
ENDBRANCH   1  11
BRANCH   6  21
ATOM     21  N   UNL     1       4.050   5.190  17.666  0.00  0.00    +0.000 N 
ATOM     22  C   UNL     1       5.364   4.760  17.613  0.00  0.00    +0.000 C 
ATOM     23  O   UNL     1       6.021   4.368  18.574  0.00  0.00    +0.000 OA
ATOM     24  H   UNL     1       3.608   5.285  16.755  0.00  0.00    +0.000 HD
BRANCH  22  25
ATOM     25  C   UNL     1       6.008   4.690  16.300  0.00  0.00    +0.000 A 
ATOM     26  C   UNL     1       7.163   5.393  16.025  0.00  0.00    +0.000 A 
ATOM     27  O   UNL     1       7.522   5.157  14.744  0.00  0.00    +0.000 OA
ATOM     28  C   UNL     1       6.559   4.314  14.292  0.00  0.00    +0.000 A 
ATOM     29  N   UNL     1       6.692   3.991  12.994  0.00  0.00    +0.000 N 
ATOM     30  N   UNL     1       5.637   3.978  15.167  0.00  0.00    +0.000 NA
ATOM     31  H   UNL     1       7.285   4.597  12.450  0.00  0.00    +0.000 HD
ATOM     32  H   UNL     1       5.854   3.692  12.515  0.00  0.00    +0.000 HD
ENDBRANCH  22  25
ENDBRANCH   6  21
TORSDOF 8
ENDMDL
MODEL 6
REMARK VINA RESULT:      -7.4      3.603      4.636
REMARK  Name = 
REMARK  10 active torsions:
REMARK  status: ('A' for Active; 'I' for Inactive)
REMARK    1  A    between atoms: C_1  and  N_2
REMARK    2  A    between atoms: N_2  and  C_3
REMARK    3  A    between atoms: N_2  and  C_4
REMARK    4  A    between atoms: C_4  and  C_5
REMARK    5  A    between atoms: C_5  and  C_6
REMARK    6  A    between atoms: C_6  and  O_7
REMARK    7  A    between atoms: O_7  and  C_8
REMARK    8  A    between atoms: C_11  and  C_12
REMARK    9  A    between atoms: C_17  and  N_18
REMARK   10  A    between atoms: C_19  and  C_21
REMARK                            x       y       z     vdW  Elec       q    Type
REMARK                         _______ _______ _______ _____ _____    ______ ____
ROOT
ATOM      1  C   UNL     1       0.890   9.443  20.109  0.00  0.00    +0.000 A 
ATOM      2  C   UNL     1       1.243  10.051  18.901  0.00  0.00    +0.000 A 
ATOM      3  C   UNL     1       2.050   9.393  17.988  0.00  0.00    +0.000 A 
ATOM      4  C   UNL     1       2.547   8.111  18.249  0.00  0.00    +0.000 A 
ATOM      5 CL   UNL     1       3.320   7.429  16.861  0.00  0.00    +0.000 Cl
ATOM      6  C   UNL     1       2.282   7.472  19.484  0.00  0.00    +0.000 A 
ATOM      7  C   UNL     1       1.426   8.159  20.381  0.00  0.00    +0.000 A 
ENDROOT
BRANCH   1  11
ATOM      8  C   UNL     1      -1.596  11.564  22.796  0.00  0.00    +0.000 A 
ATOM      9  C   UNL     1      -1.591  11.970  21.476  0.00  0.00    +0.000 A 
ATOM     10  C   UNL     1      -0.793  11.252  20.588  0.00  0.00    +0.000 A 
ATOM     11  C   UNL     1      -0.010  10.164  21.026  0.00  0.00    +0.000 A 
ATOM     12  C   UNL     1      -0.101   9.861  22.377  0.00  0.00    +0.000 A 
ATOM     13  N   UNL     1      -0.882  10.518  23.259  0.00  0.00    +0.000 NA
BRANCH   8  14
ATOM     14  O   UNL     1      -2.371  12.264  23.692  0.00  0.00    +0.000 OA
BRANCH  14  15
ATOM     15  C   UNL     1      -2.979  13.400  23.059  0.00  0.00    +0.000 C 
BRANCH  15  16
ATOM     16  C   UNL     1      -4.447  13.445  23.451  0.00  0.00    +0.000 C 
BRANCH  16  17
ATOM     17  C   UNL     1      -5.340  12.957  22.303  0.00  0.00    +0.000 C 
BRANCH  17  19
ATOM     18  C   UNL     1      -7.090  12.761  23.945  0.00  0.00    +0.000 C 
ATOM     19  N   UNL     1      -6.488  12.152  22.754  0.00  0.00    +0.000 NA
ATOM     20  C   UNL     1      -7.506  12.004  21.713  0.00  0.00    +0.000 C 
ENDBRANCH  17  19
ENDBRANCH  16  17
ENDBRANCH  15  16
ENDBRANCH  14  15
ENDBRANCH   8  14
ENDBRANCH   1  11
BRANCH   6  21
ATOM     21  N   UNL     1       2.774   6.201  19.946  0.00  0.00    +0.000 N 
ATOM     22  C   UNL     1       2.441   4.947  19.466  0.00  0.00    +0.000 C 
ATOM     23  O   UNL     1       1.671   4.726  18.534  0.00  0.00    +0.000 OA
ATOM     24  H   UNL     1       3.570   6.204  20.579  0.00  0.00    +0.000 HD
BRANCH  22  25
ATOM     25  C   UNL     1       3.113   3.789  20.056  0.00  0.00    +0.000 A 
ATOM     26  C   UNL     1       2.656   3.207  21.221  0.00  0.00    +0.000 A 
ATOM     27  O   UNL     1       3.470   2.177  21.542  0.00  0.00    +0.000 OA
ATOM     28  C   UNL     1       4.395   2.179  20.548  0.00  0.00    +0.000 A 
ATOM     29  N   UNL     1       5.356   1.252  20.706  0.00  0.00    +0.000 N 
ATOM     30  N   UNL     1       4.235   3.096  19.621  0.00  0.00    +0.000 NA
ATOM     31  H   UNL     1       5.448   0.869  21.633  0.00  0.00    +0.000 HD
ATOM     32  H   UNL     1       6.235   1.429  20.241  0.00  0.00    +0.000 HD
ENDBRANCH  22  25
ENDBRANCH   6  21
TORSDOF 8
ENDMDL
MODEL 7
REMARK VINA RESULT:      -7.4      1.242      1.627
REMARK  Name = 
REMARK  10 active torsions:
REMARK  status: ('A' for Active; 'I' for Inactive)
REMARK    1  A    between atoms: C_1  and  N_2
REMARK    2  A    between atoms: N_2  and  C_3
REMARK    3  A    between atoms: N_2  and  C_4
REMARK    4  A    between atoms: C_4  and  C_5
REMARK    5  A    between atoms: C_5  and  C_6
REMARK    6  A    between atoms: C_6  and  O_7
REMARK    7  A    between atoms: O_7  and  C_8
REMARK    8  A    between atoms: C_11  and  C_12
REMARK    9  A    between atoms: C_17  and  N_18
REMARK   10  A    between atoms: C_19  and  C_21
REMARK                            x       y       z     vdW  Elec       q    Type
REMARK                         _______ _______ _______ _____ _____    ______ ____
ROOT
ATOM      1  C   UNL     1       2.098   6.484  20.103  0.00  0.00    +0.000 A 
ATOM      2  C   UNL     1       1.835   5.368  20.902  0.00  0.00    +0.000 A 
ATOM      3  C   UNL     1       2.438   4.150  20.635  0.00  0.00    +0.000 A 
ATOM      4  C   UNL     1       3.314   3.994  19.554  0.00  0.00    +0.000 A 
ATOM      5 CL   UNL     1       4.104   2.457  19.586  0.00  0.00    +0.000 Cl
ATOM      6  C   UNL     1       3.565   5.070  18.668  0.00  0.00    +0.000 A 
ATOM      7  C   UNL     1       2.959   6.310  18.991  0.00  0.00    +0.000 A 
ENDROOT
BRANCH   1  11
ATOM      8  C   UNL     1       0.209  10.154  21.036  0.00  0.00    +0.000 A 
ATOM      9  C   UNL     1       0.109   9.132  21.960  0.00  0.00    +0.000 A 
ATOM     10  C   UNL     1       0.756   7.934  21.663  0.00  0.00    +0.000 A 
ATOM     11  C   UNL     1       1.469   7.769  20.458  0.00  0.00    +0.000 A 
ATOM     12  C   UNL     1       1.490   8.870  19.614  0.00  0.00    +0.000 A 
ATOM     13  N   UNL     1       0.897  10.052  19.880  0.00  0.00    +0.000 NA
BRANCH   8  14
ATOM     14  O   UNL     1      -0.429  11.343  21.304  0.00  0.00    +0.000 OA
BRANCH  14  15
ATOM     15  C   UNL     1      -0.828  11.405  22.682  0.00  0.00    +0.000 C 
BRANCH  15  16
ATOM     16  C   UNL     1      -1.742  12.606  22.868  0.00  0.00    +0.000 C 
BRANCH  16  17
ATOM     17  C   UNL     1      -0.932  13.903  22.988  0.00  0.00    +0.000 C 
BRANCH  17  19
ATOM     18  C   UNL     1       0.041  14.893  21.021  0.00  0.00    +0.000 C 
ATOM     19  N   UNL     1      -1.152  14.838  21.872  0.00  0.00    +0.000 NA
ATOM     20  C   UNL     1      -2.314  14.472  21.061  0.00  0.00    +0.000 C 
ENDBRANCH  17  19
ENDBRANCH  16  17
ENDBRANCH  15  16
ENDBRANCH  14  15
ENDBRANCH   8  14
ENDBRANCH   1  11
BRANCH   6  21
ATOM     21  N   UNL     1       4.367   5.063  17.474  0.00  0.00    +0.000 N 
ATOM     22  C   UNL     1       5.718   4.781  17.371  0.00  0.00    +0.000 C 
ATOM     23  O   UNL     1       6.449   4.465  18.306  0.00  0.00    +0.000 OA
ATOM     24  H   UNL     1       3.884   5.107  16.580  0.00  0.00    +0.000 HD
BRANCH  22  25
ATOM     25  C   UNL     1       6.316   4.781  16.035  0.00  0.00    +0.000 A 
ATOM     26  C   UNL     1       6.044   3.780  15.124  0.00  0.00    +0.000 A 
ATOM     27  O   UNL     1       6.739   4.023  13.991  0.00  0.00    +0.000 OA
ATOM     28  C   UNL     1       7.409   5.171  14.266  0.00  0.00    +0.000 A 
ATOM     29  N   UNL     1       8.225   5.568  13.274  0.00  0.00    +0.000 N 
ATOM     30  N   UNL     1       7.192   5.688  15.454  0.00  0.00    +0.000 NA
ATOM     31  H   UNL     1       8.459   4.866  12.591  0.00  0.00    +0.000 HD
ATOM     32  H   UNL     1       8.995   6.166  13.536  0.00  0.00    +0.000 HD
ENDBRANCH  22  25
ENDBRANCH   6  21
TORSDOF 8
ENDMDL
MODEL 8
REMARK VINA RESULT:      -7.4      1.118      1.246
REMARK  Name = 
REMARK  10 active torsions:
REMARK  status: ('A' for Active; 'I' for Inactive)
REMARK    1  A    between atoms: C_1  and  N_2
REMARK    2  A    between atoms: N_2  and  C_3
REMARK    3  A    between atoms: N_2  and  C_4
REMARK    4  A    between atoms: C_4  and  C_5
REMARK    5  A    between atoms: C_5  and  C_6
REMARK    6  A    between atoms: C_6  and  O_7
REMARK    7  A    between atoms: O_7  and  C_8
REMARK    8  A    between atoms: C_11  and  C_12
REMARK    9  A    between atoms: C_17  and  N_18
REMARK   10  A    between atoms: C_19  and  C_21
REMARK                            x       y       z     vdW  Elec       q    Type
REMARK                         _______ _______ _______ _____ _____    ______ ____
ROOT
ATOM      1  C   UNL     1       1.909   7.005  20.305  0.00  0.00    +0.000 A 
ATOM      2  C   UNL     1       1.368   5.923  21.004  0.00  0.00    +0.000 A 
ATOM      3  C   UNL     1       1.882   4.647  20.841  0.00  0.00    +0.000 A 
ATOM      4  C   UNL     1       2.945   4.399  19.965  0.00  0.00    +0.000 A 
ATOM      5 CL   UNL     1       3.545   2.786  20.126  0.00  0.00    +0.000 Cl
ATOM      6  C   UNL     1       3.489   5.442  19.177  0.00  0.00    +0.000 A 
ATOM      7  C   UNL     1       2.962   6.740  19.394  0.00  0.00    +0.000 A 
ENDROOT
BRANCH   1  11
ATOM      8  C   UNL     1       0.231  10.837  20.939  0.00  0.00    +0.000 A 
ATOM      9  C   UNL     1       0.257   9.966  22.011  0.00  0.00    +0.000 A 
ATOM     10  C   UNL     1       0.836   8.715  21.807  0.00  0.00    +0.000 A 
ATOM     11  C   UNL     1       1.358   8.350  20.550  0.00  0.00    +0.000 A 
ATOM     12  C   UNL     1       1.267   9.313  19.555  0.00  0.00    +0.000 A 
ATOM     13  N   UNL     1       0.737  10.541  19.724  0.00  0.00    +0.000 NA
BRANCH   8  14
ATOM     14  O   UNL     1      -0.343  12.075  21.116  0.00  0.00    +0.000 OA
BRANCH  14  15
ATOM     15  C   UNL     1      -1.754  12.022  20.853  0.00  0.00    +0.000 C 
BRANCH  15  16
ATOM     16  C   UNL     1      -2.487  12.683  22.010  0.00  0.00    +0.000 C 
BRANCH  16  17
ATOM     17  C   UNL     1      -3.849  13.228  21.561  0.00  0.00    +0.000 C 
BRANCH  17  19
ATOM     18  C   UNL     1      -5.550  13.057  23.256  0.00  0.00    +0.000 C 
ATOM     19  N   UNL     1      -4.989  12.435  22.053  0.00  0.00    +0.000 NA
ATOM     20  C   UNL     1      -6.039  12.287  21.044  0.00  0.00    +0.000 C 
ENDBRANCH  17  19
ENDBRANCH  16  17
ENDBRANCH  15  16
ENDBRANCH  14  15
ENDBRANCH   8  14
ENDBRANCH   1  11
BRANCH   6  21
ATOM     21  N   UNL     1       4.521   5.350  18.178  0.00  0.00    +0.000 N 
ATOM     22  C   UNL     1       4.526   4.552  17.047  0.00  0.00    +0.000 C 
ATOM     23  O   UNL     1       3.617   3.800  16.707  0.00  0.00    +0.000 OA
ATOM     24  H   UNL     1       5.258   6.049  18.194  0.00  0.00    +0.000 HD
BRANCH  22  25
ATOM     25  C   UNL     1       5.667   4.664  16.137  0.00  0.00    +0.000 A 
ATOM     26  C   UNL     1       6.962   4.497  16.582  0.00  0.00    +0.000 A 
ATOM     27  O   UNL     1       7.805   4.671  15.540  0.00  0.00    +0.000 OA
ATOM     28  C   UNL     1       6.977   4.940  14.499  0.00  0.00    +0.000 A 
ATOM     29  N   UNL     1       7.625   5.209  13.352  0.00  0.00    +0.000 N 
ATOM     30  N   UNL     1       5.692   4.934  14.775  0.00  0.00    +0.000 NA
ATOM     31  H   UNL     1       8.597   5.454  13.445  0.00  0.00    +0.000 HD
ATOM     32  H   UNL     1       7.122   5.757  12.669  0.00  0.00    +0.000 HD
ENDBRANCH  22  25
ENDBRANCH   6  21
TORSDOF 8
ENDMDL
MODEL 9
REMARK VINA RESULT:      -7.3      2.085      2.677
REMARK  Name = 
REMARK  10 active torsions:
REMARK  status: ('A' for Active; 'I' for Inactive)
REMARK    1  A    between atoms: C_1  and  N_2
REMARK    2  A    between atoms: N_2  and  C_3
REMARK    3  A    between atoms: N_2  and  C_4
REMARK    4  A    between atoms: C_4  and  C_5
REMARK    5  A    between atoms: C_5  and  C_6
REMARK    6  A    between atoms: C_6  and  O_7
REMARK    7  A    between atoms: O_7  and  C_8
REMARK    8  A    between atoms: C_11  and  C_12
REMARK    9  A    between atoms: C_17  and  N_18
REMARK   10  A    between atoms: C_19  and  C_21
REMARK                            x       y       z     vdW  Elec       q    Type
REMARK                         _______ _______ _______ _____ _____    ______ ____
ROOT
ATOM      1  C   UNL     1       2.045   6.769  20.078  0.00  0.00    +0.000 A 
ATOM      2  C   UNL     1       1.656   5.667  20.844  0.00  0.00    +0.000 A 
ATOM      3  C   UNL     1       2.150   4.403  20.566  0.00  0.00    +0.000 A 
ATOM      4  C   UNL     1       3.039   4.188  19.507  0.00  0.00    +0.000 A 
ATOM      5 CL   UNL     1       3.682   2.583  19.526  0.00  0.00    +0.000 Cl
ATOM      6  C   UNL     1       3.416   5.253  18.652  0.00  0.00    +0.000 A 
ATOM      7  C   UNL     1       2.918   6.537  18.986  0.00  0.00    +0.000 A 
ENDROOT
BRANCH   1  11
ATOM      8  C   UNL     1       0.458  10.563  21.072  0.00  0.00    +0.000 A 
ATOM      9  C   UNL     1       0.629   9.655  22.098  0.00  0.00    +0.000 A 
ATOM     10  C   UNL     1       1.179   8.416  21.773  0.00  0.00    +0.000 A 
ATOM     11  C   UNL     1       1.528   8.100  20.444  0.00  0.00    +0.000 A 
ATOM     12  C   UNL     1       1.302   9.098  19.506  0.00  0.00    +0.000 A 
ATOM     13  N   UNL     1       0.796  10.316  19.790  0.00  0.00    +0.000 NA
BRANCH   8  14
ATOM     14  O   UNL     1      -0.091  11.790  21.370  0.00  0.00    +0.000 OA
BRANCH  14  15
ATOM     15  C   UNL     1       0.082  12.703  20.275  0.00  0.00    +0.000 C 
BRANCH  15  16
ATOM     16  C   UNL     1       1.046  13.797  20.706  0.00  0.00    +0.000 C 
BRANCH  16  17
ATOM     17  C   UNL     1       0.337  15.155  20.791  0.00  0.00    +0.000 C 
BRANCH  17  19
ATOM     18  C   UNL     1       2.020  15.685  19.153  0.00  0.00    +0.000 C 
ATOM     19  N   UNL     1       0.732  16.091  19.725  0.00  0.00    +0.000 NA
ATOM     20  C   UNL     1      -0.270  16.177  18.662  0.00  0.00    +0.000 C 
ENDBRANCH  17  19
ENDBRANCH  16  17
ENDBRANCH  15  16
ENDBRANCH  14  15
ENDBRANCH   8  14
ENDBRANCH   1  11
BRANCH   6  21
ATOM     21  N   UNL     1       4.249   5.194  17.480  0.00  0.00    +0.000 N 
ATOM     22  C   UNL     1       5.579   4.820  17.414  0.00  0.00    +0.000 C 
ATOM     23  O   UNL     1       6.259   4.450  18.368  0.00  0.00    +0.000 OA
ATOM     24  H   UNL     1       3.795   5.275  16.574  0.00  0.00    +0.000 HD
BRANCH  22  25
ATOM     25  C   UNL     1       6.213   4.782  16.096  0.00  0.00    +0.000 A 
ATOM     26  C   UNL     1       5.950   3.768  15.198  0.00  0.00    +0.000 A 
ATOM     27  O   UNL     1       6.679   3.976  14.079  0.00  0.00    +0.000 OA
ATOM     28  C   UNL     1       7.360   5.118  14.350  0.00  0.00    +0.000 A 
ATOM     29  N   UNL     1       8.209   5.482  13.373  0.00  0.00    +0.000 N 
ATOM     30  N   UNL     1       7.120   5.664  15.521  0.00  0.00    +0.000 NA
ATOM     31  H   UNL     1       8.451   4.762  12.711  0.00  0.00    +0.000 HD
ATOM     32  H   UNL     1       8.982   6.073  13.644  0.00  0.00    +0.000 HD
ENDBRANCH  22  25
ENDBRANCH   6  21
TORSDOF 8
ENDMDL
