MODEL 1
REMARK VINA RESULT:      -7.4      0.000      0.000
REMARK  Name = 
REMARK  6 active torsions:
REMARK  status: ('A' for Active; 'I' for Inactive)
REMARK    1  A    between atoms: C_1  and  C_2
REMARK    2  A    between atoms: C_2  and  O_3
REMARK    3  A    between atoms: O_3  and  C_4
REMARK    4  A    between atoms: C_9  and  N_10
REMARK    5  A    between atoms: N_10  and  C_11
REMARK    6  A    between atoms: C_16  and  C_18
REMARK                            x       y       z     vdW  Elec       q    Type
REMARK                         _______ _______ _______ _____ _____    ______ ____
ROOT
ATOM      1  C   UNL     1       2.139   6.606  19.842  0.00  0.00    +0.000 C 
ATOM      2  C   UNL     1       1.281   6.551  21.124  0.00  0.00    +0.000 C 
ATOM      3  C   UNL     1       0.183   7.623  21.129  0.00  0.00    +0.000 C 
ATOM      4  C   UNL     1       0.764   9.008  20.834  0.00  0.00    +0.000 C 
ATOM      5  N   UNL     1       1.455   8.958  19.547  0.00  0.00    +0.000 N 
ATOM      6  C   UNL     1       1.036   9.464  18.315  0.00  0.00    +0.000 C 
ATOM      7  O   UNL     1       1.696   9.297  17.286  0.00  0.00    +0.000 OA
ATOM      8  C   UNL     1       2.604   8.059  19.570  0.00  0.00    +0.000 C 
ENDROOT
BRANCH   6   9
ATOM      9  C   UNL     1      -0.226  10.246  18.172  0.00  0.00    +0.000 A 
ATOM     10  C   UNL     1      -1.309   9.636  17.522  0.00  0.00    +0.000 A 
ATOM     11  C   UNL     1      -2.525  10.309  17.383  0.00  0.00    +0.000 A 
ATOM     12  C   UNL     1      -2.667  11.604  17.878  0.00  0.00    +0.000 A 
ATOM     13  C   UNL     1      -1.611  12.205  18.555  0.00  0.00    +0.000 A 
ATOM     14  C   UNL     1      -0.412  11.513  18.734  0.00  0.00    +0.000 A 
ENDBRANCH   6   9
BRANCH   1  15
ATOM     15  N   UNL     1       3.329   5.752  19.924  0.00  0.00    +0.000 NA
ATOM     16  H   UNL     1       4.151   6.354  19.887  0.00  0.00    +0.000 HD
BRANCH  15  22
ATOM     17  C   UNL     1       6.956   5.012  16.622  0.00  0.00    +0.000 C 
ATOM     18  O   UNL     1       7.964   4.394  16.937  0.00  0.00    +0.000 OA
ATOM     19  N   UNL     1       5.887   5.220  17.469  0.00  0.00    +0.000 N 
ATOM     20  C   UNL     1       5.984   4.768  18.848  0.00  0.00    +0.000 C 
ATOM     21  C   UNL     1       4.765   3.923  19.200  0.00  0.00    +0.000 C 
ATOM     22  C   UNL     1       3.448   4.677  18.929  0.00  0.00    +0.000 C 
ATOM     23  C   UNL     1       3.440   5.155  17.464  0.00  0.00    +0.000 C 
ATOM     24  C   UNL     1       4.683   5.967  17.111  0.00  0.00    +0.000 C 
BRANCH  17  25
ATOM     25  O   UNL     1       6.790   5.626  15.421  0.00  0.00    +0.000 OA
BRANCH  25  27
ATOM     26  C   UNL     1       5.767   4.058  13.939  0.00  0.00    +0.000 C 
ATOM     27  C   UNL     1       7.051   4.789  14.288  0.00  0.00    +0.000 C 
ENDBRANCH  25  27
ENDBRANCH  17  25
ENDBRANCH  15  22
ENDBRANCH   1  15
TORSDOF 5
ENDMDL
MODEL 2
REMARK VINA RESULT:      -6.7      2.918      3.784
REMARK  Name = 
REMARK  6 active torsions:
REMARK  status: ('A' for Active; 'I' for Inactive)
REMARK    1  A    between atoms: C_1  and  C_2
REMARK    2  A    between atoms: C_2  and  O_3
REMARK    3  A    between atoms: O_3  and  C_4
REMARK    4  A    between atoms: C_9  and  N_10
REMARK    5  A    between atoms: N_10  and  C_11
REMARK    6  A    between atoms: C_16  and  C_18
REMARK                            x       y       z     vdW  Elec       q    Type
REMARK                         _______ _______ _______ _____ _____    ______ ____
ROOT
ATOM      1  C   UNL     1       1.570   9.023  19.735  0.00  0.00    +0.000 C 
ATOM      2  C   UNL     1       1.002   9.680  18.459  0.00  0.00    +0.000 C 
ATOM      3  C   UNL     1       0.029  10.822  18.782  0.00  0.00    +0.000 C 
ATOM      4  C   UNL     1      -1.045  10.367  19.773  0.00  0.00    +0.000 C 
ATOM      5  N   UNL     1      -0.386   9.870  20.979  0.00  0.00    +0.000 N 
ATOM      6  C   UNL     1      -0.266  10.491  22.224  0.00  0.00    +0.000 C 
ATOM      7  O   UNL     1       0.376   9.981  23.146  0.00  0.00    +0.000 OA
ATOM      8  C   UNL     1       0.422   8.682  20.719  0.00  0.00    +0.000 C 
ENDROOT
BRANCH   6   9
ATOM      9  C   UNL     1      -0.917  11.801  22.516  0.00  0.00    +0.000 A 
ATOM     10  C   UNL     1      -2.142  11.789  23.200  0.00  0.00    +0.000 A 
ATOM     11  C   UNL     1      -2.785  12.986  23.525  0.00  0.00    +0.000 A 
ATOM     12  C   UNL     1      -2.220  14.205  23.157  0.00  0.00    +0.000 A 
ATOM     13  C   UNL     1      -0.989  14.229  22.509  0.00  0.00    +0.000 A 
ATOM     14  C   UNL     1      -0.326  13.034  22.227  0.00  0.00    +0.000 A 
ENDBRANCH   6   9
BRANCH   1  15
ATOM     15  N   UNL     1       2.311   7.790  19.450  0.00  0.00    +0.000 NA
ATOM     16  H   UNL     1       3.273   7.922  19.762  0.00  0.00    +0.000 HD
BRANCH  15  22
ATOM     17  C   UNL     1       4.651   3.856  17.537  0.00  0.00    +0.000 C 
ATOM     18  O   UNL     1       4.140   2.746  17.590  0.00  0.00    +0.000 OA
ATOM     19  N   UNL     1       4.044   5.003  18.005  0.00  0.00    +0.000 N 
ATOM     20  C   UNL     1       2.765   4.893  18.690  0.00  0.00    +0.000 C 
ATOM     21  C   UNL     1       1.763   5.860  18.069  0.00  0.00    +0.000 C 
ATOM     22  C   UNL     1       2.295   7.308  18.062  0.00  0.00    +0.000 C 
ATOM     23  C   UNL     1       3.664   7.333  17.358  0.00  0.00    +0.000 C 
ATOM     24  C   UNL     1       4.647   6.333  17.962  0.00  0.00    +0.000 C 
BRANCH  17  25
ATOM     25  O   UNL     1       5.905   4.090  17.069  0.00  0.00    +0.000 OA
BRANCH  25  27
ATOM     26  C   UNL     1       6.667   4.993  14.994  0.00  0.00    +0.000 C 
ATOM     27  C   UNL     1       6.090   3.770  15.686  0.00  0.00    +0.000 C 
ENDBRANCH  25  27
ENDBRANCH  17  25
ENDBRANCH  15  22
ENDBRANCH   1  15
TORSDOF 5
ENDMDL
MODEL 3
REMARK VINA RESULT:      -6.7      1.354      1.626
REMARK  Name = 
REMARK  6 active torsions:
REMARK  status: ('A' for Active; 'I' for Inactive)
REMARK    1  A    between atoms: C_1  and  C_2
REMARK    2  A    between atoms: C_2  and  O_3
REMARK    3  A    between atoms: O_3  and  C_4
REMARK    4  A    between atoms: C_9  and  N_10
REMARK    5  A    between atoms: N_10  and  C_11
REMARK    6  A    between atoms: C_16  and  C_18
REMARK                            x       y       z     vdW  Elec       q    Type
REMARK                         _______ _______ _______ _____ _____    ______ ____
ROOT
ATOM      1  C   UNL     1       1.327   7.944  20.276  0.00  0.00    +0.000 C 
ATOM      2  C   UNL     1       1.037   8.338  21.741  0.00  0.00    +0.000 C 
ATOM      3  C   UNL     1      -0.106   9.356  21.848  0.00  0.00    +0.000 C 
ATOM      4  C   UNL     1       0.131  10.551  20.922  0.00  0.00    +0.000 C 
ATOM      5  N   UNL     1       0.280  10.058  19.554  0.00  0.00    +0.000 N 
ATOM      6  C   UNL     1      -0.639  10.115  18.504  0.00  0.00    +0.000 C 
ATOM      7  O   UNL     1      -0.405   9.600  17.408  0.00  0.00    +0.000 OA
ATOM      8  C   UNL     1       1.458   9.212  19.396  0.00  0.00    +0.000 C 
ENDROOT
BRANCH   6   9
ATOM      9  C   UNL     1      -1.951  10.811  18.643  0.00  0.00    +0.000 A 
ATOM     10  C   UNL     1      -3.034  10.332  17.891  0.00  0.00    +0.000 A 
ATOM     11  C   UNL     1      -4.293  10.926  18.000  0.00  0.00    +0.000 A 
ATOM     12  C   UNL     1      -4.480  12.015  18.848  0.00  0.00    +0.000 A 
ATOM     13  C   UNL     1      -3.422  12.477  19.625  0.00  0.00    +0.000 A 
ATOM     14  C   UNL     1      -2.177  11.852  19.549  0.00  0.00    +0.000 A 
ENDBRANCH   6   9
BRANCH   1  15
ATOM     15  N   UNL     1       2.559   7.160  20.138  0.00  0.00    +0.000 NA
ATOM     16  H   UNL     1       3.262   7.754  19.699  0.00  0.00    +0.000 HD
BRANCH  15  22
ATOM     17  C   UNL     1       5.915   5.044  17.162  0.00  0.00    +0.000 C 
ATOM     18  O   UNL     1       6.802   4.343  17.628  0.00  0.00    +0.000 OA
ATOM     19  N   UNL     1       4.921   5.628  17.918  0.00  0.00    +0.000 N 
ATOM     20  C   UNL     1       4.967   5.494  19.366  0.00  0.00    +0.000 C 
ATOM     21  C   UNL     1       3.625   4.985  19.879  0.00  0.00    +0.000 C 
ATOM     22  C   UNL     1       2.459   5.883  19.418  0.00  0.00    +0.000 C 
ATOM     23  C   UNL     1       2.503   6.007  17.883  0.00  0.00    +0.000 C 
ATOM     24  C   UNL     1       3.864   6.479  17.377  0.00  0.00    +0.000 C 
BRANCH  17  25
ATOM     25  O   UNL     1       5.835   5.386  15.849  0.00  0.00    +0.000 OA
BRANCH  25  27
ATOM     26  C   UNL     1       6.167   3.973  13.953  0.00  0.00    +0.000 C 
ATOM     27  C   UNL     1       6.851   4.807  15.022  0.00  0.00    +0.000 C 
ENDBRANCH  25  27
ENDBRANCH  17  25
ENDBRANCH  15  22
ENDBRANCH   1  15
TORSDOF 5
ENDMDL
MODEL 4
REMARK VINA RESULT:      -6.6      3.380      9.084
REMARK  Name = 
REMARK  6 active torsions:
REMARK  status: ('A' for Active; 'I' for Inactive)
REMARK    1  A    between atoms: C_1  and  C_2
REMARK    2  A    between atoms: C_2  and  O_3
REMARK    3  A    between atoms: O_3  and  C_4
REMARK    4  A    between atoms: C_9  and  N_10
REMARK    5  A    between atoms: N_10  and  C_11
REMARK    6  A    between atoms: C_16  and  C_18
REMARK                            x       y       z     vdW  Elec       q    Type
REMARK                         _______ _______ _______ _____ _____    ______ ____
ROOT
ATOM      1  C   UNL     1       1.271   8.522  19.023  0.00  0.00    +0.000 C 
ATOM      2  C   UNL     1       2.329   8.798  17.934  0.00  0.00    +0.000 C 
ATOM      3  C   UNL     1       3.123   7.537  17.568  0.00  0.00    +0.000 C 
ATOM      4  C   UNL     1       3.687   6.859  18.820  0.00  0.00    +0.000 C 
ATOM      5  N   UNL     1       2.579   6.549  19.722  0.00  0.00    +0.000 N 
ATOM      6  C   UNL     1       1.984   5.312  19.976  0.00  0.00    +0.000 C 
ATOM      7  O   UNL     1       1.007   5.202  20.721  0.00  0.00    +0.000 OA
ATOM      8  C   UNL     1       1.908   7.751  20.207  0.00  0.00    +0.000 C 
ENDROOT
BRANCH   6   9
ATOM      9  C   UNL     1       2.503   4.050  19.373  0.00  0.00    +0.000 A 
ATOM     10  C   UNL     1       2.011   3.672  18.114  0.00  0.00    +0.000 A 
ATOM     11  C   UNL     1       2.480   2.515  17.487  0.00  0.00    +0.000 A 
ATOM     12  C   UNL     1       3.432   1.716  18.118  0.00  0.00    +0.000 A 
ATOM     13  C   UNL     1       3.951   2.100  19.350  0.00  0.00    +0.000 A 
ATOM     14  C   UNL     1       3.515   3.281  19.953  0.00  0.00    +0.000 A 
ENDBRANCH   6   9
BRANCH   1  15
ATOM     15  N   UNL     1       0.669   9.753  19.547  0.00  0.00    +0.000 NA
ATOM     16  H   UNL     1      -0.130   9.491  20.124  0.00  0.00    +0.000 HD
BRANCH  15  22
ATOM     17  C   UNL     1      -3.807  11.781  18.876  0.00  0.00    +0.000 C 
ATOM     18  O   UNL     1      -4.155  12.747  19.540  0.00  0.00    +0.000 OA
ATOM     19  N   UNL     1      -2.564  11.190  18.972  0.00  0.00    +0.000 N 
ATOM     20  C   UNL     1      -1.634  11.670  19.983  0.00  0.00    +0.000 C 
ATOM     21  C   UNL     1      -0.289  11.982  19.338  0.00  0.00    +0.000 C 
ATOM     22  C   UNL     1       0.270  10.770  18.565  0.00  0.00    +0.000 C 
ATOM     23  C   UNL     1      -0.785  10.299  17.546  0.00  0.00    +0.000 C 
ATOM     24  C   UNL     1      -2.140  10.027  18.196  0.00  0.00    +0.000 C 
BRANCH  17  25
ATOM     25  O   UNL     1      -4.623  11.128  18.006  0.00  0.00    +0.000 OA
BRANCH  25  27
ATOM     26  C   UNL     1      -6.712  10.402  18.905  0.00  0.00    +0.000 C 
ATOM     27  C   UNL     1      -6.006  11.485  18.109  0.00  0.00    +0.000 C 
ENDBRANCH  25  27
ENDBRANCH  17  25
ENDBRANCH  15  22
ENDBRANCH   1  15
TORSDOF 5
ENDMDL
MODEL 5
REMARK VINA RESULT:      -6.5      3.040      4.017
REMARK  Name = 
REMARK  6 active torsions:
REMARK  status: ('A' for Active; 'I' for Inactive)
REMARK    1  A    between atoms: C_1  and  C_2
REMARK    2  A    between atoms: C_2  and  O_3
REMARK    3  A    between atoms: O_3  and  C_4
REMARK    4  A    between atoms: C_9  and  N_10
REMARK    5  A    between atoms: N_10  and  C_11
REMARK    6  A    between atoms: C_16  and  C_18
REMARK                            x       y       z     vdW  Elec       q    Type
REMARK                         _______ _______ _______ _____ _____    ______ ____
ROOT
ATOM      1  C   UNL     1       1.485   8.888  20.595  0.00  0.00    +0.000 C 
ATOM      2  C   UNL     1       1.151   9.497  19.216  0.00  0.00    +0.000 C 
ATOM      3  C   UNL     1       0.192  10.689  19.330  0.00  0.00    +0.000 C 
ATOM      4  C   UNL     1      -1.042  10.327  20.161  0.00  0.00    +0.000 C 
ATOM      5  N   UNL     1      -0.600   9.870  21.477  0.00  0.00    +0.000 N 
ATOM      6  C   UNL     1      -0.646  10.551  22.695  0.00  0.00    +0.000 C 
ATOM      7  O   UNL     1      -0.178  10.067  23.728  0.00  0.00    +0.000 OA
ATOM      8  C   UNL     1       0.185   8.642  21.402  0.00  0.00    +0.000 C 
ENDROOT
BRANCH   6   9
ATOM      9  C   UNL     1      -1.275  11.898  22.820  0.00  0.00    +0.000 A 
ATOM     10  C   UNL     1      -0.508  13.018  22.468  0.00  0.00    +0.000 A 
ATOM     11  C   UNL     1      -1.053  14.303  22.539  0.00  0.00    +0.000 A 
ATOM     12  C   UNL     1      -2.363  14.483  22.977  0.00  0.00    +0.000 A 
ATOM     13  C   UNL     1      -3.144  13.376  23.296  0.00  0.00    +0.000 A 
ATOM     14  C   UNL     1      -2.612  12.091  23.179  0.00  0.00    +0.000 A 
ENDBRANCH   6   9
BRANCH   1  15
ATOM     15  N   UNL     1       2.205   7.614  20.487  0.00  0.00    +0.000 NA
ATOM     16  H   UNL     1       3.184   7.823  20.288  0.00  0.00    +0.000 HD
BRANCH  15  22
ATOM     17  C   UNL     1       4.557   3.719  18.513  0.00  0.00    +0.000 C 
ATOM     18  O   UNL     1       4.576   2.645  19.098  0.00  0.00    +0.000 OA
ATOM     19  N   UNL     1       3.888   4.833  18.974  0.00  0.00    +0.000 N 
ATOM     20  C   UNL     1       3.241   4.776  20.276  0.00  0.00    +0.000 C 
ATOM     21  C   UNL     1       1.793   5.237  20.152  0.00  0.00    +0.000 C 
ATOM     22  C   UNL     1       1.692   6.638  19.516  0.00  0.00    +0.000 C 
ATOM     23  C   UNL     1       2.432   6.627  18.165  0.00  0.00    +0.000 C 
ATOM     24  C   UNL     1       3.869   6.126  18.294  0.00  0.00    +0.000 C 
BRANCH  17  25
ATOM     25  O   UNL     1       5.246   3.967  17.367  0.00  0.00    +0.000 OA
BRANCH  25  27
ATOM     26  C   UNL     1       7.186   4.752  16.218  0.00  0.00    +0.000 C 
ATOM     27  C   UNL     1       6.602   4.380  17.569  0.00  0.00    +0.000 C 
ENDBRANCH  25  27
ENDBRANCH  17  25
ENDBRANCH  15  22
ENDBRANCH   1  15
TORSDOF 5
ENDMDL
MODEL 6
REMARK VINA RESULT:      -6.5      3.367      9.252
REMARK  Name = 
REMARK  6 active torsions:
REMARK  status: ('A' for Active; 'I' for Inactive)
REMARK    1  A    between atoms: C_1  and  C_2
REMARK    2  A    between atoms: C_2  and  O_3
REMARK    3  A    between atoms: O_3  and  C_4
REMARK    4  A    between atoms: C_9  and  N_10
REMARK    5  A    between atoms: N_10  and  C_11
REMARK    6  A    between atoms: C_16  and  C_18
REMARK                            x       y       z     vdW  Elec       q    Type
REMARK                         _______ _______ _______ _____ _____    ______ ____
ROOT
ATOM      1  C   UNL     1       1.514   8.474  18.863  0.00  0.00    +0.000 C 
ATOM      2  C   UNL     1       2.593   8.670  17.776  0.00  0.00    +0.000 C 
ATOM      3  C   UNL     1       3.338   7.365  17.461  0.00  0.00    +0.000 C 
ATOM      4  C   UNL     1       3.861   6.708  18.741  0.00  0.00    +0.000 C 
ATOM      5  N   UNL     1       2.734   6.475  19.641  0.00  0.00    +0.000 N 
ATOM      6  C   UNL     1       2.086   5.272  19.931  0.00  0.00    +0.000 C 
ATOM      7  O   UNL     1       1.098   5.228  20.669  0.00  0.00    +0.000 OA
ATOM      8  C   UNL     1       2.109   7.719  20.079  0.00  0.00    +0.000 C 
ENDROOT
BRANCH   6   9
ATOM      9  C   UNL     1       2.557   3.971  19.375  0.00  0.00    +0.000 A 
ATOM     10  C   UNL     1       2.001   3.531  18.165  0.00  0.00    +0.000 A 
ATOM     11  C   UNL     1       2.423   2.333  17.582  0.00  0.00    +0.000 A 
ATOM     12  C   UNL     1       3.392   1.555  18.211  0.00  0.00    +0.000 A 
ATOM     13  C   UNL     1       3.976   1.998  19.394  0.00  0.00    +0.000 A 
ATOM     14  C   UNL     1       3.586   3.218  19.949  0.00  0.00    +0.000 A 
ENDBRANCH   6   9
BRANCH   1  15
ATOM     15  N   UNL     1       0.960   9.746  19.340  0.00  0.00    +0.000 NA
ATOM     16  H   UNL     1       1.618  10.144  20.009  0.00  0.00    +0.000 HD
BRANCH  15  22
ATOM     17  C   UNL     1      -1.650  13.487  21.289  0.00  0.00    +0.000 C 
ATOM     18  O   UNL     1      -2.329  14.208  20.572  0.00  0.00    +0.000 OA
ATOM     19  N   UNL     1      -0.934  12.401  20.829  0.00  0.00    +0.000 N 
ATOM     20  C   UNL     1      -0.895  12.140  19.398  0.00  0.00    +0.000 C 
ATOM     21  C   UNL     1      -1.276  10.689  19.130  0.00  0.00    +0.000 C 
ATOM     22  C   UNL     1      -0.389   9.708  19.923  0.00  0.00    +0.000 C 
ATOM     23  C   UNL     1      -0.453  10.074  21.417  0.00  0.00    +0.000 C 
ATOM     24  C   UNL     1      -0.108  11.540  21.671  0.00  0.00    +0.000 C 
BRANCH  17  25
ATOM     25  O   UNL     1      -1.465  13.702  22.618  0.00  0.00    +0.000 OA
BRANCH  25  27
ATOM     26  C   UNL     1      -3.226  12.413  23.588  0.00  0.00    +0.000 C 
ATOM     27  C   UNL     1      -2.676  13.812  23.375  0.00  0.00    +0.000 C 
ENDBRANCH  25  27
ENDBRANCH  17  25
ENDBRANCH  15  22
ENDBRANCH   1  15
TORSDOF 5
ENDMDL
MODEL 7
REMARK VINA RESULT:      -6.5      2.757      8.788
REMARK  Name = 
REMARK  6 active torsions:
REMARK  status: ('A' for Active; 'I' for Inactive)
REMARK    1  A    between atoms: C_1  and  C_2
REMARK    2  A    between atoms: C_2  and  O_3
REMARK    3  A    between atoms: O_3  and  C_4
REMARK    4  A    between atoms: C_9  and  N_10
REMARK    5  A    between atoms: N_10  and  C_11
REMARK    6  A    between atoms: C_16  and  C_18
REMARK                            x       y       z     vdW  Elec       q    Type
REMARK                         _______ _______ _______ _____ _____    ______ ____
ROOT
ATOM      1  C   UNL     1       2.063   6.865  20.279  0.00  0.00    +0.000 C 
ATOM      2  C   UNL     1       1.807   5.371  20.573  0.00  0.00    +0.000 C 
ATOM      3  C   UNL     1       2.684   4.455  19.708  0.00  0.00    +0.000 C 
ATOM      4  C   UNL     1       2.569   4.822  18.226  0.00  0.00    +0.000 C 
ATOM      5  N   UNL     1       2.941   6.227  18.063  0.00  0.00    +0.000 N 
ATOM      6  C   UNL     1       4.125   6.759  17.548  0.00  0.00    +0.000 C 
ATOM      7  O   UNL     1       4.335   7.974  17.526  0.00  0.00    +0.000 OA
ATOM      8  C   UNL     1       2.021   7.126  18.752  0.00  0.00    +0.000 C 
ENDROOT
BRANCH   6   9
ATOM      9  C   UNL     1       5.199   5.891  16.985  0.00  0.00    +0.000 A 
ATOM     10  C   UNL     1       5.203   5.662  15.601  0.00  0.00    +0.000 A 
ATOM     11  C   UNL     1       6.200   4.879  15.013  0.00  0.00    +0.000 A 
ATOM     12  C   UNL     1       7.193   4.305  15.803  0.00  0.00    +0.000 A 
ATOM     13  C   UNL     1       7.219   4.554  17.172  0.00  0.00    +0.000 A 
ATOM     14  C   UNL     1       6.249   5.374  17.750  0.00  0.00    +0.000 A 
ENDBRANCH   6   9
BRANCH   1  15
ATOM     15  N   UNL     1       1.077   7.741  20.921  0.00  0.00    +0.000 NA
ATOM     16  H   UNL     1       0.249   7.771  20.326  0.00  0.00    +0.000 HD
BRANCH  15  22
ATOM     17  C   UNL     1      -1.705  11.583  22.372  0.00  0.00    +0.000 C 
ATOM     18  O   UNL     1      -1.986  11.734  23.553  0.00  0.00    +0.000 OA
ATOM     19  N   UNL     1      -0.901  10.568  21.897  0.00  0.00    +0.000 N 
ATOM     20  C   UNL     1      -0.428   9.553  22.826  0.00  0.00    +0.000 C 
ATOM     21  C   UNL     1       1.084   9.404  22.700  0.00  0.00    +0.000 C 
ATOM     22  C   UNL     1       1.511   9.106  21.249  0.00  0.00    +0.000 C 
ATOM     23  C   UNL     1       0.941  10.200  20.327  0.00  0.00    +0.000 C 
ATOM     24  C   UNL     1      -0.568  10.368  20.488  0.00  0.00    +0.000 C 
BRANCH  17  25
ATOM     25  O   UNL     1      -2.200  12.360  21.372  0.00  0.00    +0.000 OA
BRANCH  25  27
ATOM     26  C   UNL     1      -4.219  12.815  20.180  0.00  0.00    +0.000 C 
ATOM     27  C   UNL     1      -3.566  12.753  21.550  0.00  0.00    +0.000 C 
ENDBRANCH  25  27
ENDBRANCH  17  25
ENDBRANCH  15  22
ENDBRANCH   1  15
TORSDOF 5
ENDMDL
MODEL 8
REMARK VINA RESULT:      -6.5      2.937      4.008
REMARK  Name = 
REMARK  6 active torsions:
REMARK  status: ('A' for Active; 'I' for Inactive)
REMARK    1  A    between atoms: C_1  and  C_2
REMARK    2  A    between atoms: C_2  and  O_3
REMARK    3  A    between atoms: O_3  and  C_4
REMARK    4  A    between atoms: C_9  and  N_10
REMARK    5  A    between atoms: N_10  and  C_11
REMARK    6  A    between atoms: C_16  and  C_18
REMARK                            x       y       z     vdW  Elec       q    Type
REMARK                         _______ _______ _______ _____ _____    ______ ____
ROOT
ATOM      1  C   UNL     1       1.420   9.085  19.937  0.00  0.00    +0.000 C 
ATOM      2  C   UNL     1       0.879   9.757  18.656  0.00  0.00    +0.000 C 
ATOM      3  C   UNL     1      -0.080  10.913  18.973  0.00  0.00    +0.000 C 
ATOM      4  C   UNL     1      -1.174  10.469  19.948  0.00  0.00    +0.000 C 
ATOM      5  N   UNL     1      -0.538   9.956  21.160  0.00  0.00    +0.000 N 
ATOM      6  C   UNL     1      -0.425  10.569  22.409  0.00  0.00    +0.000 C 
ATOM      7  O   UNL     1       0.197  10.044  23.337  0.00  0.00    +0.000 OA
ATOM      8  C   UNL     1       0.254   8.757  20.904  0.00  0.00    +0.000 C 
ENDROOT
BRANCH   6   9
ATOM      9  C   UNL     1      -1.059  11.887  22.700  0.00  0.00    +0.000 A 
ATOM     10  C   UNL     1      -0.379  13.047  22.300  0.00  0.00    +0.000 A 
ATOM     11  C   UNL     1      -0.936  14.309  22.521  0.00  0.00    +0.000 A 
ATOM     12  C   UNL     1      -2.171  14.426  23.157  0.00  0.00    +0.000 A 
ATOM     13  C   UNL     1      -2.869  13.281  23.526  0.00  0.00    +0.000 A 
ATOM     14  C   UNL     1      -2.332  12.020  23.263  0.00  0.00    +0.000 A 
ENDBRANCH   6   9
BRANCH   1  15
ATOM     15  N   UNL     1       2.146   7.842  19.655  0.00  0.00    +0.000 NA
ATOM     16  H   UNL     1       3.107   7.959  19.975  0.00  0.00    +0.000 HD
BRANCH  15  22
ATOM     17  C   UNL     1       5.165   4.536  17.520  0.00  0.00    +0.000 C 
ATOM     18  O   UNL     1       4.925   3.339  17.595  0.00  0.00    +0.000 OA
ATOM     19  N   UNL     1       4.351   5.517  18.047  0.00  0.00    +0.000 N 
ATOM     20  C   UNL     1       3.186   5.121  18.824  0.00  0.00    +0.000 C 
ATOM     21  C   UNL     1       1.947   5.833  18.292  0.00  0.00    +0.000 C 
ATOM     22  C   UNL     1       2.134   7.363  18.266  0.00  0.00    +0.000 C 
ATOM     23  C   UNL     1       3.404   7.697  17.461  0.00  0.00    +0.000 C 
ATOM     24  C   UNL     1       4.631   6.949  17.977  0.00  0.00    +0.000 C 
BRANCH  17  25
ATOM     25  O   UNL     1       6.295   5.046  16.962  0.00  0.00    +0.000 OA
BRANCH  25  27
ATOM     26  C   UNL     1       7.787   5.557  18.756  0.00  0.00    +0.000 C 
ATOM     27  C   UNL     1       7.509   4.622  17.591  0.00  0.00    +0.000 C 
ENDBRANCH  25  27
ENDBRANCH  17  25
ENDBRANCH  15  22
ENDBRANCH   1  15
TORSDOF 5
ENDMDL
MODEL 9
REMARK VINA RESULT:      -6.5      3.024      8.862
REMARK  Name = 
REMARK  6 active torsions:
REMARK  status: ('A' for Active; 'I' for Inactive)
REMARK    1  A    between atoms: C_1  and  C_2
REMARK    2  A    between atoms: C_2  and  O_3
REMARK    3  A    between atoms: O_3  and  C_4
REMARK    4  A    between atoms: C_9  and  N_10
REMARK    5  A    between atoms: N_10  and  C_11
REMARK    6  A    between atoms: C_16  and  C_18
REMARK                            x       y       z     vdW  Elec       q    Type
REMARK                         _______ _______ _______ _____ _____    ______ ____
ROOT
ATOM      1  C   UNL     1       2.336   7.014  20.351  0.00  0.00    +0.000 C 
ATOM      2  C   UNL     1       1.658   5.635  20.499  0.00  0.00    +0.000 C 
ATOM      3  C   UNL     1       2.152   4.634  19.446  0.00  0.00    +0.000 C 
ATOM      4  C   UNL     1       2.054   5.223  18.037  0.00  0.00    +0.000 C 
ATOM      5  N   UNL     1       2.825   6.464  17.996  0.00  0.00    +0.000 N 
ATOM      6  C   UNL     1       4.077   6.692  17.421  0.00  0.00    +0.000 C 
ATOM      7  O   UNL     1       4.646   7.783  17.514  0.00  0.00    +0.000 OA
ATOM      8  C   UNL     1       2.273   7.488  18.877  0.00  0.00    +0.000 C 
ENDROOT
BRANCH   6   9
ATOM      9  C   UNL     1       4.794   5.635  16.651  0.00  0.00    +0.000 A 
ATOM     10  C   UNL     1       5.285   5.965  15.379  0.00  0.00    +0.000 A 
ATOM     11  C   UNL     1       5.989   5.025  14.623  0.00  0.00    +0.000 A 
ATOM     12  C   UNL     1       6.195   3.740  15.122  0.00  0.00    +0.000 A 
ATOM     13  C   UNL     1       5.743   3.413  16.396  0.00  0.00    +0.000 A 
ATOM     14  C   UNL     1       5.081   4.368  17.169  0.00  0.00    +0.000 A 
ENDBRANCH   6   9
BRANCH   1  15
ATOM     15  N   UNL     1       1.710   8.042  21.190  0.00  0.00    +0.000 NA
ATOM     16  H   UNL     1       1.766   7.732  22.161  0.00  0.00    +0.000 HD
BRANCH  15  22
ATOM     17  C   UNL     1      -0.698  12.212  22.379  0.00  0.00    +0.000 C 
ATOM     18  O   UNL     1      -0.600  13.206  21.674  0.00  0.00    +0.000 OA
ATOM     19  N   UNL     1      -0.097  11.004  22.092  0.00  0.00    +0.000 N 
ATOM     20  C   UNL     1       0.786  10.915  20.939  0.00  0.00    +0.000 C 
ATOM     21  C   UNL     1       0.374   9.738  20.064  0.00  0.00    +0.000 C 
ATOM     22  C   UNL     1       0.329   8.419  20.862  0.00  0.00    +0.000 C 
ATOM     23  C   UNL     1      -0.593   8.607  22.083  0.00  0.00    +0.000 C 
ATOM     24  C   UNL     1      -0.194   9.812  22.931  0.00  0.00    +0.000 C 
BRANCH  17  25
ATOM     25  O   UNL     1      -1.360  12.189  23.566  0.00  0.00    +0.000 OA
BRANCH  25  27
ATOM     26  C   UNL     1      -3.276  13.549  23.992  0.00  0.00    +0.000 C 
ATOM     27  C   UNL     1      -2.787  12.219  23.449  0.00  0.00    +0.000 C 
ENDBRANCH  25  27
ENDBRANCH  17  25
ENDBRANCH  15  22
ENDBRANCH   1  15
TORSDOF 5
ENDMDL
