MODEL 1
REMARK VINA RESULT:      -6.7      0.000      0.000
REMARK  Name = 
REMARK  8 active torsions:
REMARK  status: ('A' for Active; 'I' for Inactive)
REMARK    1  A    between atoms: C_1  and  C_2
REMARK    2  A    between atoms: C_2  and  C_3
REMARK    3  A    between atoms: C_2  and  C_4
REMARK    4  A    between atoms: C_7  and  C_8
REMARK    5  A    between atoms: N_10  and  C_11
REMARK    6  A    between atoms: C_11  and  C_12
REMARK    7  A    between atoms: C_12  and  C_13
REMARK    8  A    between atoms: C_13  and  N_14
REMARK                            x       y       z     vdW  Elec       q    Type
REMARK                         _______ _______ _______ _____ _____    ______ ____
ROOT
ATOM      1  C   UNL     1       6.339   5.529  18.559  0.00  0.00    +0.000 C 
ATOM      2  O   UNL     1       7.362   4.890  18.779  0.00  0.00    +0.000 OA
ATOM      3  N   UNL     1       6.327   6.708  17.841  0.00  0.00    +0.000 N 
ATOM      4  H   UNL     1       5.452   7.117  17.543  0.00  0.00    +0.000 HD
ENDROOT
BRANCH   1   8
ATOM      5  C   UNL     1       2.680   3.951  19.886  0.00  0.00    +0.000 A 
ATOM      6  N   UNL     1       2.817   5.295  19.897  0.00  0.00    +0.000 NA
ATOM      7  C   UNL     1       4.004   5.792  19.478  0.00  0.00    +0.000 A 
ATOM      8  C   UNL     1       5.044   5.009  19.034  0.00  0.00    +0.000 A 
ATOM      9  C   UNL     1       4.814   3.652  19.082  0.00  0.00    +0.000 A 
ATOM     10  N   UNL     1       3.645   3.102  19.485  0.00  0.00    +0.000 NA
BRANCH   5  12
ATOM     11  C   UNL     1       0.835   2.470  19.129  0.00  0.00    +0.000 C 
ATOM     12  C   UNL     1       1.320   3.394  20.247  0.00  0.00    +0.000 C 
ATOM     13  C   UNL     1       1.309   2.663  21.591  0.00  0.00    +0.000 C 
ENDBRANCH   5  12
ENDBRANCH   1   8
BRANCH   3  14
ATOM     14  C   UNL     1       7.549   7.249  17.268  0.00  0.00    +0.000 C 
BRANCH  14  15
ATOM     15  C   UNL     1       8.308   8.124  18.262  0.00  0.00    +0.000 C 
BRANCH  15  16
ATOM     16  C   UNL     1       8.130   9.606  17.939  0.00  0.00    +0.000 C 
BRANCH  16  17
ATOM     17  N   UNL     1       9.137  10.434  18.576  0.00  0.00    +0.000 N 
ATOM     18  C   UNL     1       9.308  10.618  19.919  0.00  0.00    +0.000 A 
ATOM     19  C   UNL     1      10.378  11.477  20.024  0.00  0.00    +0.000 A 
ATOM     20  N   UNL     1      10.840  11.831  18.784  0.00  0.00    +0.000 NA
ATOM     21  C   UNL     1      10.069  11.197  17.931  0.00  0.00    +0.000 A 
ENDBRANCH  16  17
ENDBRANCH  15  16
ENDBRANCH  14  15
ENDBRANCH   3  14
TORSDOF 6
ENDMDL
MODEL 2
REMARK VINA RESULT:      -6.7      4.002      7.853
REMARK  Name = 
REMARK  8 active torsions:
REMARK  status: ('A' for Active; 'I' for Inactive)
REMARK    1  A    between atoms: C_1  and  C_2
REMARK    2  A    between atoms: C_2  and  C_3
REMARK    3  A    between atoms: C_2  and  C_4
REMARK    4  A    between atoms: C_7  and  C_8
REMARK    5  A    between atoms: N_10  and  C_11
REMARK    6  A    between atoms: C_11  and  C_12
REMARK    7  A    between atoms: C_12  and  C_13
REMARK    8  A    between atoms: C_13  and  N_14
REMARK                            x       y       z     vdW  Elec       q    Type
REMARK                         _______ _______ _______ _____ _____    ______ ____
ROOT
ATOM      1  C   UNL     1       4.788   5.678  18.192  0.00  0.00    +0.000 C 
ATOM      2  O   UNL     1       5.450   5.696  19.224  0.00  0.00    +0.000 OA
ATOM      3  N   UNL     1       3.467   6.073  18.137  0.00  0.00    +0.000 N 
ATOM      4  H   UNL     1       3.007   6.199  17.246  0.00  0.00    +0.000 HD
ENDROOT
BRANCH   1   8
ATOM      5  C   UNL     1       6.681   4.572  14.610  0.00  0.00    +0.000 A 
ATOM      6  N   UNL     1       5.509   3.969  14.905  0.00  0.00    +0.000 NA
ATOM      7  C   UNL     1       4.914   4.325  16.067  0.00  0.00    +0.000 A 
ATOM      8  C   UNL     1       5.427   5.264  16.930  0.00  0.00    +0.000 A 
ATOM      9  C   UNL     1       6.636   5.805  16.551  0.00  0.00    +0.000 A 
ATOM     10  N   UNL     1       7.271   5.491  15.398  0.00  0.00    +0.000 NA
BRANCH   5  12
ATOM     11  C   UNL     1       6.260   3.570  12.376  0.00  0.00    +0.000 C 
ATOM     12  C   UNL     1       7.297   4.262  13.262  0.00  0.00    +0.000 C 
ATOM     13  C   UNL     1       7.862   5.499  12.563  0.00  0.00    +0.000 C 
ENDBRANCH   5  12
ENDBRANCH   1   8
BRANCH   3  14
ATOM     14  C   UNL     1       2.784   6.571  19.321  0.00  0.00    +0.000 C 
BRANCH  14  15
ATOM     15  C   UNL     1       2.281   5.438  20.211  0.00  0.00    +0.000 C 
BRANCH  15  16
ATOM     16  C   UNL     1       1.623   4.337  19.380  0.00  0.00    +0.000 C 
BRANCH  16  17
ATOM     17  N   UNL     1       2.512   3.215  19.148  0.00  0.00    +0.000 N 
ATOM     18  C   UNL     1       2.514   2.390  18.059  0.00  0.00    +0.000 A 
ATOM     19  C   UNL     1       3.528   1.491  18.297  0.00  0.00    +0.000 A 
ATOM     20  N   UNL     1       4.122   1.739  19.508  0.00  0.00    +0.000 NA
ATOM     21  C   UNL     1       3.484   2.776  20.002  0.00  0.00    +0.000 A 
ENDBRANCH  16  17
ENDBRANCH  15  16
ENDBRANCH  14  15
ENDBRANCH   3  14
TORSDOF 6
ENDMDL
MODEL 3
REMARK VINA RESULT:      -6.6      4.867      7.708
REMARK  Name = 
REMARK  8 active torsions:
REMARK  status: ('A' for Active; 'I' for Inactive)
REMARK    1  A    between atoms: C_1  and  C_2
REMARK    2  A    between atoms: C_2  and  C_3
REMARK    3  A    between atoms: C_2  and  C_4
REMARK    4  A    between atoms: C_7  and  C_8
REMARK    5  A    between atoms: N_10  and  C_11
REMARK    6  A    between atoms: C_11  and  C_12
REMARK    7  A    between atoms: C_12  and  C_13
REMARK    8  A    between atoms: C_13  and  N_14
REMARK                            x       y       z     vdW  Elec       q    Type
REMARK                         _______ _______ _______ _____ _____    ______ ____
ROOT
ATOM      1  C   UNL     1       3.580   5.981  18.604  0.00  0.00    +0.000 C 
ATOM      2  O   UNL     1       4.165   5.597  19.609  0.00  0.00    +0.000 OA
ATOM      3  N   UNL     1       3.610   5.296  17.406  0.00  0.00    +0.000 N 
ATOM      4  H   UNL     1       2.988   5.554  16.652  0.00  0.00    +0.000 HD
ENDROOT
BRANCH   1   8
ATOM      5  C   UNL     1       1.218   9.443  18.877  0.00  0.00    +0.000 A 
ATOM      6  N   UNL     1       1.819   9.194  17.693  0.00  0.00    +0.000 NA
ATOM      7  C   UNL     1       2.587   8.082  17.621  0.00  0.00    +0.000 A 
ATOM      8  C   UNL     1       2.762   7.206  18.666  0.00  0.00    +0.000 A 
ATOM      9  C   UNL     1       2.124   7.559  19.835  0.00  0.00    +0.000 A 
ATOM     10  N   UNL     1       1.340   8.654  19.961  0.00  0.00    +0.000 NA
BRANCH   5  12
ATOM     11  C   UNL     1      -0.943  10.344  18.045  0.00  0.00    +0.000 C 
ATOM     12  C   UNL     1       0.270  10.622  18.934  0.00  0.00    +0.000 C 
ATOM     13  C   UNL     1      -0.174  10.966  20.357  0.00  0.00    +0.000 C 
ENDBRANCH   5  12
ENDBRANCH   1   8
BRANCH   3  14
ATOM     14  C   UNL     1       4.328   4.037  17.281  0.00  0.00    +0.000 C 
BRANCH  14  15
ATOM     15  C   UNL     1       3.418   2.834  17.515  0.00  0.00    +0.000 C 
BRANCH  15  16
ATOM     16  C   UNL     1       3.759   2.134  18.829  0.00  0.00    +0.000 C 
BRANCH  16  17
ATOM     17  N   UNL     1       2.845   2.492  19.897  0.00  0.00    +0.000 N 
ATOM     18  C   UNL     1       1.532   2.846  19.760  0.00  0.00    +0.000 A 
ATOM     19  C   UNL     1       1.096   3.089  21.042  0.00  0.00    +0.000 A 
ATOM     20  N   UNL     1       2.113   2.913  21.943  0.00  0.00    +0.000 NA
ATOM     21  C   UNL     1       3.156   2.563  21.225  0.00  0.00    +0.000 A 
ENDBRANCH  16  17
ENDBRANCH  15  16
ENDBRANCH  14  15
ENDBRANCH   3  14
TORSDOF 6
ENDMDL
MODEL 4
REMARK VINA RESULT:      -6.6      4.444      7.857
REMARK  Name = 
REMARK  8 active torsions:
REMARK  status: ('A' for Active; 'I' for Inactive)
REMARK    1  A    between atoms: C_1  and  C_2
REMARK    2  A    between atoms: C_2  and  C_3
REMARK    3  A    between atoms: C_2  and  C_4
REMARK    4  A    between atoms: C_7  and  C_8
REMARK    5  A    between atoms: N_10  and  C_11
REMARK    6  A    between atoms: C_11  and  C_12
REMARK    7  A    between atoms: C_12  and  C_13
REMARK    8  A    between atoms: C_13  and  N_14
REMARK                            x       y       z     vdW  Elec       q    Type
REMARK                         _______ _______ _______ _____ _____    ______ ____
ROOT
ATOM      1  C   UNL     1       4.388   5.649  18.346  0.00  0.00    +0.000 C 
ATOM      2  O   UNL     1       5.068   5.564  19.362  0.00  0.00    +0.000 OA
ATOM      3  N   UNL     1       3.097   6.135  18.342  0.00  0.00    +0.000 N 
ATOM      4  H   UNL     1       2.629   6.342  17.470  0.00  0.00    +0.000 HD
ENDROOT
BRANCH   1   8
ATOM      5  C   UNL     1       6.070   4.459  14.687  0.00  0.00    +0.000 A 
ATOM      6  N   UNL     1       5.789   5.771  14.843  0.00  0.00    +0.000 NA
ATOM      7  C   UNL     1       5.237   6.141  16.022  0.00  0.00    +0.000 A 
ATOM      8  C   UNL     1       4.974   5.266  17.049  0.00  0.00    +0.000 A 
ATOM      9  C   UNL     1       5.277   3.948  16.784  0.00  0.00    +0.000 A 
ATOM     10  N   UNL     1       5.836   3.524  15.627  0.00  0.00    +0.000 NA
BRANCH   5  12
ATOM     11  C   UNL     1       5.778   3.492  12.417  0.00  0.00    +0.000 C 
ATOM     12  C   UNL     1       6.789   4.054  13.417  0.00  0.00    +0.000 C 
ATOM     13  C   UNL     1       7.587   5.199  12.789  0.00  0.00    +0.000 C 
ENDBRANCH   5  12
ENDBRANCH   1   8
BRANCH   3  14
ATOM     14  C   UNL     1       2.470   6.610  19.566  0.00  0.00    +0.000 C 
BRANCH  14  15
ATOM     15  C   UNL     1       2.285   5.490  20.586  0.00  0.00    +0.000 C 
BRANCH  15  16
ATOM     16  C   UNL     1       1.255   4.471  20.103  0.00  0.00    +0.000 C 
BRANCH  16  17
ATOM     17  N   UNL     1       1.857   3.405  19.323  0.00  0.00    +0.000 N 
ATOM     18  C   UNL     1       2.840   2.551  19.737  0.00  0.00    +0.000 A 
ATOM     19  C   UNL     1       3.071   1.730  18.657  0.00  0.00    +0.000 A 
ATOM     20  N   UNL     1       2.272   2.080  17.601  0.00  0.00    +0.000 NA
ATOM     21  C   UNL     1       1.558   3.097  18.027  0.00  0.00    +0.000 A 
ENDBRANCH  16  17
ENDBRANCH  15  16
ENDBRANCH  14  15
ENDBRANCH   3  14
TORSDOF 6
ENDMDL
MODEL 5
REMARK VINA RESULT:      -6.6      0.708      1.414
REMARK  Name = 
REMARK  8 active torsions:
REMARK  status: ('A' for Active; 'I' for Inactive)
REMARK    1  A    between atoms: C_1  and  C_2
REMARK    2  A    between atoms: C_2  and  C_3
REMARK    3  A    between atoms: C_2  and  C_4
REMARK    4  A    between atoms: C_7  and  C_8
REMARK    5  A    between atoms: N_10  and  C_11
REMARK    6  A    between atoms: C_11  and  C_12
REMARK    7  A    between atoms: C_12  and  C_13
REMARK    8  A    between atoms: C_13  and  N_14
REMARK                            x       y       z     vdW  Elec       q    Type
REMARK                         _______ _______ _______ _____ _____    ______ ____
ROOT
ATOM      1  C   UNL     1       6.227   5.246  17.912  0.00  0.00    +0.000 C 
ATOM      2  O   UNL     1       7.083   4.445  17.553  0.00  0.00    +0.000 OA
ATOM      3  N   UNL     1       6.404   6.613  17.855  0.00  0.00    +0.000 N 
ATOM      4  H   UNL     1       5.622   7.238  18.004  0.00  0.00    +0.000 HD
ENDROOT
BRANCH   1   8
ATOM      5  C   UNL     1       2.502   3.911  19.319  0.00  0.00    +0.000 A 
ATOM      6  N   UNL     1       3.190   3.083  18.503  0.00  0.00    +0.000 NA
ATOM      7  C   UNL     1       4.384   3.529  18.046  0.00  0.00    +0.000 A 
ATOM      8  C   UNL     1       4.923   4.748  18.384  0.00  0.00    +0.000 A 
ATOM      9  C   UNL     1       4.135   5.526  19.204  0.00  0.00    +0.000 A 
ATOM     10  N   UNL     1       2.938   5.128  19.695  0.00  0.00    +0.000 NA
BRANCH   5  12
ATOM     11  C   UNL     1       0.607   2.342  18.978  0.00  0.00    +0.000 C 
ATOM     12  C   UNL     1       1.220   3.376  19.922  0.00  0.00    +0.000 C 
ATOM     13  C   UNL     1       1.417   2.781  21.317  0.00  0.00    +0.000 C 
ENDBRANCH   5  12
ENDBRANCH   1   8
BRANCH   3  14
ATOM     14  C   UNL     1       7.630   7.190  17.327  0.00  0.00    +0.000 C 
BRANCH  14  15
ATOM     15  C   UNL     1       8.305   8.119  18.333  0.00  0.00    +0.000 C 
BRANCH  15  16
ATOM     16  C   UNL     1       8.167   9.580  17.911  0.00  0.00    +0.000 C 
BRANCH  16  17
ATOM     17  N   UNL     1       9.142  10.437  18.560  0.00  0.00    +0.000 N 
ATOM     18  C   UNL     1      10.039  11.262  17.942  0.00  0.00    +0.000 A 
ATOM     19  C   UNL     1      10.736  11.857  18.968  0.00  0.00    +0.000 A 
ATOM     20  N   UNL     1      10.299  11.398  20.182  0.00  0.00    +0.000 NA
ATOM     21  C   UNL     1       9.346  10.537  19.906  0.00  0.00    +0.000 A 
ENDBRANCH  16  17
ENDBRANCH  15  16
ENDBRANCH  14  15
ENDBRANCH   3  14
TORSDOF 6
ENDMDL
MODEL 6
REMARK VINA RESULT:      -6.6      4.293      7.288
REMARK  Name = 
REMARK  8 active torsions:
REMARK  status: ('A' for Active; 'I' for Inactive)
REMARK    1  A    between atoms: C_1  and  C_2
REMARK    2  A    between atoms: C_2  and  C_3
REMARK    3  A    between atoms: C_2  and  C_4
REMARK    4  A    between atoms: C_7  and  C_8
REMARK    5  A    between atoms: N_10  and  C_11
REMARK    6  A    between atoms: C_11  and  C_12
REMARK    7  A    between atoms: C_12  and  C_13
REMARK    8  A    between atoms: C_13  and  N_14
REMARK                            x       y       z     vdW  Elec       q    Type
REMARK                         _______ _______ _______ _____ _____    ______ ____
ROOT
ATOM      1  C   UNL     1       5.565   4.004  18.521  0.00  0.00    +0.000 C 
ATOM      2  O   UNL     1       6.000   4.739  19.400  0.00  0.00    +0.000 OA
ATOM      3  N   UNL     1       4.714   2.947  18.775  0.00  0.00    +0.000 N 
ATOM      4  H   UNL     1       4.250   2.469  18.014  0.00  0.00    +0.000 HD
ENDROOT
BRANCH   1   8
ATOM      5  C   UNL     1       6.468   4.733  14.485  0.00  0.00    +0.000 A 
ATOM      6  N   UNL     1       7.458   4.919  15.385  0.00  0.00    +0.000 NA
ATOM      7  C   UNL     1       7.152   4.692  16.684  0.00  0.00    +0.000 A 
ATOM      8  C   UNL     1       5.915   4.272  17.114  0.00  0.00    +0.000 A 
ATOM      9  C   UNL     1       4.970   4.133  16.122  0.00  0.00    +0.000 A 
ATOM     10  N   UNL     1       5.222   4.339  14.809  0.00  0.00    +0.000 NA
BRANCH   5  12
ATOM     11  C   UNL     1       8.265   5.397  12.902  0.00  0.00    +0.000 C 
ATOM     12  C   UNL     1       6.832   4.877  13.022  0.00  0.00    +0.000 C 
ATOM     13  C   UNL     1       6.663   3.578  12.232  0.00  0.00    +0.000 C 
ENDBRANCH   5  12
ENDBRANCH   1   8
BRANCH   3  14
ATOM     14  C   UNL     1       4.255   2.662  20.125  0.00  0.00    +0.000 C 
BRANCH  14  15
ATOM     15  C   UNL     1       2.763   2.935  20.292  0.00  0.00    +0.000 C 
BRANCH  15  16
ATOM     16  C   UNL     1       2.198   3.667  19.076  0.00  0.00    +0.000 C 
BRANCH  16  17
ATOM     17  N   UNL     1       2.228   5.109  19.238  0.00  0.00    +0.000 N 
ATOM     18  C   UNL     1       1.941   5.804  20.379  0.00  0.00    +0.000 A 
ATOM     19  C   UNL     1       2.108   7.127  20.038  0.00  0.00    +0.000 A 
ATOM     20  N   UNL     1       2.465   7.247  18.720  0.00  0.00    +0.000 NA
ATOM     21  C   UNL     1       2.520   6.017  18.262  0.00  0.00    +0.000 A 
ENDBRANCH  16  17
ENDBRANCH  15  16
ENDBRANCH  14  15
ENDBRANCH   3  14
TORSDOF 6
ENDMDL
MODEL 7
REMARK VINA RESULT:      -6.5      5.081      7.927
REMARK  Name = 
REMARK  8 active torsions:
REMARK  status: ('A' for Active; 'I' for Inactive)
REMARK    1  A    between atoms: C_1  and  C_2
REMARK    2  A    between atoms: C_2  and  C_3
REMARK    3  A    between atoms: C_2  and  C_4
REMARK    4  A    between atoms: C_7  and  C_8
REMARK    5  A    between atoms: N_10  and  C_11
REMARK    6  A    between atoms: C_11  and  C_12
REMARK    7  A    between atoms: C_12  and  C_13
REMARK    8  A    between atoms: C_13  and  N_14
REMARK                            x       y       z     vdW  Elec       q    Type
REMARK                         _______ _______ _______ _____ _____    ______ ____
ROOT
ATOM      1  C   UNL     1       3.193   6.605  17.827  0.00  0.00    +0.000 C 
ATOM      2  O   UNL     1       4.214   6.917  17.224  0.00  0.00    +0.000 OA
ATOM      3  N   UNL     1       2.757   5.302  17.946  0.00  0.00    +0.000 N 
ATOM      4  H   UNL     1       2.007   5.068  18.584  0.00  0.00    +0.000 HD
ENDROOT
BRANCH   1   8
ATOM      5  C   UNL     1       0.944   9.523  19.844  0.00  0.00    +0.000 A 
ATOM      6  N   UNL     1       1.225   9.747  18.541  0.00  0.00    +0.000 NA
ATOM      7  C   UNL     1       1.960   8.805  17.905  0.00  0.00    +0.000 A 
ATOM      8  C   UNL     1       2.406   7.651  18.505  0.00  0.00    +0.000 A 
ATOM      9  C   UNL     1       2.086   7.527  19.839  0.00  0.00    +0.000 A 
ATOM     10  N   UNL     1       1.348   8.433  20.522  0.00  0.00    +0.000 NA
BRANCH   5  12
ATOM     11  C   UNL     1       0.023  10.242  22.036  0.00  0.00    +0.000 C 
ATOM     12  C   UNL     1       0.031  10.515  20.532  0.00  0.00    +0.000 C 
ATOM     13  C   UNL     1       0.408  11.971  20.252  0.00  0.00    +0.000 C 
ENDBRANCH   5  12
ENDBRANCH   1   8
BRANCH   3  14
ATOM     14  C   UNL     1       3.517   4.201  17.376  0.00  0.00    +0.000 C 
BRANCH  14  15
ATOM     15  C   UNL     1       2.713   2.904  17.346  0.00  0.00    +0.000 C 
BRANCH  15  16
ATOM     16  C   UNL     1       3.179   1.942  18.437  0.00  0.00    +0.000 C 
BRANCH  16  17
ATOM     17  N   UNL     1       2.641   2.284  19.740  0.00  0.00    +0.000 N 
ATOM     18  C   UNL     1       1.329   2.518  20.042  0.00  0.00    +0.000 A 
ATOM     19  C   UNL     1       1.321   2.799  21.389  0.00  0.00    +0.000 A 
ATOM     20  N   UNL     1       2.592   2.763  21.900  0.00  0.00    +0.000 NA
ATOM     21  C   UNL     1       3.367   2.460  20.883  0.00  0.00    +0.000 A 
ENDBRANCH  16  17
ENDBRANCH  15  16
ENDBRANCH  14  15
ENDBRANCH   3  14
TORSDOF 6
ENDMDL
MODEL 8
REMARK VINA RESULT:      -6.5      5.098      7.799
REMARK  Name = 
REMARK  8 active torsions:
REMARK  status: ('A' for Active; 'I' for Inactive)
REMARK    1  A    between atoms: C_1  and  C_2
REMARK    2  A    between atoms: C_2  and  C_3
REMARK    3  A    between atoms: C_2  and  C_4
REMARK    4  A    between atoms: C_7  and  C_8
REMARK    5  A    between atoms: N_10  and  C_11
REMARK    6  A    between atoms: C_11  and  C_12
REMARK    7  A    between atoms: C_12  and  C_13
REMARK    8  A    between atoms: C_13  and  N_14
REMARK                            x       y       z     vdW  Elec       q    Type
REMARK                         _______ _______ _______ _____ _____    ______ ____
ROOT
ATOM      1  C   UNL     1       3.232   6.321  17.943  0.00  0.00    +0.000 C 
ATOM      2  O   UNL     1       4.310   6.637  17.452  0.00  0.00    +0.000 OA
ATOM      3  N   UNL     1       2.708   5.047  17.855  0.00  0.00    +0.000 N 
ATOM      4  H   UNL     1       1.903   4.785  18.407  0.00  0.00    +0.000 HD
ENDROOT
BRANCH   1   8
ATOM      5  C   UNL     1       1.052   9.231  20.044  0.00  0.00    +0.000 A 
ATOM      6  N   UNL     1       1.410   8.118  20.719  0.00  0.00    +0.000 NA
ATOM      7  C   UNL     1       2.103   7.182  20.028  0.00  0.00    +0.000 A 
ATOM      8  C   UNL     1       2.465   7.320  18.709  0.00  0.00    +0.000 A 
ATOM      9  C   UNL     1       2.033   8.480  18.105  0.00  0.00    +0.000 A 
ATOM     10  N   UNL     1       1.345   9.451  18.748  0.00  0.00    +0.000 NA
BRANCH   5  12
ATOM     11  C   UNL     1      -0.690  11.002  19.969  0.00  0.00    +0.000 C 
ATOM     12  C   UNL     1       0.375  10.329  20.836  0.00  0.00    +0.000 C 
ATOM     13  C   UNL     1      -0.235   9.832  22.148  0.00  0.00    +0.000 C 
ENDBRANCH   5  12
ENDBRANCH   1   8
BRANCH   3  14
ATOM     14  C   UNL     1       3.437   3.981  17.185  0.00  0.00    +0.000 C 
BRANCH  14  15
ATOM     15  C   UNL     1       2.770   2.622  17.379  0.00  0.00    +0.000 C 
BRANCH  15  16
ATOM     16  C   UNL     1       3.365   1.883  18.576  0.00  0.00    +0.000 C 
BRANCH  16  17
ATOM     17  N   UNL     1       2.737   2.265  19.827  0.00  0.00    +0.000 N 
ATOM     18  C   UNL     1       1.411   2.527  20.024  0.00  0.00    +0.000 A 
ATOM     19  C   UNL     1       1.307   2.841  21.360  0.00  0.00    +0.000 A 
ATOM     20  N   UNL     1       2.536   2.796  21.966  0.00  0.00    +0.000 NA
ATOM     21  C   UNL     1       3.379   2.456  21.018  0.00  0.00    +0.000 A 
ENDBRANCH  16  17
ENDBRANCH  15  16
ENDBRANCH  14  15
ENDBRANCH   3  14
TORSDOF 6
ENDMDL
MODEL 9
REMARK VINA RESULT:      -6.5      5.023      7.895
REMARK  Name = 
REMARK  8 active torsions:
REMARK  status: ('A' for Active; 'I' for Inactive)
REMARK    1  A    between atoms: C_1  and  C_2
REMARK    2  A    between atoms: C_2  and  C_3
REMARK    3  A    between atoms: C_2  and  C_4
REMARK    4  A    between atoms: C_7  and  C_8
REMARK    5  A    between atoms: N_10  and  C_11
REMARK    6  A    between atoms: C_11  and  C_12
REMARK    7  A    between atoms: C_12  and  C_13
REMARK    8  A    between atoms: C_13  and  N_14
REMARK                            x       y       z     vdW  Elec       q    Type
REMARK                         _______ _______ _______ _____ _____    ______ ____
ROOT
ATOM      1  C   UNL     1       3.335   6.040  18.746  0.00  0.00    +0.000 C 
ATOM      2  O   UNL     1       4.125   5.652  19.600  0.00  0.00    +0.000 OA
ATOM      3  N   UNL     1       3.134   5.381  17.551  0.00  0.00    +0.000 N 
ATOM      4  H   UNL     1       2.363   5.637  16.948  0.00  0.00    +0.000 HD
ENDROOT
BRANCH   1   8
ATOM      5  C   UNL     1       1.025   9.486  19.397  0.00  0.00    +0.000 A 
ATOM      6  N   UNL     1       1.218   8.661  20.449  0.00  0.00    +0.000 NA
ATOM      7  C   UNL     1       1.955   7.548  20.224  0.00  0.00    +0.000 A 
ATOM      8  C   UNL     1       2.517   7.238  19.009  0.00  0.00    +0.000 A 
ATOM      9  C   UNL     1       2.244   8.131  17.996  0.00  0.00    +0.000 A 
ATOM     10  N   UNL     1       1.521   9.262  18.165  0.00  0.00    +0.000 NA
BRANCH   5  12
ATOM     11  C   UNL     1       1.317  11.911  19.857  0.00  0.00    +0.000 C 
ATOM     12  C   UNL     1       0.298  10.787  19.665  0.00  0.00    +0.000 C 
ATOM     13  C   UNL     1      -0.704  11.150  18.568  0.00  0.00    +0.000 C 
ENDBRANCH   5  12
ENDBRANCH   1   8
BRANCH   3  14
ATOM     14  C   UNL     1       3.842   4.147  17.246  0.00  0.00    +0.000 C 
BRANCH  14  15
ATOM     15  C   UNL     1       2.934   2.925  17.356  0.00  0.00    +0.000 C 
BRANCH  15  16
ATOM     16  C   UNL     1       3.350   2.035  18.526  0.00  0.00    +0.000 C 
BRANCH  16  17
ATOM     17  N   UNL     1       2.685   2.402  19.762  0.00  0.00    +0.000 N 
ATOM     18  C   UNL     1       1.371   2.749  19.906  0.00  0.00    +0.000 A 
ATOM     19  C   UNL     1       1.219   3.006  21.249  0.00  0.00    +0.000 A 
ATOM     20  N   UNL     1       2.408   2.845  21.912  0.00  0.00    +0.000 NA
ATOM     21  C   UNL     1       3.274   2.491  20.991  0.00  0.00    +0.000 A 
ENDBRANCH  16  17
ENDBRANCH  15  16
ENDBRANCH  14  15
ENDBRANCH   3  14
TORSDOF 6
ENDMDL
