MODEL 1
REMARK VINA RESULT:      -5.8      0.000      0.000
REMARK  Name = 
REMARK  4 active torsions:
REMARK  status: ('A' for Active; 'I' for Inactive)
REMARK    1  A    between atoms: N_1  and  C_2
REMARK    2  A    between atoms: C_2  and  C_3
REMARK    3  A    between atoms: C_3  and  C_4
REMARK    4  A    between atoms: C_4  and  C_6
REMARK                            x       y       z     vdW  Elec       q    Type
REMARK                         _______ _______ _______ _____ _____    ______ ____
ROOT
ATOM      1  C   UNL     1       5.397   4.563  18.472  0.00  0.00    +0.000 A 
ATOM      2  C   UNL     1       6.358   5.331  19.130  0.00  0.00    +0.000 A 
ATOM      3  N   UNL     1       7.280   5.768  18.245  0.00  0.00    +0.000 NA
ATOM      4  C   UNL     1       6.869   5.264  17.071  0.00  0.00    +0.000 A 
ATOM      5  N   UNL     1       7.494   5.462  15.883  0.00  0.00    +0.000 NA
ATOM      6  C   UNL     1       6.970   4.904  14.757  0.00  0.00    +0.000 A 
ATOM      7  C   UNL     1       5.795   4.132  14.826  0.00  0.00    +0.000 A 
ATOM      8  C   UNL     1       5.177   3.952  16.071  0.00  0.00    +0.000 A 
ATOM      9  N   UNL     1       5.745   4.533  17.163  0.00  0.00    +0.000 N 
ENDROOT
BRANCH   1  10
ATOM     10  C   UNL     1       4.201   3.915  19.089  0.00  0.00    +0.000 C 
ATOM     11  O   UNL     1       3.202   4.580  19.316  0.00  0.00    +0.000 OA
BRANCH  10  12
ATOM     12  C   UNL     1       4.201   2.462  19.515  0.00  0.00    +0.000 C 
BRANCH  12  13
ATOM     13  C   UNL     1       3.608   1.523  18.457  0.00  0.00    +0.000 C 
BRANCH  13  14
ATOM     14  N   UNL     1       2.248   1.915  18.101  0.00  0.00    +0.000 NA
ATOM     15  H   UNL     1       2.135   1.795  17.068  0.00  0.00    +0.000 HD
ATOM     16  H   UNL     1       2.120   2.931  18.314  0.00  0.00    +0.000 HD
ENDBRANCH  13  14
ENDBRANCH  12  13
ENDBRANCH  10  12
ENDBRANCH   1  10
TORSDOF 4
ENDMDL
MODEL 2
REMARK VINA RESULT:      -5.8      1.944      4.507
REMARK  Name = 
REMARK  4 active torsions:
REMARK  status: ('A' for Active; 'I' for Inactive)
REMARK    1  A    between atoms: N_1  and  C_2
REMARK    2  A    between atoms: C_2  and  C_3
REMARK    3  A    between atoms: C_3  and  C_4
REMARK    4  A    between atoms: C_4  and  C_6
REMARK                            x       y       z     vdW  Elec       q    Type
REMARK                         _______ _______ _______ _____ _____    ______ ____
ROOT
ATOM      1  C   UNL     1       5.323   4.853  17.200  0.00  0.00    +0.000 A 
ATOM      2  C   UNL     1       6.281   5.014  18.201  0.00  0.00    +0.000 A 
ATOM      3  N   UNL     1       5.948   4.270  19.278  0.00  0.00    +0.000 NA
ATOM      4  C   UNL     1       4.802   3.672  18.919  0.00  0.00    +0.000 A 
ATOM      5  N   UNL     1       4.104   2.808  19.698  0.00  0.00    +0.000 NA
ATOM      6  C   UNL     1       2.957   2.257  19.213  0.00  0.00    +0.000 A 
ATOM      7  C   UNL     1       2.503   2.581  17.921  0.00  0.00    +0.000 A 
ATOM      8  C   UNL     1       3.252   3.476  17.146  0.00  0.00    +0.000 A 
ATOM      9  N   UNL     1       4.391   3.995  17.681  0.00  0.00    +0.000 N 
ENDROOT
BRANCH   1  10
ATOM     10  C   UNL     1       5.335   5.487  15.847  0.00  0.00    +0.000 C 
ATOM     11  O   UNL     1       5.209   6.697  15.746  0.00  0.00    +0.000 OA
BRANCH  10  12
ATOM     12  C   UNL     1       5.429   4.671  14.575  0.00  0.00    +0.000 C 
BRANCH  12  13
ATOM     13  C   UNL     1       6.873   4.360  14.163  0.00  0.00    +0.000 C 
BRANCH  13  14
ATOM     14  N   UNL     1       7.758   5.487  14.438  0.00  0.00    +0.000 NA
ATOM     15  H   UNL     1       7.171   6.293  14.753  0.00  0.00    +0.000 HD
ATOM     16  H   UNL     1       8.232   5.772  13.550  0.00  0.00    +0.000 HD
ENDBRANCH  13  14
ENDBRANCH  12  13
ENDBRANCH  10  12
ENDBRANCH   1  10
TORSDOF 4
ENDMDL
MODEL 3
REMARK VINA RESULT:      -5.7      2.116      4.680
REMARK  Name = 
REMARK  4 active torsions:
REMARK  status: ('A' for Active; 'I' for Inactive)
REMARK    1  A    between atoms: N_1  and  C_2
REMARK    2  A    between atoms: C_2  and  C_3
REMARK    3  A    between atoms: C_3  and  C_4
REMARK    4  A    between atoms: C_4  and  C_6
REMARK                            x       y       z     vdW  Elec       q    Type
REMARK                         _______ _______ _______ _____ _____    ______ ____
ROOT
ATOM      1  C   UNL     1       4.318   5.252  19.000  0.00  0.00    +0.000 A 
ATOM      2  C   UNL     1       3.405   6.220  19.417  0.00  0.00    +0.000 A 
ATOM      3  N   UNL     1       2.160   5.698  19.435  0.00  0.00    +0.000 NA
ATOM      4  C   UNL     1       2.333   4.430  19.032  0.00  0.00    +0.000 A 
ATOM      5  N   UNL     1       1.338   3.514  18.913  0.00  0.00    +0.000 NA
ATOM      6  C   UNL     1       1.645   2.252  18.505  0.00  0.00    +0.000 A 
ATOM      7  C   UNL     1       2.976   1.903  18.211  0.00  0.00    +0.000 A 
ATOM      8  C   UNL     1       3.976   2.876  18.347  0.00  0.00    +0.000 A 
ATOM      9  N   UNL     1       3.611   4.121  18.760  0.00  0.00    +0.000 N 
ENDROOT
BRANCH   1  10
ATOM     10  C   UNL     1       5.797   5.422  18.866  0.00  0.00    +0.000 C 
ATOM     11  O   UNL     1       6.519   5.215  19.828  0.00  0.00    +0.000 OA
BRANCH  10  12
ATOM     12  C   UNL     1       6.438   5.914  17.586  0.00  0.00    +0.000 C 
BRANCH  12  13
ATOM     13  C   UNL     1       7.142   4.803  16.798  0.00  0.00    +0.000 C 
BRANCH  13  14
ATOM     14  N   UNL     1       8.122   4.104  17.624  0.00  0.00    +0.000 NA
ATOM     15  H   UNL     1       8.110   3.093  17.358  0.00  0.00    +0.000 HD
ATOM     16  H   UNL     1       7.830   4.169  18.626  0.00  0.00    +0.000 HD
ENDBRANCH  13  14
ENDBRANCH  12  13
ENDBRANCH  10  12
ENDBRANCH   1  10
TORSDOF 4
ENDMDL
MODEL 4
REMARK VINA RESULT:      -5.6      2.576      4.609
REMARK  Name = 
REMARK  4 active torsions:
REMARK  status: ('A' for Active; 'I' for Inactive)
REMARK    1  A    between atoms: N_1  and  C_2
REMARK    2  A    between atoms: C_2  and  C_3
REMARK    3  A    between atoms: C_3  and  C_4
REMARK    4  A    between atoms: C_4  and  C_6
REMARK                            x       y       z     vdW  Elec       q    Type
REMARK                         _______ _______ _______ _____ _____    ______ ____
ROOT
ATOM      1  C   UNL     1       4.521   6.204  17.311  0.00  0.00    +0.000 A 
ATOM      2  C   UNL     1       3.657   7.226  17.702  0.00  0.00    +0.000 A 
ATOM      3  N   UNL     1       2.487   6.701  18.126  0.00  0.00    +0.000 NA
ATOM      4  C   UNL     1       2.656   5.376  17.987  0.00  0.00    +0.000 A 
ATOM      5  N   UNL     1       1.728   4.441  18.310  0.00  0.00    +0.000 NA
ATOM      6  C   UNL     1       2.026   3.124  18.134  0.00  0.00    +0.000 A 
ATOM      7  C   UNL     1       3.279   2.740  17.623  0.00  0.00    +0.000 A 
ATOM      8  C   UNL     1       4.213   3.736  17.302  0.00  0.00    +0.000 A 
ATOM      9  N   UNL     1       3.861   5.036  17.500  0.00  0.00    +0.000 N 
ENDROOT
BRANCH   1  10
ATOM     10  C   UNL     1       5.916   6.365  16.801  0.00  0.00    +0.000 C 
ATOM     11  O   UNL     1       6.131   6.318  15.601  0.00  0.00    +0.000 OA
BRANCH  10  12
ATOM     12  C   UNL     1       7.101   6.518  17.732  0.00  0.00    +0.000 C 
BRANCH  12  13
ATOM     13  C   UNL     1       7.648   5.178  18.239  0.00  0.00    +0.000 C 
BRANCH  13  14
ATOM     14  N   UNL     1       7.892   4.252  17.138  0.00  0.00    +0.000 NA
ATOM     15  H   UNL     1       7.734   3.280  17.489  0.00  0.00    +0.000 HD
ATOM     16  H   UNL     1       8.895   4.323  16.850  0.00  0.00    +0.000 HD
ENDBRANCH  13  14
ENDBRANCH  12  13
ENDBRANCH  10  12
ENDBRANCH   1  10
TORSDOF 4
ENDMDL
MODEL 5
REMARK VINA RESULT:      -5.6      2.789      4.477
REMARK  Name = 
REMARK  4 active torsions:
REMARK  status: ('A' for Active; 'I' for Inactive)
REMARK    1  A    between atoms: N_1  and  C_2
REMARK    2  A    between atoms: C_2  and  C_3
REMARK    3  A    between atoms: C_3  and  C_4
REMARK    4  A    between atoms: C_4  and  C_6
REMARK                            x       y       z     vdW  Elec       q    Type
REMARK                         _______ _______ _______ _____ _____    ______ ____
ROOT
ATOM      1  C   UNL     1       6.737   4.827  16.662  0.00  0.00    +0.000 A 
ATOM      2  C   UNL     1       7.735   4.544  17.594  0.00  0.00    +0.000 A 
ATOM      3  N   UNL     1       7.246   4.681  18.846  0.00  0.00    +0.000 NA
ATOM      4  C   UNL     1       5.968   5.042  18.658  0.00  0.00    +0.000 A 
ATOM      5  N   UNL     1       5.077   5.278  19.653  0.00  0.00    +0.000 NA
ATOM      6  C   UNL     1       3.801   5.629  19.332  0.00  0.00    +0.000 A 
ATOM      7  C   UNL     1       3.413   5.744  17.984  0.00  0.00    +0.000 A 
ATOM      8  C   UNL     1       4.361   5.491  16.984  0.00  0.00    +0.000 A 
ATOM      9  N   UNL     1       5.622   5.143  17.364  0.00  0.00    +0.000 N 
ENDROOT
BRANCH   1  10
ATOM     10  C   UNL     1       6.867   4.771  15.175  0.00  0.00    +0.000 C 
ATOM     11  O   UNL     1       7.658   5.508  14.609  0.00  0.00    +0.000 OA
BRANCH  10  12
ATOM     12  C   UNL     1       5.994   3.872  14.324  0.00  0.00    +0.000 C 
BRANCH  12  13
ATOM     13  C   UNL     1       6.476   3.762  12.872  0.00  0.00    +0.000 C 
BRANCH  13  14
ATOM     14  N   UNL     1       5.437   3.213  12.007  0.00  0.00    +0.000 NA
ATOM     15  H   UNL     1       5.892   2.861  11.134  0.00  0.00    +0.000 HD
ATOM     16  H   UNL     1       4.782   3.981  11.732  0.00  0.00    +0.000 HD
ENDBRANCH  13  14
ENDBRANCH  12  13
ENDBRANCH  10  12
ENDBRANCH   1  10
TORSDOF 4
ENDMDL
MODEL 6
REMARK VINA RESULT:      -5.6      1.169      1.221
REMARK  Name = 
REMARK  4 active torsions:
REMARK  status: ('A' for Active; 'I' for Inactive)
REMARK    1  A    between atoms: N_1  and  C_2
REMARK    2  A    between atoms: C_2  and  C_3
REMARK    3  A    between atoms: C_3  and  C_4
REMARK    4  A    between atoms: C_4  and  C_6
REMARK                            x       y       z     vdW  Elec       q    Type
REMARK                         _______ _______ _______ _____ _____    ______ ____
ROOT
ATOM      1  C   UNL     1       5.899   4.588  18.363  0.00  0.00    +0.000 A 
ATOM      2  C   UNL     1       6.844   5.496  18.840  0.00  0.00    +0.000 A 
ATOM      3  N   UNL     1       7.594   5.958  17.816  0.00  0.00    +0.000 NA
ATOM      4  C   UNL     1       7.098   5.327  16.740  0.00  0.00    +0.000 A 
ATOM      5  N   UNL     1       7.544   5.498  15.470  0.00  0.00    +0.000 NA
ATOM      6  C   UNL     1       6.948   4.807  14.459  0.00  0.00    +0.000 A 
ATOM      7  C   UNL     1       5.884   3.928  14.730  0.00  0.00    +0.000 A 
ATOM      8  C   UNL     1       5.450   3.779  16.054  0.00  0.00    +0.000 A 
ATOM      9  N   UNL     1       6.082   4.496  17.024  0.00  0.00    +0.000 N 
ENDROOT
BRANCH   1  10
ATOM     10  C   UNL     1       4.868   3.870  19.172  0.00  0.00    +0.000 C 
ATOM     11  O   UNL     1       5.152   2.814  19.713  0.00  0.00    +0.000 OA
BRANCH  10  12
ATOM     12  C   UNL     1       3.445   4.374  19.292  0.00  0.00    +0.000 C 
BRANCH  12  13
ATOM     13  C   UNL     1       2.545   3.925  18.135  0.00  0.00    +0.000 C 
BRANCH  13  14
ATOM     14  N   UNL     1       2.506   2.470  18.026  0.00  0.00    +0.000 NA
ATOM     15  H   UNL     1       2.967   2.198  17.128  0.00  0.00    +0.000 HD
ATOM     16  H   UNL     1       1.508   2.160  17.973  0.00  0.00    +0.000 HD
ENDBRANCH  13  14
ENDBRANCH  12  13
ENDBRANCH  10  12
ENDBRANCH   1  10
TORSDOF 4
ENDMDL
MODEL 7
REMARK VINA RESULT:      -5.5      1.091      1.091
REMARK  Name = 
REMARK  4 active torsions:
REMARK  status: ('A' for Active; 'I' for Inactive)
REMARK    1  A    between atoms: N_1  and  C_2
REMARK    2  A    between atoms: C_2  and  C_3
REMARK    3  A    between atoms: C_3  and  C_4
REMARK    4  A    between atoms: C_4  and  C_6
REMARK                            x       y       z     vdW  Elec       q    Type
REMARK                         _______ _______ _______ _____ _____    ______ ____
ROOT
ATOM      1  C   UNL     1       5.130   4.799  18.555  0.00  0.00    +0.000 A 
ATOM      2  C   UNL     1       6.274   5.016  19.323  0.00  0.00    +0.000 A 
ATOM      3  N   UNL     1       7.365   5.025  18.527  0.00  0.00    +0.000 NA
ATOM      4  C   UNL     1       6.873   4.815  17.296  0.00  0.00    +0.000 A 
ATOM      5  N   UNL     1       7.618   4.760  16.164  0.00  0.00    +0.000 NA
ATOM      6  C   UNL     1       6.997   4.553  14.971  0.00  0.00    +0.000 A 
ATOM      7  C   UNL     1       5.600   4.397  14.914  0.00  0.00    +0.000 A 
ATOM      8  C   UNL     1       4.863   4.462  16.105  0.00  0.00    +0.000 A 
ATOM      9  N   UNL     1       5.537   4.673  17.269  0.00  0.00    +0.000 N 
ENDROOT
BRANCH   1  10
ATOM     10  C   UNL     1       3.723   4.739  19.053  0.00  0.00    +0.000 C 
ATOM     11  O   UNL     1       3.131   5.773  19.317  0.00  0.00    +0.000 OA
BRANCH  10  12
ATOM     12  C   UNL     1       3.014   3.426  19.310  0.00  0.00    +0.000 C 
BRANCH  12  13
ATOM     13  C   UNL     1       2.202   2.932  18.107  0.00  0.00    +0.000 C 
BRANCH  13  14
ATOM     14  N   UNL     1       1.374   3.997  17.550  0.00  0.00    +0.000 NA
ATOM     15  H   UNL     1       0.992   4.560  18.344  0.00  0.00    +0.000 HD
ATOM     16  H   UNL     1       0.562   3.569  17.049  0.00  0.00    +0.000 HD
ENDBRANCH  13  14
ENDBRANCH  12  13
ENDBRANCH  10  12
ENDBRANCH   1  10
TORSDOF 4
ENDMDL
MODEL 8
REMARK VINA RESULT:      -5.5      1.588      1.867
REMARK  Name = 
REMARK  4 active torsions:
REMARK  status: ('A' for Active; 'I' for Inactive)
REMARK    1  A    between atoms: N_1  and  C_2
REMARK    2  A    between atoms: C_2  and  C_3
REMARK    3  A    between atoms: C_3  and  C_4
REMARK    4  A    between atoms: C_4  and  C_6
REMARK                            x       y       z     vdW  Elec       q    Type
REMARK                         _______ _______ _______ _____ _____    ______ ____
ROOT
ATOM      1  C   UNL     1       4.612   4.185  18.365  0.00  0.00    +0.000 A 
ATOM      2  C   UNL     1       5.532   4.540  19.351  0.00  0.00    +0.000 A 
ATOM      3  N   UNL     1       6.715   4.855  18.780  0.00  0.00    +0.000 NA
ATOM      4  C   UNL     1       6.498   4.688  17.467  0.00  0.00    +0.000 A 
ATOM      5  N   UNL     1       7.421   4.908  16.497  0.00  0.00    +0.000 NA
ATOM      6  C   UNL     1       7.073   4.713  15.195  0.00  0.00    +0.000 A 
ATOM      7  C   UNL     1       5.773   4.289  14.862  0.00  0.00    +0.000 A 
ATOM      8  C   UNL     1       4.847   4.074  15.891  0.00  0.00    +0.000 A 
ATOM      9  N   UNL     1       5.250   4.285  17.175  0.00  0.00    +0.000 N 
ENDROOT
BRANCH   1  10
ATOM     10  C   UNL     1       3.186   3.790  18.580  0.00  0.00    +0.000 C 
ATOM     11  O   UNL     1       2.852   2.626  18.431  0.00  0.00    +0.000 OA
BRANCH  10  12
ATOM     12  C   UNL     1       2.111   4.804  18.913  0.00  0.00    +0.000 C 
BRANCH  12  13
ATOM     13  C   UNL     1       1.469   4.574  20.286  0.00  0.00    +0.000 C 
BRANCH  13  14
ATOM     14  N   UNL     1       0.584   3.414  20.271  0.00  0.00    +0.000 NA
ATOM     15  H   UNL     1      -0.014   3.450  21.128  0.00  0.00    +0.000 HD
ATOM     16  H   UNL     1       1.163   2.544  20.328  0.00  0.00    +0.000 HD
ENDBRANCH  13  14
ENDBRANCH  12  13
ENDBRANCH  10  12
ENDBRANCH   1  10
TORSDOF 4
ENDMDL
MODEL 9
REMARK VINA RESULT:      -5.5      1.515      1.749
REMARK  Name = 
REMARK  4 active torsions:
REMARK  status: ('A' for Active; 'I' for Inactive)
REMARK    1  A    between atoms: N_1  and  C_2
REMARK    2  A    between atoms: C_2  and  C_3
REMARK    3  A    between atoms: C_3  and  C_4
REMARK    4  A    between atoms: C_4  and  C_6
REMARK                            x       y       z     vdW  Elec       q    Type
REMARK                         _______ _______ _______ _____ _____    ______ ____
ROOT
ATOM      1  C   UNL     1       5.367   4.538  18.470  0.00  0.00    +0.000 A 
ATOM      2  C   UNL     1       6.255   5.378  19.141  0.00  0.00    +0.000 A 
ATOM      3  N   UNL     1       7.174   5.857  18.275  0.00  0.00    +0.000 NA
ATOM      4  C   UNL     1       6.833   5.306  17.100  0.00  0.00    +0.000 A 
ATOM      5  N   UNL     1       7.481   5.522  15.928  0.00  0.00    +0.000 NA
ATOM      6  C   UNL     1       7.029   4.912  14.798  0.00  0.00    +0.000 A 
ATOM      7  C   UNL     1       5.904   4.068  14.847  0.00  0.00    +0.000 A 
ATOM      8  C   UNL     1       5.260   3.870  16.076  0.00  0.00    +0.000 A 
ATOM      9  N   UNL     1       5.756   4.507  17.173  0.00  0.00    +0.000 N 
ENDROOT
BRANCH   1  10
ATOM     10  C   UNL     1       4.195   3.826  19.065  0.00  0.00    +0.000 C 
ATOM     11  O   UNL     1       4.379   2.903  19.843  0.00  0.00    +0.000 OA
BRANCH  10  12
ATOM     12  C   UNL     1       2.769   4.163  18.683  0.00  0.00    +0.000 C 
BRANCH  12  13
ATOM     13  C   UNL     1       1.874   4.462  19.892  0.00  0.00    +0.000 C 
BRANCH  13  14
ATOM     14  N   UNL     1       2.593   5.222  20.910  0.00  0.00    +0.000 NA
ATOM     15  H   UNL     1       3.618   5.101  20.743  0.00  0.00    +0.000 HD
ATOM     16  H   UNL     1       2.378   4.817  21.850  0.00  0.00    +0.000 HD
ENDBRANCH  13  14
ENDBRANCH  12  13
ENDBRANCH  10  12
ENDBRANCH   1  10
TORSDOF 4
ENDMDL
