MODEL 1
REMARK VINA RESULT:      -7.8      0.000      0.000
REMARK  Name = 
REMARK  9 active torsions:
REMARK  status: ('A' for Active; 'I' for Inactive)
REMARK    1  A    between atoms: C_1  and  O_2
REMARK    2  A    between atoms: O_2  and  C_3
REMARK    3  A    between atoms: C_9  and  C_10
REMARK    4  A    between atoms: C_10  and  O_11
REMARK    5  A    between atoms: O_11  and  C_12
REMARK    6  A    between atoms: C_16  and  N_17
REMARK    7  A    between atoms: C_18  and  C_19
REMARK    8  A    between atoms: C_22  and  C_23
REMARK    9  A    between atoms: N_24  and  C_25
REMARK                            x       y       z     vdW  Elec       q    Type
REMARK                         _______ _______ _______ _____ _____    ______ ____
ROOT
ATOM      1  C   UNL     1      -3.379  10.346  16.798  0.00  0.00    +0.000 C 
ATOM      2  C   UNL     1      -4.444  11.026  17.268  0.00  0.00    +0.000 C 
ATOM      3  C   UNL     1      -4.401  11.834  18.509  0.00  0.00    +0.000 C 
ATOM      4  O   UNL     1      -5.416  12.407  18.891  0.00  0.00    +0.000 OA
ATOM      5  C   UNL     1      -3.128  11.873  19.175  0.00  0.00    +0.000 A 
ATOM      6  C   UNL     1      -2.005  11.207  18.721  0.00  0.00    +0.000 A 
ATOM      7  C   UNL     1      -0.936  11.504  19.631  0.00  0.00    +0.000 A 
ATOM      8  C   UNL     1      -1.480  12.303  20.637  0.00  0.00    +0.000 A 
ATOM      9  C   UNL     1      -0.828  12.854  21.861  0.00  0.00    +0.000 C 
ATOM     10  N   UNL     1      -2.807  12.525  20.339  0.00  0.00    +0.000 N 
ATOM     11  C   UNL     1      -3.755  13.294  21.124  0.00  0.00    +0.000 C 
ATOM     12  C   UNL     1      -2.042  10.366  17.530  0.00  0.00    +0.000 C 
ATOM     13  O   UNL     1      -1.089   9.694  17.150  0.00  0.00    +0.000 OA
ENDROOT
BRANCH   1  15
ATOM     14  C   UNL     1      -3.058  10.198  14.409  0.00  0.00    +0.000 C 
ATOM     15  O   UNL     1      -3.393   9.574  15.644  0.00  0.00    +0.000 OA
ENDBRANCH   1  15
BRANCH   7  16
ATOM     16  C   UNL     1       0.485  11.005  19.552  0.00  0.00    +0.000 C 
BRANCH  16  17
ATOM     17  O   UNL     1       0.712   9.907  20.446  0.00  0.00    +0.000 OA
BRANCH  17  18
ATOM     18  C   UNL     1       1.365   8.813  19.935  0.00  0.00    +0.000 A 
ATOM     19  C   UNL     1       1.746   8.936  18.598  0.00  0.00    +0.000 A 
ATOM     20  C   UNL     1       2.418   7.896  17.956  0.00  0.00    +0.000 A 
ATOM     21  C   UNL     1       2.708   6.718  18.644  0.00  0.00    +0.000 A 
ATOM     22  C   UNL     1       2.327   6.568  19.979  0.00  0.00    +0.000 A 
ATOM     23  C   UNL     1       1.658   7.627  20.621  0.00  0.00    +0.000 A 
BRANCH  22  24
ATOM     24  N   UNL     1       2.540   5.379  20.717  0.00  0.00    +0.000 N 
ATOM     25  C   UNL     1       1.714   4.269  20.759  0.00  0.00    +0.000 C 
ATOM     26  C   UNL     1       2.165   3.229  21.752  0.00  0.00    +0.000 C 
ATOM     27  O   UNL     1       0.725   4.067  20.062  0.00  0.00    +0.000 OA
ATOM     28  H   UNL     1       3.399   5.334  21.251  0.00  0.00    +0.000 HD
ENDBRANCH  22  24
ENDBRANCH  17  18
ENDBRANCH  16  17
ENDBRANCH   7  16
TORSDOF 5
ENDMDL
MODEL 2
REMARK VINA RESULT:      -7.7      2.743      8.347
REMARK  Name = 
REMARK  9 active torsions:
REMARK  status: ('A' for Active; 'I' for Inactive)
REMARK    1  A    between atoms: C_1  and  O_2
REMARK    2  A    between atoms: O_2  and  C_3
REMARK    3  A    between atoms: C_9  and  C_10
REMARK    4  A    between atoms: C_10  and  O_11
REMARK    5  A    between atoms: O_11  and  C_12
REMARK    6  A    between atoms: C_16  and  N_17
REMARK    7  A    between atoms: C_18  and  C_19
REMARK    8  A    between atoms: C_22  and  C_23
REMARK    9  A    between atoms: N_24  and  C_25
REMARK                            x       y       z     vdW  Elec       q    Type
REMARK                         _______ _______ _______ _____ _____    ______ ____
ROOT
ATOM      1  C   UNL     1       4.887   4.562  16.621  0.00  0.00    +0.000 C 
ATOM      2  C   UNL     1       4.673   3.534  17.466  0.00  0.00    +0.000 C 
ATOM      3  C   UNL     1       3.873   3.663  18.708  0.00  0.00    +0.000 C 
ATOM      4  O   UNL     1       3.741   2.691  19.443  0.00  0.00    +0.000 OA
ATOM      5  C   UNL     1       3.307   4.963  18.944  0.00  0.00    +0.000 A 
ATOM      6  C   UNL     1       3.484   6.040  18.097  0.00  0.00    +0.000 A 
ATOM      7  C   UNL     1       2.755   7.144  18.653  0.00  0.00    +0.000 A 
ATOM      8  C   UNL     1       2.206   6.694  19.854  0.00  0.00    +0.000 A 
ATOM      9  C   UNL     1       1.400   7.442  20.863  0.00  0.00    +0.000 C 
ATOM     10  N   UNL     1       2.543   5.366  20.009  0.00  0.00    +0.000 N 
ATOM     11  C   UNL     1       2.191   4.508  21.124  0.00  0.00    +0.000 C 
ATOM     12  C   UNL     1       4.309   5.946  16.897  0.00  0.00    +0.000 C 
ATOM     13  O   UNL     1       4.557   6.904  16.173  0.00  0.00    +0.000 OA
ENDROOT
BRANCH   1  15
ATOM     14  C   UNL     1       7.054   4.564  15.558  0.00  0.00    +0.000 C 
ATOM     15  O   UNL     1       5.637   4.472  15.458  0.00  0.00    +0.000 OA
ENDBRANCH   1  15
BRANCH   7  16
ATOM     16  C   UNL     1       2.647   8.537  18.083  0.00  0.00    +0.000 C 
BRANCH  16  17
ATOM     17  O   UNL     1       1.365   8.767  17.484  0.00  0.00    +0.000 OA
BRANCH  17  18
ATOM     18  C   UNL     1       0.592   9.759  18.031  0.00  0.00    +0.000 A 
ATOM     19  C   UNL     1       1.272  10.614  18.900  0.00  0.00    +0.000 A 
ATOM     20  C   UNL     1       0.603  11.666  19.524  0.00  0.00    +0.000 A 
ATOM     21  C   UNL     1      -0.758  11.869  19.291  0.00  0.00    +0.000 A 
ATOM     22  C   UNL     1      -1.462  11.020  18.435  0.00  0.00    +0.000 A 
ATOM     23  C   UNL     1      -0.775   9.968  17.802  0.00  0.00    +0.000 A 
BRANCH  22  24
ATOM     24  N   UNL     1      -2.853  11.137  18.200  0.00  0.00    +0.000 N 
ATOM     25  C   UNL     1      -3.477  11.282  16.972  0.00  0.00    +0.000 C 
ATOM     26  C   UNL     1      -4.961  11.519  17.085  0.00  0.00    +0.000 C 
ATOM     27  O   UNL     1      -2.948  11.198  15.869  0.00  0.00    +0.000 OA
ATOM     28  H   UNL     1      -3.449  11.088  19.016  0.00  0.00    +0.000 HD
ENDBRANCH  22  24
ENDBRANCH  17  18
ENDBRANCH  16  17
ENDBRANCH   7  16
TORSDOF 5
ENDMDL
MODEL 3
REMARK VINA RESULT:      -7.5      3.173      8.048
REMARK  Name = 
REMARK  9 active torsions:
REMARK  status: ('A' for Active; 'I' for Inactive)
REMARK    1  A    between atoms: C_1  and  O_2
REMARK    2  A    between atoms: O_2  and  C_3
REMARK    3  A    between atoms: C_9  and  C_10
REMARK    4  A    between atoms: C_10  and  O_11
REMARK    5  A    between atoms: O_11  and  C_12
REMARK    6  A    between atoms: C_16  and  N_17
REMARK    7  A    between atoms: C_18  and  C_19
REMARK    8  A    between atoms: C_22  and  C_23
REMARK    9  A    between atoms: N_24  and  C_25
REMARK                            x       y       z     vdW  Elec       q    Type
REMARK                         _______ _______ _______ _____ _____    ______ ____
ROOT
ATOM      1  C   UNL     1       4.747   4.329  16.493  0.00  0.00    +0.000 C 
ATOM      2  C   UNL     1       4.434   3.306  17.312  0.00  0.00    +0.000 C 
ATOM      3  C   UNL     1       3.644   3.480  18.555  0.00  0.00    +0.000 C 
ATOM      4  O   UNL     1       3.417   2.508  19.266  0.00  0.00    +0.000 OA
ATOM      5  C   UNL     1       3.202   4.822  18.820  0.00  0.00    +0.000 A 
ATOM      6  C   UNL     1       3.484   5.898  17.999  0.00  0.00    +0.000 A 
ATOM      7  C   UNL     1       2.860   7.052  18.580  0.00  0.00    +0.000 A 
ATOM      8  C   UNL     1       2.266   6.628  19.769  0.00  0.00    +0.000 A 
ATOM      9  C   UNL     1       1.529   7.425  20.793  0.00  0.00    +0.000 C 
ATOM     10  N   UNL     1       2.474   5.271  19.893  0.00  0.00    +0.000 N 
ATOM     11  C   UNL     1       2.037   4.424  20.987  0.00  0.00    +0.000 C 
ATOM     12  C   UNL     1       4.302   5.754  16.800  0.00  0.00    +0.000 C 
ATOM     13  O   UNL     1       4.643   6.701  16.099  0.00  0.00    +0.000 OA
ENDROOT
BRANCH   1  15
ATOM     14  C   UNL     1       6.895   4.429  15.393  0.00  0.00    +0.000 C 
ATOM     15  O   UNL     1       5.492   4.196  15.329  0.00  0.00    +0.000 OA
ENDBRANCH   1  15
BRANCH   7  16
ATOM     16  C   UNL     1       2.887   8.462  18.044  0.00  0.00    +0.000 C 
BRANCH  16  17
ATOM     17  O   UNL     1       1.566   8.999  17.898  0.00  0.00    +0.000 OA
BRANCH  17  18
ATOM     18  C   UNL     1       1.315  10.206  18.500  0.00  0.00    +0.000 A 
ATOM     19  C   UNL     1       2.134  11.252  18.071  0.00  0.00    +0.000 A 
ATOM     20  C   UNL     1       1.984  12.532  18.603  0.00  0.00    +0.000 A 
ATOM     21  C   UNL     1       1.017  12.778  19.578  0.00  0.00    +0.000 A 
ATOM     22  C   UNL     1       0.193  11.745  20.031  0.00  0.00    +0.000 A 
ATOM     23  C   UNL     1       0.346  10.460  19.481  0.00  0.00    +0.000 A 
BRANCH  22  24
ATOM     24  N   UNL     1      -0.768  11.915  21.056  0.00  0.00    +0.000 N 
ATOM     25  C   UNL     1      -0.746  11.343  22.317  0.00  0.00    +0.000 C 
ATOM     26  C   UNL     1      -1.994  11.617  23.116  0.00  0.00    +0.000 C 
ATOM     27  O   UNL     1       0.175  10.702  22.812  0.00  0.00    +0.000 OA
ATOM     28  H   UNL     1      -1.539  12.536  20.846  0.00  0.00    +0.000 HD
ENDBRANCH  22  24
ENDBRANCH  17  18
ENDBRANCH  16  17
ENDBRANCH   7  16
TORSDOF 5
ENDMDL
MODEL 4
REMARK VINA RESULT:      -7.4      2.913      8.293
REMARK  Name = 
REMARK  9 active torsions:
REMARK  status: ('A' for Active; 'I' for Inactive)
REMARK    1  A    between atoms: C_1  and  O_2
REMARK    2  A    between atoms: O_2  and  C_3
REMARK    3  A    between atoms: C_9  and  C_10
REMARK    4  A    between atoms: C_10  and  O_11
REMARK    5  A    between atoms: O_11  and  C_12
REMARK    6  A    between atoms: C_16  and  N_17
REMARK    7  A    between atoms: C_18  and  C_19
REMARK    8  A    between atoms: C_22  and  C_23
REMARK    9  A    between atoms: N_24  and  C_25
REMARK                            x       y       z     vdW  Elec       q    Type
REMARK                         _______ _______ _______ _____ _____    ______ ____
ROOT
ATOM      1  C   UNL     1       4.872   4.540  16.652  0.00  0.00    +0.000 C 
ATOM      2  C   UNL     1       4.657   3.517  17.504  0.00  0.00    +0.000 C 
ATOM      3  C   UNL     1       3.862   3.657  18.748  0.00  0.00    +0.000 C 
ATOM      4  O   UNL     1       3.728   2.690  19.489  0.00  0.00    +0.000 OA
ATOM      5  C   UNL     1       3.303   4.961  18.977  0.00  0.00    +0.000 A 
ATOM      6  C   UNL     1       3.482   6.033  18.123  0.00  0.00    +0.000 A 
ATOM      7  C   UNL     1       2.759   7.143  18.676  0.00  0.00    +0.000 A 
ATOM      8  C   UNL     1       2.213   6.702  19.881  0.00  0.00    +0.000 A 
ATOM      9  C   UNL     1       1.413   7.460  20.888  0.00  0.00    +0.000 C 
ATOM     10  N   UNL     1       2.544   5.374  20.043  0.00  0.00    +0.000 N 
ATOM     11  C   UNL     1       2.192   4.524  21.164  0.00  0.00    +0.000 C 
ATOM     12  C   UNL     1       4.302   5.928  16.921  0.00  0.00    +0.000 C 
ATOM     13  O   UNL     1       4.552   6.880  16.191  0.00  0.00    +0.000 OA
ENDROOT
BRANCH   1  15
ATOM     14  C   UNL     1       7.033   4.580  15.574  0.00  0.00    +0.000 C 
ATOM     15  O   UNL     1       5.619   4.440  15.486  0.00  0.00    +0.000 OA
ENDBRANCH   1  15
BRANCH   7  16
ATOM     16  C   UNL     1       2.655   8.533  18.098  0.00  0.00    +0.000 C 
BRANCH  16  17
ATOM     17  O   UNL     1       1.351   8.788  17.561  0.00  0.00    +0.000 OA
BRANCH  17  18
ATOM     18  C   UNL     1       0.645   9.830  18.109  0.00  0.00    +0.000 A 
ATOM     19  C   UNL     1      -0.732   9.780  17.886  0.00  0.00    +0.000 A 
ATOM     20  C   UNL     1      -1.566  10.778  18.389  0.00  0.00    +0.000 A 
ATOM     21  C   UNL     1      -1.029  11.842  19.113  0.00  0.00    +0.000 A 
ATOM     22  C   UNL     1       0.347  11.919  19.340  0.00  0.00    +0.000 A 
ATOM     23  C   UNL     1       1.178  10.902  18.837  0.00  0.00    +0.000 A 
BRANCH  22  24
ATOM     24  N   UNL     1       0.960  12.999  20.018  0.00  0.00    +0.000 N 
ATOM     25  C   UNL     1       0.716  13.409  21.318  0.00  0.00    +0.000 C 
ATOM     26  C   UNL     1       1.437  14.680  21.686  0.00  0.00    +0.000 C 
ATOM     27  O   UNL     1       0.029  12.827  22.150  0.00  0.00    +0.000 OA
ATOM     28  H   UNL     1       1.665  13.509  19.499  0.00  0.00    +0.000 HD
ENDBRANCH  22  24
ENDBRANCH  17  18
ENDBRANCH  16  17
ENDBRANCH   7  16
TORSDOF 5
ENDMDL
MODEL 5
REMARK VINA RESULT:      -7.4      3.255      8.439
REMARK  Name = 
REMARK  9 active torsions:
REMARK  status: ('A' for Active; 'I' for Inactive)
REMARK    1  A    between atoms: C_1  and  O_2
REMARK    2  A    between atoms: O_2  and  C_3
REMARK    3  A    between atoms: C_9  and  C_10
REMARK    4  A    between atoms: C_10  and  O_11
REMARK    5  A    between atoms: O_11  and  C_12
REMARK    6  A    between atoms: C_16  and  N_17
REMARK    7  A    between atoms: C_18  and  C_19
REMARK    8  A    between atoms: C_22  and  C_23
REMARK    9  A    between atoms: N_24  and  C_25
REMARK                            x       y       z     vdW  Elec       q    Type
REMARK                         _______ _______ _______ _____ _____    ______ ____
ROOT
ATOM      1  C   UNL     1       4.872   4.387  16.599  0.00  0.00    +0.000 C 
ATOM      2  C   UNL     1       4.615   3.381  17.458  0.00  0.00    +0.000 C 
ATOM      3  C   UNL     1       3.813   3.559  18.692  0.00  0.00    +0.000 C 
ATOM      4  O   UNL     1       3.640   2.604  19.441  0.00  0.00    +0.000 OA
ATOM      5  C   UNL     1       3.295   4.882  18.904  0.00  0.00    +0.000 A 
ATOM      6  C   UNL     1       3.518   5.939  18.042  0.00  0.00    +0.000 A 
ATOM      7  C   UNL     1       2.827   7.078  18.576  0.00  0.00    +0.000 A 
ATOM      8  C   UNL     1       2.255   6.668  19.781  0.00  0.00    +0.000 A 
ATOM      9  C   UNL     1       1.470   7.461  20.773  0.00  0.00    +0.000 C 
ATOM     10  N   UNL     1       2.540   5.330  19.958  0.00  0.00    +0.000 N 
ATOM     11  C   UNL     1       2.149   4.504  21.084  0.00  0.00    +0.000 C 
ATOM     12  C   UNL     1       4.345   5.796  16.849  0.00  0.00    +0.000 C 
ATOM     13  O   UNL     1       4.633   6.732  16.112  0.00  0.00    +0.000 OA
ENDROOT
BRANCH   1  15
ATOM     14  C   UNL     1       7.037   4.421  15.529  0.00  0.00    +0.000 C 
ATOM     15  O   UNL     1       5.626   4.251  15.441  0.00  0.00    +0.000 OA
ENDBRANCH   1  15
BRANCH   7  16
ATOM     16  C   UNL     1       2.775   8.465  17.985  0.00  0.00    +0.000 C 
BRANCH  16  17
ATOM     17  O   UNL     1       1.430   8.867  17.693  0.00  0.00    +0.000 OA
BRANCH  17  18
ATOM     18  C   UNL     1       1.016  10.072  18.200  0.00  0.00    +0.000 A 
ATOM     19  C   UNL     1      -0.350  10.148  18.478  0.00  0.00    +0.000 A 
ATOM     20  C   UNL     1      -0.901  11.318  18.999  0.00  0.00    +0.000 A 
ATOM     21  C   UNL     1      -0.092  12.429  19.239  0.00  0.00    +0.000 A 
ATOM     22  C   UNL     1       1.275  12.381  18.959  0.00  0.00    +0.000 A 
ATOM     23  C   UNL     1       1.824  11.192  18.444  0.00  0.00    +0.000 A 
BRANCH  22  24
ATOM     24  N   UNL     1       2.140  13.488  19.127  0.00  0.00    +0.000 N 
ATOM     25  C   UNL     1       2.701  13.929  20.313  0.00  0.00    +0.000 C 
ATOM     26  C   UNL     1       3.463  15.221  20.166  0.00  0.00    +0.000 C 
ATOM     27  O   UNL     1       2.658  13.360  21.398  0.00  0.00    +0.000 OA
ATOM     28  H   UNL     1       2.385  13.995  18.286  0.00  0.00    +0.000 HD
ENDBRANCH  22  24
ENDBRANCH  17  18
ENDBRANCH  16  17
ENDBRANCH   7  16
TORSDOF 5
ENDMDL
MODEL 6
REMARK VINA RESULT:      -7.3      3.072      8.476
REMARK  Name = 
REMARK  9 active torsions:
REMARK  status: ('A' for Active; 'I' for Inactive)
REMARK    1  A    between atoms: C_1  and  O_2
REMARK    2  A    between atoms: O_2  and  C_3
REMARK    3  A    between atoms: C_9  and  C_10
REMARK    4  A    between atoms: C_10  and  O_11
REMARK    5  A    between atoms: O_11  and  C_12
REMARK    6  A    between atoms: C_16  and  N_17
REMARK    7  A    between atoms: C_18  and  C_19
REMARK    8  A    between atoms: C_22  and  C_23
REMARK    9  A    between atoms: N_24  and  C_25
REMARK                            x       y       z     vdW  Elec       q    Type
REMARK                         _______ _______ _______ _____ _____    ______ ____
ROOT
ATOM      1  C   UNL     1       5.888   5.351  16.673  0.00  0.00    +0.000 C 
ATOM      2  C   UNL     1       6.010   4.299  17.506  0.00  0.00    +0.000 C 
ATOM      3  C   UNL     1       5.126   4.091  18.678  0.00  0.00    +0.000 C 
ATOM      4  O   UNL     1       5.311   3.123  19.408  0.00  0.00    +0.000 OA
ATOM      5  C   UNL     1       4.097   5.078  18.857  0.00  0.00    +0.000 A 
ATOM      6  C   UNL     1       3.923   6.163  18.018  0.00  0.00    +0.000 A 
ATOM      7  C   UNL     1       2.791   6.900  18.504  0.00  0.00    +0.000 A 
ATOM      8  C   UNL     1       2.360   6.250  19.660  0.00  0.00    +0.000 A 
ATOM      9  C   UNL     1       1.255   6.618  20.594  0.00  0.00    +0.000 C 
ATOM     10  N   UNL     1       3.157   5.141  19.853  0.00  0.00    +0.000 N 
ATOM     11  C   UNL     1       3.066   4.189  20.943  0.00  0.00    +0.000 C 
ATOM     12  C   UNL     1       4.814   6.412  16.890  0.00  0.00    +0.000 C 
ATOM     13  O   UNL     1       4.740   7.409  16.180  0.00  0.00    +0.000 OA
ENDROOT
BRANCH   1  15
ATOM     14  C   UNL     1       6.660   4.648  14.496  0.00  0.00    +0.000 C 
ATOM     15  O   UNL     1       6.706   5.576  15.575  0.00  0.00    +0.000 OA
ENDBRANCH   1  15
BRANCH   7  16
ATOM     16  C   UNL     1       2.214   8.164  17.916  0.00  0.00    +0.000 C 
BRANCH  16  17
ATOM     17  O   UNL     1       2.213   9.238  18.866  0.00  0.00    +0.000 OA
BRANCH  17  18
ATOM     18  C   UNL     1       1.035   9.920  19.032  0.00  0.00    +0.000 A 
ATOM     19  C   UNL     1       0.773  10.318  20.345  0.00  0.00    +0.000 A 
ATOM     20  C   UNL     1      -0.392  11.020  20.652  0.00  0.00    +0.000 A 
ATOM     21  C   UNL     1      -1.312  11.325  19.649  0.00  0.00    +0.000 A 
ATOM     22  C   UNL     1      -1.078  10.929  18.331  0.00  0.00    +0.000 A 
ATOM     23  C   UNL     1       0.106  10.229  18.029  0.00  0.00    +0.000 A 
BRANCH  22  24
ATOM     24  N   UNL     1      -1.996  11.157  17.278  0.00  0.00    +0.000 N 
ATOM     25  C   UNL     1      -3.081  10.367  16.938  0.00  0.00    +0.000 C 
ATOM     26  C   UNL     1      -3.773  10.819  15.677  0.00  0.00    +0.000 C 
ATOM     27  O   UNL     1      -3.515   9.410  17.570  0.00  0.00    +0.000 OA
ATOM     28  H   UNL     1      -1.850  11.998  16.734  0.00  0.00    +0.000 HD
ENDBRANCH  22  24
ENDBRANCH  17  18
ENDBRANCH  16  17
ENDBRANCH   7  16
TORSDOF 5
ENDMDL
MODEL 7
REMARK VINA RESULT:      -7.2      2.495      8.759
REMARK  Name = 
REMARK  9 active torsions:
REMARK  status: ('A' for Active; 'I' for Inactive)
REMARK    1  A    between atoms: C_1  and  O_2
REMARK    2  A    between atoms: O_2  and  C_3
REMARK    3  A    between atoms: C_9  and  C_10
REMARK    4  A    between atoms: C_10  and  O_11
REMARK    5  A    between atoms: O_11  and  C_12
REMARK    6  A    between atoms: C_16  and  N_17
REMARK    7  A    between atoms: C_18  and  C_19
REMARK    8  A    between atoms: C_22  and  C_23
REMARK    9  A    between atoms: N_24  and  C_25
REMARK                            x       y       z     vdW  Elec       q    Type
REMARK                         _______ _______ _______ _____ _____    ______ ____
ROOT
ATOM      1  C   UNL     1       1.906   3.318  19.983  0.00  0.00    +0.000 C 
ATOM      2  C   UNL     1       2.521   2.329  19.304  0.00  0.00    +0.000 C 
ATOM      3  C   UNL     1       3.463   2.582  18.187  0.00  0.00    +0.000 C 
ATOM      4  O   UNL     1       3.967   1.632  17.598  0.00  0.00    +0.000 OA
ATOM      5  C   UNL     1       3.705   3.966  17.887  0.00  0.00    +0.000 A 
ATOM      6  C   UNL     1       3.111   5.013  18.568  0.00  0.00    +0.000 A 
ATOM      7  C   UNL     1       3.616   6.230  18.000  0.00  0.00    +0.000 A 
ATOM      8  C   UNL     1       4.461   5.862  16.954  0.00  0.00    +0.000 A 
ATOM      9  C   UNL     1       5.209   6.727  15.994  0.00  0.00    +0.000 C 
ATOM     10  N   UNL     1       4.512   4.485  16.907  0.00  0.00    +0.000 N 
ATOM     11  C   UNL     1       5.261   3.678  15.963  0.00  0.00    +0.000 C 
ATOM     12  C   UNL     1       2.144   4.783  19.636  0.00  0.00    +0.000 C 
ATOM     13  O   UNL     1       1.536   5.687  20.199  0.00  0.00    +0.000 OA
ENDROOT
BRANCH   1  15
ATOM     14  C   UNL     1       1.458   2.372  22.159  0.00  0.00    +0.000 C 
ATOM     15  O   UNL     1       1.014   3.111  21.026  0.00  0.00    +0.000 OA
ENDBRANCH   1  15
BRANCH   7  16
ATOM     16  C   UNL     1       3.259   7.637  18.413  0.00  0.00    +0.000 C 
BRANCH  16  17
ATOM     17  O   UNL     1       2.231   8.189  17.580  0.00  0.00    +0.000 OA
BRANCH  17  18
ATOM     18  C   UNL     1       1.285   8.971  18.195  0.00  0.00    +0.000 A 
ATOM     19  C   UNL     1       1.431   9.079  19.579  0.00  0.00    +0.000 A 
ATOM     20  C   UNL     1       0.536   9.844  20.326  0.00  0.00    +0.000 A 
ATOM     21  C   UNL     1      -0.520  10.503  19.696  0.00  0.00    +0.000 A 
ATOM     22  C   UNL     1      -0.693  10.401  18.315  0.00  0.00    +0.000 A 
ATOM     23  C   UNL     1       0.221   9.634  17.568  0.00  0.00    +0.000 A 
BRANCH  22  24
ATOM     24  N   UNL     1      -1.774  10.997  17.623  0.00  0.00    +0.000 N 
ATOM     25  C   UNL     1      -2.998  10.416  17.338  0.00  0.00    +0.000 C 
ATOM     26  C   UNL     1      -3.874  11.276  16.464  0.00  0.00    +0.000 C 
ATOM     27  O   UNL     1      -3.409   9.337  17.752  0.00  0.00    +0.000 OA
ATOM     28  H   UNL     1      -1.639  11.955  17.325  0.00  0.00    +0.000 HD
ENDBRANCH  22  24
ENDBRANCH  17  18
ENDBRANCH  16  17
ENDBRANCH   7  16
TORSDOF 5
ENDMDL
MODEL 8
REMARK VINA RESULT:      -7.2      4.583      8.637
REMARK  Name = 
REMARK  9 active torsions:
REMARK  status: ('A' for Active; 'I' for Inactive)
REMARK    1  A    between atoms: C_1  and  O_2
REMARK    2  A    between atoms: O_2  and  C_3
REMARK    3  A    between atoms: C_9  and  C_10
REMARK    4  A    between atoms: C_10  and  O_11
REMARK    5  A    between atoms: O_11  and  C_12
REMARK    6  A    between atoms: C_16  and  N_17
REMARK    7  A    between atoms: C_18  and  C_19
REMARK    8  A    between atoms: C_22  and  C_23
REMARK    9  A    between atoms: N_24  and  C_25
REMARK                            x       y       z     vdW  Elec       q    Type
REMARK                         _______ _______ _______ _____ _____    ______ ____
ROOT
ATOM      1  C   UNL     1       2.373   7.438  19.157  0.00  0.00    +0.000 C 
ATOM      2  C   UNL     1       1.830   6.739  20.174  0.00  0.00    +0.000 C 
ATOM      3  C   UNL     1       1.939   5.265  20.288  0.00  0.00    +0.000 C 
ATOM      4  O   UNL     1       1.399   4.692  21.228  0.00  0.00    +0.000 OA
ATOM      5  C   UNL     1       2.694   4.620  19.249  0.00  0.00    +0.000 A 
ATOM      6  C   UNL     1       3.282   5.297  18.198  0.00  0.00    +0.000 A 
ATOM      7  C   UNL     1       3.959   4.324  17.390  0.00  0.00    +0.000 A 
ATOM      8  C   UNL     1       3.702   3.079  17.965  0.00  0.00    +0.000 A 
ATOM      9  C   UNL     1       4.117   1.722  17.506  0.00  0.00    +0.000 C 
ATOM     10  N   UNL     1       2.942   3.280  19.098  0.00  0.00    +0.000 N 
ATOM     11  C   UNL     1       2.437   2.257  19.995  0.00  0.00    +0.000 C 
ATOM     12  C   UNL     1       3.144   6.741  18.041  0.00  0.00    +0.000 C 
ATOM     13  O   UNL     1       3.579   7.359  17.075  0.00  0.00    +0.000 OA
ENDROOT
BRANCH   1  15
ATOM     14  C   UNL     1       1.119   9.469  19.522  0.00  0.00    +0.000 C 
ATOM     15  O   UNL     1       2.279   8.816  19.019  0.00  0.00    +0.000 OA
ENDBRANCH   1  15
BRANCH   7  16
ATOM     16  C   UNL     1       4.747   4.583  16.129  0.00  0.00    +0.000 C 
BRANCH  16  17
ATOM     17  O   UNL     1       6.149   4.351  16.324  0.00  0.00    +0.000 OA
BRANCH  17  18
ATOM     18  C   UNL     1       6.821   5.239  17.125  0.00  0.00    +0.000 A 
ATOM     19  C   UNL     1       7.323   4.691  18.307  0.00  0.00    +0.000 A 
ATOM     20  C   UNL     1       8.027   5.486  19.211  0.00  0.00    +0.000 A 
ATOM     21  C   UNL     1       8.229   6.841  18.945  0.00  0.00    +0.000 A 
ATOM     22  C   UNL     1       7.727   7.413  17.775  0.00  0.00    +0.000 A 
ATOM     23  C   UNL     1       7.027   6.601  16.864  0.00  0.00    +0.000 A 
BRANCH  22  24
ATOM     24  N   UNL     1       7.849   8.790  17.473  0.00  0.00    +0.000 N 
ATOM     25  C   UNL     1       8.499   9.751  18.229  0.00  0.00    +0.000 C 
ATOM     26  C   UNL     1       8.322  11.149  17.694  0.00  0.00    +0.000 C 
ATOM     27  O   UNL     1       9.196   9.554  19.219  0.00  0.00    +0.000 OA
ATOM     28  H   UNL     1       7.433   9.095  16.602  0.00  0.00    +0.000 HD
ENDBRANCH  22  24
ENDBRANCH  17  18
ENDBRANCH  16  17
ENDBRANCH   7  16
TORSDOF 5
ENDMDL
MODEL 9
REMARK VINA RESULT:      -7.1      1.639      3.811
REMARK  Name = 
REMARK  9 active torsions:
REMARK  status: ('A' for Active; 'I' for Inactive)
REMARK    1  A    between atoms: C_1  and  O_2
REMARK    2  A    between atoms: O_2  and  C_3
REMARK    3  A    between atoms: C_9  and  C_10
REMARK    4  A    between atoms: C_10  and  O_11
REMARK    5  A    between atoms: O_11  and  C_12
REMARK    6  A    between atoms: C_16  and  N_17
REMARK    7  A    between atoms: C_18  and  C_19
REMARK    8  A    between atoms: C_22  and  C_23
REMARK    9  A    between atoms: N_24  and  C_25
REMARK                            x       y       z     vdW  Elec       q    Type
REMARK                         _______ _______ _______ _____ _____    ______ ____
ROOT
ATOM      1  C   UNL     1      -2.965  13.986  21.997  0.00  0.00    +0.000 C 
ATOM      2  C   UNL     1      -4.181  13.919  21.419  0.00  0.00    +0.000 C 
ATOM      3  C   UNL     1      -4.456  13.106  20.210  0.00  0.00    +0.000 C 
ATOM      4  O   UNL     1      -5.581  13.112  19.723  0.00  0.00    +0.000 OA
ATOM      5  C   UNL     1      -3.337  12.361  19.701  0.00  0.00    +0.000 A 
ATOM      6  C   UNL     1      -2.078  12.385  20.271  0.00  0.00    +0.000 A 
ATOM      7  C   UNL     1      -1.246  11.506  19.501  0.00  0.00    +0.000 A 
ATOM      8  C   UNL     1      -2.034  11.024  18.456  0.00  0.00    +0.000 A 
ATOM      9  C   UNL     1      -1.659  10.118  17.331  0.00  0.00    +0.000 C 
ATOM     10  N   UNL     1      -3.302  11.545  18.599  0.00  0.00    +0.000 N 
ATOM     11  C   UNL     1      -4.436  11.316  17.724  0.00  0.00    +0.000 C 
ATOM     12  C   UNL     1      -1.776  13.217  21.430  0.00  0.00    +0.000 C 
ATOM     13  O   UNL     1      -0.651  13.328  21.905  0.00  0.00    +0.000 OA
ENDROOT
BRANCH   1  15
ATOM     14  C   UNL     1      -3.222  14.333  24.373  0.00  0.00    +0.000 C 
ATOM     15  O   UNL     1      -2.677  14.744  23.123  0.00  0.00    +0.000 OA
ENDBRANCH   1  15
BRANCH   7  16
ATOM     16  C   UNL     1       0.214  11.203  19.738  0.00  0.00    +0.000 C 
BRANCH  16  17
ATOM     17  O   UNL     1       0.387  10.050  20.573  0.00  0.00    +0.000 OA
BRANCH  17  18
ATOM     18  C   UNL     1       1.104   9.004  20.048  0.00  0.00    +0.000 A 
ATOM     19  C   UNL     1       1.495   9.176  18.719  0.00  0.00    +0.000 A 
ATOM     20  C   UNL     1       2.230   8.188  18.065  0.00  0.00    +0.000 A 
ATOM     21  C   UNL     1       2.574   7.012  18.732  0.00  0.00    +0.000 A 
ATOM     22  C   UNL     1       2.184   6.813  20.058  0.00  0.00    +0.000 A 
ATOM     23  C   UNL     1       1.452   7.820  20.712  0.00  0.00    +0.000 A 
BRANCH  22  24
ATOM     24  N   UNL     1       2.452   5.621  20.773  0.00  0.00    +0.000 N 
ATOM     25  C   UNL     1       1.732   4.440  20.715  0.00  0.00    +0.000 C 
ATOM     26  C   UNL     1       2.202   3.408  21.709  0.00  0.00    +0.000 C 
ATOM     27  O   UNL     1       0.823   4.175  19.936  0.00  0.00    +0.000 OA
ATOM     28  H   UNL     1       3.268   5.634  21.372  0.00  0.00    +0.000 HD
ENDBRANCH  22  24
ENDBRANCH  17  18
ENDBRANCH  16  17
ENDBRANCH   7  16
TORSDOF 5
ENDMDL
