MODEL 1
REMARK VINA RESULT:      -8.1      0.000      0.000
REMARK  Name = 
REMARK  5 active torsions:
REMARK  status: ('A' for Active; 'I' for Inactive)
REMARK    1  A    between atoms: C_1  and  C_2
REMARK    2  A    between atoms: C_2  and  N_3
REMARK    3  A    between atoms: N_6  and  C_7
REMARK    4  A    between atoms: C_10  and  C_11
REMARK    5  A    between atoms: N_13  and  C_14
REMARK                            x       y       z     vdW  Elec       q    Type
REMARK                         _______ _______ _______ _____ _____    ______ ____
ROOT
ATOM      1  C   UNL     1       1.249  11.442  19.149  0.00  0.00    +0.000 A 
ATOM      2  N   UNL     1       1.908  10.916  18.091  0.00  0.00    +0.000 NA
ATOM      3  C   UNL     1       2.140   9.587  18.079  0.00  0.00    +0.000 A 
ATOM      4  C   UNL     1       1.755   8.701  19.082  0.00  0.00    +0.000 A 
ATOM      5  C   UNL     1       1.068   9.223  20.202  0.00  0.00    +0.000 A 
ATOM      6  C   UNL     1       0.682   8.467  21.344  0.00  0.00    +0.000 A 
ATOM      7  C   UNL     1      -0.071   9.010  22.385  0.00  0.00    +0.000 A 
ATOM      8  C   UNL     1      -0.493  10.324  22.309  0.00  0.00    +0.000 A 
ATOM      9  C   UNL     1      -0.103  11.091  21.218  0.00  0.00    +0.000 A 
ATOM     10  C   UNL     1       0.748  10.609  20.193  0.00  0.00    +0.000 A 
ENDROOT
BRANCH   1  14
ATOM     11  N   UNL     1       0.313  15.548  19.797  0.00  0.00    +0.000 NA
ATOM     12  C   UNL     1      -0.656  14.502  19.362  0.00  0.00    +0.000 C 
ATOM     13  C   UNL     1      -0.082  13.392  18.441  0.00  0.00    +0.000 C 
ATOM     14  N   UNL     1       1.064  12.808  19.139  0.00  0.00    +0.000 N 
ATOM     15  C   UNL     1       2.127  13.779  19.414  0.00  0.00    +0.000 C 
ATOM     16  C   UNL     1       1.531  14.883  20.335  0.00  0.00    +0.000 C 
BRANCH  11  18
ATOM     17  C   UNL     1      -0.504  17.101  18.012  0.00  0.00    +0.000 C 
ATOM     18  C   UNL     1       0.687  16.487  18.733  0.00  0.00    +0.000 C 
ENDBRANCH  11  18
ENDBRANCH   1  14
BRANCH   4  19
ATOM     19  C   UNL     1       2.110   7.277  18.825  0.00  0.00    +0.000 C 
ATOM     20  O   UNL     1       1.666   6.775  17.799  0.00  0.00    +0.000 OA
ATOM     21  N   UNL     1       2.802   6.605  19.817  0.00  0.00    +0.000 N 
ATOM     22  H   UNL     1       2.887   7.072  20.715  0.00  0.00    +0.000 HD
BRANCH  21  23
ATOM     23  C   UNL     1       3.208   5.237  19.815  0.00  0.00    +0.000 A 
ATOM     24  C   UNL     1       2.554   4.200  20.504  0.00  0.00    +0.000 A 
ATOM     25  F   UNL     1       1.377   4.379  21.112  0.00  0.00    +0.000 F 
ATOM     26  C   UNL     1       3.061   2.901  20.529  0.00  0.00    +0.000 A 
ATOM     27  C   UNL     1       4.216   2.606  19.827  0.00  0.00    +0.000 A 
ATOM     28  F   UNL     1       4.706   1.361  19.852  0.00  0.00    +0.000 F 
ATOM     29  C   UNL     1       4.859   3.582  19.078  0.00  0.00    +0.000 A 
ATOM     30  C   UNL     1       4.352   4.886  19.069  0.00  0.00    +0.000 A 
ATOM     31 BR   UNL     1       5.272   6.168  18.004  0.00  0.00    +0.000 Br
ENDBRANCH  21  23
ENDBRANCH   4  19
TORSDOF 4
ENDMDL
MODEL 2
REMARK VINA RESULT:      -8.0      3.718      8.710
REMARK  Name = 
REMARK  5 active torsions:
REMARK  status: ('A' for Active; 'I' for Inactive)
REMARK    1  A    between atoms: C_1  and  C_2
REMARK    2  A    between atoms: C_2  and  N_3
REMARK    3  A    between atoms: N_6  and  C_7
REMARK    4  A    between atoms: C_10  and  C_11
REMARK    5  A    between atoms: N_13  and  C_14
REMARK                            x       y       z     vdW  Elec       q    Type
REMARK                         _______ _______ _______ _____ _____    ______ ____
ROOT
ATOM      1  C   UNL     1       3.786   6.225  18.042  0.00  0.00    +0.000 A 
ATOM      2  N   UNL     1       3.357   7.501  17.912  0.00  0.00    +0.000 NA
ATOM      3  C   UNL     1       2.439   7.959  18.790  0.00  0.00    +0.000 A 
ATOM      4  C   UNL     1       1.888   7.215  19.829  0.00  0.00    +0.000 A 
ATOM      5  C   UNL     1       2.315   5.876  19.986  0.00  0.00    +0.000 A 
ATOM      6  C   UNL     1       1.789   4.961  20.942  0.00  0.00    +0.000 A 
ATOM      7  C   UNL     1       2.305   3.677  21.115  0.00  0.00    +0.000 A 
ATOM      8  C   UNL     1       3.386   3.267  20.359  0.00  0.00    +0.000 A 
ATOM      9  C   UNL     1       3.897   4.131  19.398  0.00  0.00    +0.000 A 
ATOM     10  C   UNL     1       3.338   5.402  19.118  0.00  0.00    +0.000 A 
ENDROOT
BRANCH   1  14
ATOM     11  N   UNL     1       6.952   4.528  15.751  0.00  0.00    +0.000 NA
ATOM     12  C   UNL     1       7.074   5.718  16.640  0.00  0.00    +0.000 C 
ATOM     13  C   UNL     1       5.825   6.634  16.718  0.00  0.00    +0.000 C 
ATOM     14  N   UNL     1       4.696   5.786  17.105  0.00  0.00    +0.000 N 
ATOM     15  C   UNL     1       4.427   4.711  16.144  0.00  0.00    +0.000 C 
ATOM     16  C   UNL     1       5.691   3.808  16.079  0.00  0.00    +0.000 C 
BRANCH  11  18
ATOM     17  C   UNL     1       6.335   3.795  13.439  0.00  0.00    +0.000 C 
ATOM     18  C   UNL     1       6.981   4.853  14.320  0.00  0.00    +0.000 C 
ENDBRANCH  11  18
ENDBRANCH   1  14
BRANCH   4  19
ATOM     19  C   UNL     1       0.908   7.953  20.674  0.00  0.00    +0.000 C 
ATOM     20  O   UNL     1       0.122   7.276  21.325  0.00  0.00    +0.000 OA
ATOM     21  N   UNL     1       0.885   9.332  20.564  0.00  0.00    +0.000 N 
ATOM     22  H   UNL     1       1.421   9.741  19.805  0.00  0.00    +0.000 HD
BRANCH  21  23
ATOM     23  C   UNL     1       0.012  10.240  21.234  0.00  0.00    +0.000 A 
ATOM     24  C   UNL     1      -0.206  10.274  22.622  0.00  0.00    +0.000 A 
ATOM     25  F   UNL     1       0.518   9.543  23.477  0.00  0.00    +0.000 F 
ATOM     26  C   UNL     1      -1.142  11.132  23.198  0.00  0.00    +0.000 A 
ATOM     27  C   UNL     1      -1.853  12.005  22.394  0.00  0.00    +0.000 A 
ATOM     28  F   UNL     1      -2.755  12.827  22.944  0.00  0.00    +0.000 F 
ATOM     29  C   UNL     1      -1.624  12.054  21.026  0.00  0.00    +0.000 A 
ATOM     30  C   UNL     1      -0.692  11.181  20.454  0.00  0.00    +0.000 A 
ATOM     31 BR   UNL     1      -0.413  11.317  18.575  0.00  0.00    +0.000 Br
ENDBRANCH  21  23
ENDBRANCH   4  19
TORSDOF 4
ENDMDL
MODEL 3
REMARK VINA RESULT:      -7.9      3.664      8.590
REMARK  Name = 
REMARK  5 active torsions:
REMARK  status: ('A' for Active; 'I' for Inactive)
REMARK    1  A    between atoms: C_1  and  C_2
REMARK    2  A    between atoms: C_2  and  N_3
REMARK    3  A    between atoms: N_6  and  C_7
REMARK    4  A    between atoms: C_10  and  C_11
REMARK    5  A    between atoms: N_13  and  C_14
REMARK                            x       y       z     vdW  Elec       q    Type
REMARK                         _______ _______ _______ _____ _____    ______ ____
ROOT
ATOM      1  C   UNL     1       3.783   6.926  17.706  0.00  0.00    +0.000 A 
ATOM      2  N   UNL     1       3.460   8.168  17.279  0.00  0.00    +0.000 NA
ATOM      3  C   UNL     1       2.498   8.843  17.942  0.00  0.00    +0.000 A 
ATOM      4  C   UNL     1       1.798   8.358  19.043  0.00  0.00    +0.000 A 
ATOM      5  C   UNL     1       2.111   7.061  19.510  0.00  0.00    +0.000 A 
ATOM      6  C   UNL     1       1.433   6.391  20.567  0.00  0.00    +0.000 A 
ATOM      7  C   UNL     1       1.836   5.146  21.048  0.00  0.00    +0.000 A 
ATOM      8  C   UNL     1       2.953   4.535  20.511  0.00  0.00    +0.000 A 
ATOM      9  C   UNL     1       3.614   5.155  19.458  0.00  0.00    +0.000 A 
ATOM     10  C   UNL     1       3.176   6.367  18.871  0.00  0.00    +0.000 A 
ENDROOT
BRANCH   1  14
ATOM     11  N   UNL     1       6.928   4.517  16.139  0.00  0.00    +0.000 NA
ATOM     12  C   UNL     1       7.113   5.739  16.973  0.00  0.00    +0.000 C 
ATOM     13  C   UNL     1       6.061   6.861  16.767  0.00  0.00    +0.000 C 
ATOM     14  N   UNL     1       4.744   6.258  16.980  0.00  0.00    +0.000 N 
ATOM     15  C   UNL     1       4.452   5.169  16.044  0.00  0.00    +0.000 C 
ATOM     16  C   UNL     1       5.518   4.057  16.264  0.00  0.00    +0.000 C 
BRANCH  11  18
ATOM     17  C   UNL     1       6.391   3.909  13.772  0.00  0.00    +0.000 C 
ATOM     18  C   UNL     1       7.266   4.710  14.725  0.00  0.00    +0.000 C 
ENDBRANCH  11  18
ENDBRANCH   1  14
BRANCH   4  19
ATOM     19  C   UNL     1       0.798   9.304  19.613  0.00  0.00    +0.000 C 
ATOM     20  O   UNL     1      -0.111   9.657  18.870  0.00  0.00    +0.000 OA
ATOM     21  N   UNL     1       1.041   9.800  20.881  0.00  0.00    +0.000 N 
ATOM     22  H   UNL     1       1.956   9.614  21.279  0.00  0.00    +0.000 HD
BRANCH  21  23
ATOM     23  C   UNL     1       0.255  10.743  21.607  0.00  0.00    +0.000 A 
ATOM     24  C   UNL     1      -0.697  10.415  22.589  0.00  0.00    +0.000 A 
ATOM     25  F   UNL     1      -0.845   9.169  23.051  0.00  0.00    +0.000 F 
ATOM     26  C   UNL     1      -1.492  11.387  23.195  0.00  0.00    +0.000 A 
ATOM     27  C   UNL     1      -1.320  12.718  22.857  0.00  0.00    +0.000 A 
ATOM     28  F   UNL     1      -2.085  13.652  23.435  0.00  0.00    +0.000 F 
ATOM     29  C   UNL     1      -0.348  13.096  21.942  0.00  0.00    +0.000 A 
ATOM     30  C   UNL     1       0.438  12.113  21.329  0.00  0.00    +0.000 A 
ATOM     31 BR   UNL     1       1.767  12.705  20.100  0.00  0.00    +0.000 Br
ENDBRANCH  21  23
ENDBRANCH   4  19
TORSDOF 4
ENDMDL
MODEL 4
REMARK VINA RESULT:      -7.8      3.920      8.853
REMARK  Name = 
REMARK  5 active torsions:
REMARK  status: ('A' for Active; 'I' for Inactive)
REMARK    1  A    between atoms: C_1  and  C_2
REMARK    2  A    between atoms: C_2  and  N_3
REMARK    3  A    between atoms: N_6  and  C_7
REMARK    4  A    between atoms: C_10  and  C_11
REMARK    5  A    between atoms: N_13  and  C_14
REMARK                            x       y       z     vdW  Elec       q    Type
REMARK                         _______ _______ _______ _____ _____    ______ ____
ROOT
ATOM      1  C   UNL     1       3.839   6.711  17.815  0.00  0.00    +0.000 A 
ATOM      2  N   UNL     1       3.511   7.980  17.481  0.00  0.00    +0.000 NA
ATOM      3  C   UNL     1       2.571   8.612  18.214  0.00  0.00    +0.000 A 
ATOM      4  C   UNL     1       1.898   8.056  19.299  0.00  0.00    +0.000 A 
ATOM      5  C   UNL     1       2.216   6.729  19.669  0.00  0.00    +0.000 A 
ATOM      6  C   UNL     1       1.563   5.992  20.696  0.00  0.00    +0.000 A 
ATOM      7  C   UNL     1       1.972   4.716  21.081  0.00  0.00    +0.000 A 
ATOM      8  C   UNL     1       3.071   4.138  20.474  0.00  0.00    +0.000 A 
ATOM      9  C   UNL     1       3.707   4.826  19.447  0.00  0.00    +0.000 A 
ATOM     10  C   UNL     1       3.260   6.076  18.955  0.00  0.00    +0.000 A 
ENDROOT
BRANCH   1  14
ATOM     11  N   UNL     1       6.966   4.445  16.017  0.00  0.00    +0.000 NA
ATOM     12  C   UNL     1       7.157   5.660  16.858  0.00  0.00    +0.000 C 
ATOM     13  C   UNL     1       6.055   6.745  16.737  0.00  0.00    +0.000 C 
ATOM     14  N   UNL     1       4.777   6.090  17.020  0.00  0.00    +0.000 N 
ATOM     15  C   UNL     1       4.466   5.004  16.085  0.00  0.00    +0.000 C 
ATOM     16  C   UNL     1       5.584   3.930  16.220  0.00  0.00    +0.000 C 
BRANCH  11  18
ATOM     17  C   UNL     1       6.326   3.827  13.677  0.00  0.00    +0.000 C 
ATOM     18  C   UNL     1       7.208   4.670  14.587  0.00  0.00    +0.000 C 
ENDBRANCH  11  18
ENDBRANCH   1  14
BRANCH   4  19
ATOM     19  C   UNL     1       0.918   8.965  19.957  0.00  0.00    +0.000 C 
ATOM     20  O   UNL     1       0.600   8.690  21.109  0.00  0.00    +0.000 OA
ATOM     21  N   UNL     1       0.357   9.964  19.184  0.00  0.00    +0.000 N 
ATOM     22  H   UNL     1       0.526   9.921  18.183  0.00  0.00    +0.000 HD
BRANCH  21  23
ATOM     23  C   UNL     1      -0.627  10.918  19.580  0.00  0.00    +0.000 A 
ATOM     24  C   UNL     1      -0.535  11.752  20.708  0.00  0.00    +0.000 A 
ATOM     25  F   UNL     1       0.579  11.838  21.443  0.00  0.00    +0.000 F 
ATOM     26  C   UNL     1      -1.578  12.598  21.084  0.00  0.00    +0.000 A 
ATOM     27  C   UNL     1      -2.724  12.654  20.310  0.00  0.00    +0.000 A 
ATOM     28  F   UNL     1      -3.727  13.463  20.671  0.00  0.00    +0.000 F 
ATOM     29  C   UNL     1      -2.833  11.899  19.151  0.00  0.00    +0.000 A 
ATOM     30  C   UNL     1      -1.787  11.043  18.787  0.00  0.00    +0.000 A 
ATOM     31 BR   UNL     1      -1.996  10.053  17.174  0.00  0.00    +0.000 Br
ENDBRANCH  21  23
ENDBRANCH   4  19
TORSDOF 4
ENDMDL
MODEL 5
REMARK VINA RESULT:      -7.8      1.309      1.312
REMARK  Name = 
REMARK  5 active torsions:
REMARK  status: ('A' for Active; 'I' for Inactive)
REMARK    1  A    between atoms: C_1  and  C_2
REMARK    2  A    between atoms: C_2  and  N_3
REMARK    3  A    between atoms: N_6  and  C_7
REMARK    4  A    between atoms: C_10  and  C_11
REMARK    5  A    between atoms: N_13  and  C_14
REMARK                            x       y       z     vdW  Elec       q    Type
REMARK                         _______ _______ _______ _____ _____    ______ ____
ROOT
ATOM      1  C   UNL     1       1.085  11.287  19.493  0.00  0.00    +0.000 A 
ATOM      2  N   UNL     1       1.706  10.596  18.510  0.00  0.00    +0.000 NA
ATOM      3  C   UNL     1       1.912   9.275  18.689  0.00  0.00    +0.000 A 
ATOM      4  C   UNL     1       1.538   8.555  19.820  0.00  0.00    +0.000 A 
ATOM      5  C   UNL     1       0.891   9.252  20.867  0.00  0.00    +0.000 A 
ATOM      6  C   UNL     1       0.522   8.681  22.117  0.00  0.00    +0.000 A 
ATOM      7  C   UNL     1      -0.192   9.389  23.083  0.00  0.00    +0.000 A 
ATOM      8  C   UNL     1      -0.592  10.686  22.825  0.00  0.00    +0.000 A 
ATOM      9  C   UNL     1      -0.217  11.275  21.623  0.00  0.00    +0.000 A 
ATOM     10  C   UNL     1       0.596  10.628  20.661  0.00  0.00    +0.000 A 
ENDROOT
BRANCH   1  14
ATOM     11  N   UNL     1       0.274  15.469  19.563  0.00  0.00    +0.000 NA
ATOM     12  C   UNL     1      -0.743  14.397  19.361  0.00  0.00    +0.000 C 
ATOM     13  C   UNL     1      -0.257  13.144  18.585  0.00  0.00    +0.000 C 
ATOM     14  N   UNL     1       0.925  12.640  19.285  0.00  0.00    +0.000 N 
ATOM     15  C   UNL     1       2.023  13.610  19.336  0.00  0.00    +0.000 C 
ATOM     16  C   UNL     1       1.515  14.858  20.113  0.00  0.00    +0.000 C 
BRANCH  11  18
ATOM     17  C   UNL     1      -0.501  17.203  17.933  0.00  0.00    +0.000 C 
ATOM     18  C   UNL     1       0.588  16.224  18.345  0.00  0.00    +0.000 C 
ENDBRANCH  11  18
ENDBRANCH   1  14
BRANCH   4  19
ATOM     19  C   UNL     1       1.859   7.101  19.769  0.00  0.00    +0.000 C 
ATOM     20  O   UNL     1       1.890   6.506  20.840  0.00  0.00    +0.000 OA
ATOM     21  N   UNL     1       2.214   6.570  18.542  0.00  0.00    +0.000 N 
ATOM     22  H   UNL     1       2.386   7.229  17.789  0.00  0.00    +0.000 HD
BRANCH  21  23
ATOM     23  C   UNL     1       2.602   5.227  18.259  0.00  0.00    +0.000 A 
ATOM     24  C   UNL     1       1.897   4.080  18.665  0.00  0.00    +0.000 A 
ATOM     25  F   UNL     1       0.689   4.149  19.234  0.00  0.00    +0.000 F 
ATOM     26  C   UNL     1       2.385   2.796  18.427  0.00  0.00    +0.000 A 
ATOM     27  C   UNL     1       3.575   2.634  17.740  0.00  0.00    +0.000 A 
ATOM     28  F   UNL     1       4.046   1.402  17.514  0.00  0.00    +0.000 F 
ATOM     29  C   UNL     1       4.272   3.734  17.262  0.00  0.00    +0.000 A 
ATOM     30  C   UNL     1       3.783   5.021  17.515  0.00  0.00    +0.000 A 
ATOM     31 BR   UNL     1       4.779   6.483  16.811  0.00  0.00    +0.000 Br
ENDBRANCH  21  23
ENDBRANCH   4  19
TORSDOF 4
ENDMDL
MODEL 6
REMARK VINA RESULT:      -7.7      3.094      3.986
REMARK  Name = 
REMARK  5 active torsions:
REMARK  status: ('A' for Active; 'I' for Inactive)
REMARK    1  A    between atoms: C_1  and  C_2
REMARK    2  A    between atoms: C_2  and  N_3
REMARK    3  A    between atoms: N_6  and  C_7
REMARK    4  A    between atoms: C_10  and  C_11
REMARK    5  A    between atoms: N_13  and  C_14
REMARK                            x       y       z     vdW  Elec       q    Type
REMARK                         _______ _______ _______ _____ _____    ______ ____
ROOT
ATOM      1  C   UNL     1      -0.317  11.465  21.008  0.00  0.00    +0.000 A 
ATOM      2  N   UNL     1       0.861  10.904  21.361  0.00  0.00    +0.000 NA
ATOM      3  C   UNL     1       1.433  10.027  20.509  0.00  0.00    +0.000 A 
ATOM      4  C   UNL     1       0.899   9.644  19.282  0.00  0.00    +0.000 A 
ATOM      5  C   UNL     1      -0.334  10.212  18.888  0.00  0.00    +0.000 A 
ATOM      6  C   UNL     1      -1.050   9.864  17.708  0.00  0.00    +0.000 A 
ATOM      7  C   UNL     1      -2.220  10.515  17.320  0.00  0.00    +0.000 A 
ATOM      8  C   UNL     1      -2.705  11.561  18.082  0.00  0.00    +0.000 A 
ATOM      9  C   UNL     1      -2.041  11.899  19.255  0.00  0.00    +0.000 A 
ATOM     10  C   UNL     1      -0.911  11.196  19.739  0.00  0.00    +0.000 A 
ENDROOT
BRANCH   1  14
ATOM     11  N   UNL     1      -2.565  14.302  23.255  0.00  0.00    +0.000 NA
ATOM     12  C   UNL     1      -1.576  14.635  22.192  0.00  0.00    +0.000 C 
ATOM     13  C   UNL     1      -0.356  13.683  22.083  0.00  0.00    +0.000 C 
ATOM     14  N   UNL     1      -0.884  12.328  21.921  0.00  0.00    +0.000 N 
ATOM     15  C   UNL     1      -1.713  11.894  23.050  0.00  0.00    +0.000 C 
ATOM     16  C   UNL     1      -2.927  12.862  23.143  0.00  0.00    +0.000 C 
BRANCH  11  18
ATOM     17  C   UNL     1      -2.991  15.552  25.381  0.00  0.00    +0.000 C 
ATOM     18  C   UNL     1      -2.094  14.592  24.614  0.00  0.00    +0.000 C 
ENDBRANCH  11  18
ENDBRANCH   1  14
BRANCH   4  19
ATOM     19  C   UNL     1       1.732   8.676  18.515  0.00  0.00    +0.000 C 
ATOM     20  O   UNL     1       1.900   8.916  17.325  0.00  0.00    +0.000 OA
ATOM     21  N   UNL     1       2.142   7.529  19.171  0.00  0.00    +0.000 N 
ATOM     22  H   UNL     1       1.723   7.344  20.077  0.00  0.00    +0.000 HD
BRANCH  21  23
ATOM     23  C   UNL     1       2.901   6.448  18.633  0.00  0.00    +0.000 A 
ATOM     24  C   UNL     1       3.970   6.583  17.729  0.00  0.00    +0.000 A 
ATOM     25  F   UNL     1       4.482   7.774  17.402  0.00  0.00    +0.000 F 
ATOM     26  C   UNL     1       4.609   5.474  17.176  0.00  0.00    +0.000 A 
ATOM     27  C   UNL     1       4.215   4.202  17.552  0.00  0.00    +0.000 A 
ATOM     28  F   UNL     1       4.825   3.136  17.020  0.00  0.00    +0.000 F 
ATOM     29  C   UNL     1       3.210   4.020  18.491  0.00  0.00    +0.000 A 
ATOM     30  C   UNL     1       2.565   5.138  19.032  0.00  0.00    +0.000 A 
ATOM     31 BR   UNL     1       1.210   4.815  20.331  0.00  0.00    +0.000 Br
ENDBRANCH  21  23
ENDBRANCH   4  19
TORSDOF 4
ENDMDL
MODEL 7
REMARK VINA RESULT:      -7.4      3.924      8.796
REMARK  Name = 
REMARK  5 active torsions:
REMARK  status: ('A' for Active; 'I' for Inactive)
REMARK    1  A    between atoms: C_1  and  C_2
REMARK    2  A    between atoms: C_2  and  N_3
REMARK    3  A    between atoms: N_6  and  C_7
REMARK    4  A    between atoms: C_10  and  C_11
REMARK    5  A    between atoms: N_13  and  C_14
REMARK                            x       y       z     vdW  Elec       q    Type
REMARK                         _______ _______ _______ _____ _____    ______ ____
ROOT
ATOM      1  C   UNL     1       3.731   7.086  17.714  0.00  0.00    +0.000 A 
ATOM      2  N   UNL     1       3.457   8.312  17.213  0.00  0.00    +0.000 NA
ATOM      3  C   UNL     1       2.488   9.042  17.803  0.00  0.00    +0.000 A 
ATOM      4  C   UNL     1       1.733   8.630  18.897  0.00  0.00    +0.000 A 
ATOM      5  C   UNL     1       1.993   7.350  19.440  0.00  0.00    +0.000 A 
ATOM      6  C   UNL     1       1.256   6.751  20.500  0.00  0.00    +0.000 A 
ATOM      7  C   UNL     1       1.608   5.522  21.057  0.00  0.00    +0.000 A 
ATOM      8  C   UNL     1       2.729   4.858  20.597  0.00  0.00    +0.000 A 
ATOM      9  C   UNL     1       3.447   5.409  19.542  0.00  0.00    +0.000 A 
ATOM     10  C   UNL     1       3.064   6.600  18.879  0.00  0.00    +0.000 A 
ENDROOT
BRANCH   1  14
ATOM     11  N   UNL     1       6.860   4.514  16.392  0.00  0.00    +0.000 NA
ATOM     12  C   UNL     1       7.047   5.757  17.194  0.00  0.00    +0.000 C 
ATOM     13  C   UNL     1       6.049   6.907  16.897  0.00  0.00    +0.000 C 
ATOM     14  N   UNL     1       4.702   6.359  17.061  0.00  0.00    +0.000 N 
ATOM     15  C   UNL     1       4.417   5.249  16.147  0.00  0.00    +0.000 C 
ATOM     16  C   UNL     1       5.429   4.108  16.458  0.00  0.00    +0.000 C 
BRANCH  11  18
ATOM     17  C   UNL     1       6.392   3.879  14.017  0.00  0.00    +0.000 C 
ATOM     18  C   UNL     1       7.275   4.645  14.992  0.00  0.00    +0.000 C 
ENDBRANCH  11  18
ENDBRANCH   1  14
BRANCH   4  19
ATOM     19  C   UNL     1       0.735   9.627  19.378  0.00  0.00    +0.000 C 
ATOM     20  O   UNL     1      -0.283   9.754  18.709  0.00  0.00    +0.000 OA
ATOM     21  N   UNL     1       1.090  10.409  20.462  0.00  0.00    +0.000 N 
ATOM     22  H   UNL     1       2.060  10.367  20.762  0.00  0.00    +0.000 HD
BRANCH  21  23
ATOM     23  C   UNL     1       0.325  11.450  21.066  0.00  0.00    +0.000 A 
ATOM     24  C   UNL     1       0.236  12.769  20.588  0.00  0.00    +0.000 A 
ATOM     25  F   UNL     1       0.750  13.137  19.409  0.00  0.00    +0.000 F 
ATOM     26  C   UNL     1      -0.461  13.758  21.282  0.00  0.00    +0.000 A 
ATOM     27  C   UNL     1      -1.120  13.432  22.455  0.00  0.00    +0.000 A 
ATOM     28  F   UNL     1      -1.788  14.379  23.124  0.00  0.00    +0.000 F 
ATOM     29  C   UNL     1      -1.117  12.129  22.930  0.00  0.00    +0.000 A 
ATOM     30  C   UNL     1      -0.404  11.145  22.235  0.00  0.00    +0.000 A 
ATOM     31 BR   UNL     1      -0.460   9.375  22.933  0.00  0.00    +0.000 Br
ENDBRANCH  21  23
ENDBRANCH   4  19
TORSDOF 4
ENDMDL
MODEL 8
REMARK VINA RESULT:      -7.3      0.611      1.078
REMARK  Name = 
REMARK  5 active torsions:
REMARK  status: ('A' for Active; 'I' for Inactive)
REMARK    1  A    between atoms: C_1  and  C_2
REMARK    2  A    between atoms: C_2  and  N_3
REMARK    3  A    between atoms: N_6  and  C_7
REMARK    4  A    between atoms: C_10  and  C_11
REMARK    5  A    between atoms: N_13  and  C_14
REMARK                            x       y       z     vdW  Elec       q    Type
REMARK                         _______ _______ _______ _____ _____    ______ ____
ROOT
ATOM      1  C   UNL     1       1.164  11.551  19.434  0.00  0.00    +0.000 A 
ATOM      2  N   UNL     1       1.815  11.075  18.348  0.00  0.00    +0.000 NA
ATOM      3  C   UNL     1       2.055   9.749  18.277  0.00  0.00    +0.000 A 
ATOM      4  C   UNL     1       1.688   8.819  19.244  0.00  0.00    +0.000 A 
ATOM      5  C   UNL     1       1.009   9.288  20.393  0.00  0.00    +0.000 A 
ATOM      6  C   UNL     1       0.641   8.481  21.506  0.00  0.00    +0.000 A 
ATOM      7  C   UNL     1      -0.103   8.974  22.577  0.00  0.00    +0.000 A 
ATOM      8  C   UNL     1      -0.535  10.287  22.563  0.00  0.00    +0.000 A 
ATOM      9  C   UNL     1      -0.162  11.103  21.501  0.00  0.00    +0.000 A 
ATOM     10  C   UNL     1       0.680  10.671  20.447  0.00  0.00    +0.000 A 
ENDROOT
BRANCH   1  14
ATOM     11  N   UNL     1       0.921  15.771  18.897  0.00  0.00    +0.000 NA
ATOM     12  C   UNL     1       2.154  15.019  19.266  0.00  0.00    +0.000 C 
ATOM     13  C   UNL     1       1.941  13.773  20.166  0.00  0.00    +0.000 C 
ATOM     14  N   UNL     1       0.971  12.914  19.484  0.00  0.00    +0.000 N 
ATOM     15  C   UNL     1      -0.326  13.564  19.275  0.00  0.00    +0.000 C 
ATOM     16  C   UNL     1      -0.090  14.811  18.375  0.00  0.00    +0.000 C 
BRANCH  11  18
ATOM     17  C   UNL     1      -0.939  17.273  19.637  0.00  0.00    +0.000 C 
ATOM     18  C   UNL     1       0.347  16.545  20.003  0.00  0.00    +0.000 C 
ENDBRANCH  11  18
ENDBRANCH   1  14
BRANCH   4  19
ATOM     19  C   UNL     1       2.048   7.409  18.924  0.00  0.00    +0.000 C 
ATOM     20  O   UNL     1       1.617   6.956  17.870  0.00  0.00    +0.000 OA
ATOM     21  N   UNL     1       2.731   6.692  19.889  0.00  0.00    +0.000 N 
ATOM     22  H   UNL     1       2.806   7.115  20.809  0.00  0.00    +0.000 HD
BRANCH  21  23
ATOM     23  C   UNL     1       3.141   5.327  19.826  0.00  0.00    +0.000 A 
ATOM     24  C   UNL     1       2.498   4.260  20.479  0.00  0.00    +0.000 A 
ATOM     25  F   UNL     1       1.328   4.410  21.109  0.00  0.00    +0.000 F 
ATOM     26  C   UNL     1       3.008   2.963  20.444  0.00  0.00    +0.000 A 
ATOM     27  C   UNL     1       4.156   2.700  19.716  0.00  0.00    +0.000 A 
ATOM     28  F   UNL     1       4.649   1.456  19.684  0.00  0.00    +0.000 F 
ATOM     29  C   UNL     1       4.787   3.708  19.002  0.00  0.00    +0.000 A 
ATOM     30  C   UNL     1       4.276   5.010  19.052  0.00  0.00    +0.000 A 
ATOM     31 BR   UNL     1       5.181   6.338  18.030  0.00  0.00    +0.000 Br
ENDBRANCH  21  23
ENDBRANCH   4  19
TORSDOF 4
ENDMDL
MODEL 9
REMARK VINA RESULT:      -7.3      1.884      2.120
REMARK  Name = 
REMARK  5 active torsions:
REMARK  status: ('A' for Active; 'I' for Inactive)
REMARK    1  A    between atoms: C_1  and  C_2
REMARK    2  A    between atoms: C_2  and  N_3
REMARK    3  A    between atoms: N_6  and  C_7
REMARK    4  A    between atoms: C_10  and  C_11
REMARK    5  A    between atoms: N_13  and  C_14
REMARK                            x       y       z     vdW  Elec       q    Type
REMARK                         _______ _______ _______ _____ _____    ______ ____
ROOT
ATOM      1  C   UNL     1       1.386  12.107  19.633  0.00  0.00    +0.000 A 
ATOM      2  N   UNL     1       2.011  11.807  18.472  0.00  0.00    +0.000 NA
ATOM      3  C   UNL     1       2.126  10.508  18.124  0.00  0.00    +0.000 A 
ATOM      4  C   UNL     1       1.652   9.436  18.875  0.00  0.00    +0.000 A 
ATOM      5  C   UNL     1       0.998   9.719  20.096  0.00  0.00    +0.000 A 
ATOM      6  C   UNL     1       0.532   8.737  21.015  0.00  0.00    +0.000 A 
ATOM      7  C   UNL     1      -0.185   9.066  22.165  0.00  0.00    +0.000 A 
ATOM      8  C   UNL     1      -0.490  10.388  22.426  0.00  0.00    +0.000 A 
ATOM      9  C   UNL     1      -0.019  11.367  21.560  0.00  0.00    +0.000 A 
ATOM     10  C   UNL     1       0.800  11.085  20.439  0.00  0.00    +0.000 A 
ENDROOT
BRANCH   1  14
ATOM     11  N   UNL     1       0.618  16.011  21.154  0.00  0.00    +0.000 NA
ATOM     12  C   UNL     1      -0.243  15.281  20.182  0.00  0.00    +0.000 C 
ATOM     13  C   UNL     1       0.502  14.362  19.178  0.00  0.00    +0.000 C 
ATOM     14  N   UNL     1       1.321  13.441  19.968  0.00  0.00    +0.000 N 
ATOM     15  C   UNL     1       2.316  14.125  20.800  0.00  0.00    +0.000 C 
ATOM     16  C   UNL     1       1.550  15.043  21.795  0.00  0.00    +0.000 C 
BRANCH  11  18
ATOM     17  C   UNL     1       0.528  18.081  19.751  0.00  0.00    +0.000 C 
ATOM     18  C   UNL     1       1.381  17.114  20.559  0.00  0.00    +0.000 C 
ENDBRANCH  11  18
ENDBRANCH   1  14
BRANCH   4  19
ATOM     19  C   UNL     1       1.884   8.096  18.266  0.00  0.00    +0.000 C 
ATOM     20  O   UNL     1       1.124   7.762  17.365  0.00  0.00    +0.000 OA
ATOM     21  N   UNL     1       2.852   7.295  18.843  0.00  0.00    +0.000 N 
ATOM     22  H   UNL     1       3.232   7.601  19.733  0.00  0.00    +0.000 HD
BRANCH  21  23
ATOM     23  C   UNL     1       3.217   5.968  18.464  0.00  0.00    +0.000 A 
ATOM     24  C   UNL     1       3.977   5.633  17.330  0.00  0.00    +0.000 A 
ATOM     25  F   UNL     1       4.571   6.558  16.569  0.00  0.00    +0.000 F 
ATOM     26  C   UNL     1       4.219   4.306  16.974  0.00  0.00    +0.000 A 
ATOM     27  C   UNL     1       3.737   3.286  17.775  0.00  0.00    +0.000 A 
ATOM     28  F   UNL     1       3.965   2.012  17.433  0.00  0.00    +0.000 F 
ATOM     29  C   UNL     1       3.039   3.570  18.940  0.00  0.00    +0.000 A 
ATOM     30  C   UNL     1       2.789   4.903  19.283  0.00  0.00    +0.000 A 
ATOM     31 BR   UNL     1       1.844   5.220  20.906  0.00  0.00    +0.000 Br
ENDBRANCH  21  23
ENDBRANCH   4  19
TORSDOF 4
ENDMDL
