MODEL 1
REMARK VINA RESULT:      -8.7      0.000      0.000
REMARK  Name = 
REMARK  9 active torsions:
REMARK  status: ('A' for Active; 'I' for Inactive)
REMARK    1  A    between atoms: C_1  and  O_2
REMARK    2  A    between atoms: O_2  and  C_3
REMARK    3  A    between atoms: C_7  and  C_8
REMARK    4  A    between atoms: C_8  and  C_9
REMARK    5  A    between atoms: C_8  and  C_10
REMARK    6  A    between atoms: N_11  and  C_12
REMARK    7  A    between atoms: C_20  and  O_21
REMARK    8  A    between atoms: O_21  and  C_22
REMARK    9  A    between atoms: C_22  and  C_23
REMARK                            x       y       z     vdW  Elec       q    Type
REMARK                         _______ _______ _______ _____ _____    ______ ____
ROOT
ATOM      1  C   UNL     1       1.618  10.087  18.731  0.00  0.00    +0.000 A 
ATOM      2  C   UNL     1       2.596   9.503  17.847  0.00  0.00    +0.000 A 
ATOM      3  C   UNL     1       2.870   8.139  17.929  0.00  0.00    +0.000 A 
ATOM      4  N   UNL     1       3.783   7.367  17.248  0.00  0.00    +0.000 NA
ATOM      5  C   UNL     1       3.651   6.135  17.711  0.00  0.00    +0.000 A 
ATOM      6  N   UNL     1       2.664   6.086  18.723  0.00  0.00    +0.000 N 
ATOM      7  C   UNL     1       2.143   7.385  18.832  0.00  0.00    +0.000 A 
ATOM      8  C   UNL     1       1.071   7.941  19.606  0.00  0.00    +0.000 A 
ATOM      9  C   UNL     1       0.746   9.284  19.548  0.00  0.00    +0.000 A 
ENDROOT
BRANCH   6  10
ATOM     10  C   UNL     1       2.211   5.006  19.514  0.00  0.00    +0.000 A 
ATOM     11  C   UNL     1       2.567   4.923  20.831  0.00  0.00    +0.000 A 
ATOM     12  C   UNL     1       2.243   3.777  21.586  0.00  0.00    +0.000 A 
ATOM     13  C   UNL     1       1.363   2.789  21.054  0.00  0.00    +0.000 A 
ATOM     14  C   UNL     1       0.905   2.963  19.774  0.00  0.00    +0.000 A 
ATOM     15  C   UNL     1       1.382   4.029  18.963  0.00  0.00    +0.000 A 
ENDBRANCH   6  10
BRANCH   5  16
ATOM     16  C   UNL     1       4.469   4.958  17.210  0.00  0.00    +0.000 C 
ATOM     17  C   UNL     1       5.204   5.355  15.928  0.00  0.00    +0.000 C 
ATOM     18  C   UNL     1       5.488   4.443  18.223  0.00  0.00    +0.000 C 
ENDBRANCH   5  16
BRANCH   1  20
ATOM     19  C   UNL     1       2.577  12.149  18.025  0.00  0.00    +0.000 C 
ATOM     20  O   UNL     1       1.551  11.468  18.783  0.00  0.00    +0.000 OA
ENDBRANCH   1  20
BRANCH   9  21
ATOM     21  O   UNL     1      -0.331   9.768  20.296  0.00  0.00    +0.000 OA
BRANCH  21  22
ATOM     22  C   UNL     1      -0.326  10.685  21.625  0.00  0.00    +0.000 C 
BRANCH  22  23
ATOM     23  C   UNL     1      -1.507  11.919  21.706  0.00  0.00    +0.000 A 
ATOM     24  C   UNL     1      -1.714  11.896  23.014  0.00  0.00    +0.000 A 
ATOM     25  C   UNL     1      -2.254  13.069  23.357  0.00  0.00    +0.000 A 
ATOM     26  C   UNL     1      -3.562  12.839  23.254  0.00  0.00    +0.000 A 
ATOM     27  C   UNL     1      -4.143  12.375  24.437  0.00  0.00    +0.000 A 
ATOM     28  C   UNL     1      -5.499  12.465  24.631  0.00  0.00    +0.000 A 
ATOM     29  C   UNL     1      -6.130  13.288  23.748  0.00  0.00    +0.000 A 
ATOM     30  C   UNL     1      -5.448  13.636  22.506  0.00  0.00    +0.000 A 
ATOM     31  C   UNL     1      -4.010  13.003  22.033  0.00  0.00    +0.000 A 
ATOM     32  N   UNL     1      -2.735  12.500  21.076  0.00  0.00    +0.000 NA
ENDBRANCH  22  23
ENDBRANCH  21  22
ENDBRANCH   9  21
TORSDOF 6
ENDMDL
MODEL 2
REMARK VINA RESULT:      -8.5      4.711      9.387
REMARK  Name = 
REMARK  9 active torsions:
REMARK  status: ('A' for Active; 'I' for Inactive)
REMARK    1  A    between atoms: C_1  and  O_2
REMARK    2  A    between atoms: O_2  and  C_3
REMARK    3  A    between atoms: C_7  and  C_8
REMARK    4  A    between atoms: C_8  and  C_9
REMARK    5  A    between atoms: C_8  and  C_10
REMARK    6  A    between atoms: N_11  and  C_12
REMARK    7  A    between atoms: C_20  and  O_21
REMARK    8  A    between atoms: O_21  and  C_22
REMARK    9  A    between atoms: C_22  and  C_23
REMARK                            x       y       z     vdW  Elec       q    Type
REMARK                         _______ _______ _______ _____ _____    ______ ____
ROOT
ATOM      1  C   UNL     1       1.872  15.208  18.945  0.00  0.00    +0.000 A 
ATOM      2  C   UNL     1       0.484  14.892  18.709  0.00  0.00    +0.000 A 
ATOM      3  C   UNL     1       0.080  13.559  18.667  0.00  0.00    +0.000 A 
ATOM      4  N   UNL     1      -1.153  13.005  18.407  0.00  0.00    +0.000 NA
ATOM      5  C   UNL     1      -0.995  11.694  18.473  0.00  0.00    +0.000 A 
ATOM      6  N   UNL     1       0.352  11.367  18.753  0.00  0.00    +0.000 N 
ATOM      7  C   UNL     1       1.032  12.585  18.908  0.00  0.00    +0.000 A 
ATOM      8  C   UNL     1       2.378  12.906  19.286  0.00  0.00    +0.000 A 
ATOM      9  C   UNL     1       2.825  14.213  19.361  0.00  0.00    +0.000 A 
ENDROOT
BRANCH   6  10
ATOM     10  C   UNL     1       0.985  10.110  18.884  0.00  0.00    +0.000 A 
ATOM     11  C   UNL     1       0.897   9.417  20.059  0.00  0.00    +0.000 A 
ATOM     12  C   UNL     1       1.644   8.237  20.248  0.00  0.00    +0.000 A 
ATOM     13  C   UNL     1       2.332   7.637  19.153  0.00  0.00    +0.000 A 
ATOM     14  C   UNL     1       2.293   8.280  17.944  0.00  0.00    +0.000 A 
ATOM     15  C   UNL     1       1.685   9.559  17.812  0.00  0.00    +0.000 A 
ENDBRANCH   6  10
BRANCH   5  16
ATOM     16  C   UNL     1      -2.125  10.702  18.263  0.00  0.00    +0.000 C 
ATOM     17  C   UNL     1      -3.469  11.417  18.416  0.00  0.00    +0.000 C 
ATOM     18  C   UNL     1      -2.088  10.007  16.905  0.00  0.00    +0.000 C 
ENDBRANCH   5  16
BRANCH   1  20
ATOM     19  C   UNL     1       2.532  16.860  17.361  0.00  0.00    +0.000 C 
ATOM     20  O   UNL     1       2.270  16.518  18.742  0.00  0.00    +0.000 OA
ENDBRANCH   1  20
BRANCH   9  21
ATOM     21  O   UNL     1       4.136  14.472  19.769  0.00  0.00    +0.000 OA
BRANCH  21  22
ATOM     22  C   UNL     1       5.315  15.258  18.992  0.00  0.00    +0.000 C 
BRANCH  22  23
ATOM     23  C   UNL     1       6.917  14.893  19.465  0.00  0.00    +0.000 A 
ATOM     24  C   UNL     1       7.364  14.456  18.297  0.00  0.00    +0.000 A 
ATOM     25  C   UNL     1       8.697  14.544  18.317  0.00  0.00    +0.000 A 
ATOM     26  C   UNL     1       9.069  13.353  18.784  0.00  0.00    +0.000 A 
ATOM     27  C   UNL     1       9.278  12.400  17.784  0.00  0.00    +0.000 A 
ATOM     28  C   UNL     1      10.026  11.278  18.034  0.00  0.00    +0.000 A 
ATOM     29  C   UNL     1      10.757  11.345  19.182  0.00  0.00    +0.000 A 
ATOM     30  C   UNL     1      10.388  12.333  20.189  0.00  0.00    +0.000 A 
ATOM     31  C   UNL     1       9.064  13.299  20.094  0.00  0.00    +0.000 A 
ATOM     32  N   UNL     1       7.787  14.288  20.524  0.00  0.00    +0.000 NA
ENDBRANCH  22  23
ENDBRANCH  21  22
ENDBRANCH   9  21
TORSDOF 6
ENDMDL
MODEL 3
REMARK VINA RESULT:      -8.4      2.907      9.583
REMARK  Name = 
REMARK  9 active torsions:
REMARK  status: ('A' for Active; 'I' for Inactive)
REMARK    1  A    between atoms: C_1  and  O_2
REMARK    2  A    between atoms: O_2  and  C_3
REMARK    3  A    between atoms: C_7  and  C_8
REMARK    4  A    between atoms: C_8  and  C_9
REMARK    5  A    between atoms: C_8  and  C_10
REMARK    6  A    between atoms: N_11  and  C_12
REMARK    7  A    between atoms: C_20  and  O_21
REMARK    8  A    between atoms: O_21  and  C_22
REMARK    9  A    between atoms: C_22  and  C_23
REMARK                            x       y       z     vdW  Elec       q    Type
REMARK                         _______ _______ _______ _____ _____    ______ ____
ROOT
ATOM      1  C   UNL     1      -0.048  10.560  20.541  0.00  0.00    +0.000 A 
ATOM      2  C   UNL     1      -0.275  11.598  21.516  0.00  0.00    +0.000 A 
ATOM      3  C   UNL     1       0.418  12.803  21.411  0.00  0.00    +0.000 A 
ATOM      4  N   UNL     1       0.420  13.908  22.231  0.00  0.00    +0.000 NA
ATOM      5  C   UNL     1       1.263  14.773  21.691  0.00  0.00    +0.000 A 
ATOM      6  N   UNL     1       1.846  14.236  20.520  0.00  0.00    +0.000 N 
ATOM      7  C   UNL     1       1.266  12.971  20.332  0.00  0.00    +0.000 A 
ATOM      8  C   UNL     1       1.378  11.995  19.286  0.00  0.00    +0.000 A 
ATOM      9  C   UNL     1       0.698  10.792  19.332  0.00  0.00    +0.000 A 
ENDROOT
BRANCH   6  10
ATOM     10  C   UNL     1       2.811  14.779  19.641  0.00  0.00    +0.000 A 
ATOM     11  C   UNL     1       2.414  15.475  18.534  0.00  0.00    +0.000 A 
ATOM     12  C   UNL     1       3.361  15.892  17.577  0.00  0.00    +0.000 A 
ATOM     13  C   UNL     1       4.757  15.781  17.849  0.00  0.00    +0.000 A 
ATOM     14  C   UNL     1       5.133  15.202  19.032  0.00  0.00    +0.000 A 
ATOM     15  C   UNL     1       4.171  14.626  19.906  0.00  0.00    +0.000 A 
ENDBRANCH   6  10
BRANCH   5  16
ATOM     16  C   UNL     1       1.550  16.143  22.279  0.00  0.00    +0.000 C 
ATOM     17  C   UNL     1       3.022  16.226  22.688  0.00  0.00    +0.000 C 
ATOM     18  C   UNL     1       1.237  17.296  21.329  0.00  0.00    +0.000 C 
ENDBRANCH   5  16
BRANCH   1  20
ATOM     19  C   UNL     1      -0.369   8.855  22.173  0.00  0.00    +0.000 C 
ATOM     20  O   UNL     1      -0.567   9.306  20.814  0.00  0.00    +0.000 OA
ENDBRANCH   1  20
BRANCH   9  21
ATOM     21  O   UNL     1       0.816   9.891  18.270  0.00  0.00    +0.000 OA
BRANCH  21  22
ATOM     22  C   UNL     1       2.053   8.933  17.870  0.00  0.00    +0.000 C 
BRANCH  22  23
ATOM     23  C   UNL     1       2.390   7.637  18.934  0.00  0.00    +0.000 A 
ATOM     24  C   UNL     1       2.424   6.662  18.037  0.00  0.00    +0.000 A 
ATOM     25  C   UNL     1       3.112   5.648  18.571  0.00  0.00    +0.000 A 
ATOM     26  C   UNL     1       2.164   4.924  19.166  0.00  0.00    +0.000 A 
ATOM     27  C   UNL     1       1.611   3.942  18.341  0.00  0.00    +0.000 A 
ATOM     28  C   UNL     1       0.935   2.876  18.880  0.00  0.00    +0.000 A 
ATOM     29  C   UNL     1       1.127   2.721  20.220  0.00  0.00    +0.000 A 
ATOM     30  C   UNL     1       1.636   3.851  20.988  0.00  0.00    +0.000 A 
ATOM     31  C   UNL     1       1.882   5.352  20.372  0.00  0.00    +0.000 A 
ATOM     32  N   UNL     1       2.077   7.009  20.256  0.00  0.00    +0.000 NA
ENDBRANCH  22  23
ENDBRANCH  21  22
ENDBRANCH   9  21
TORSDOF 6
ENDMDL
MODEL 4
REMARK VINA RESULT:      -8.3      2.774      9.608
REMARK  Name = 
REMARK  9 active torsions:
REMARK  status: ('A' for Active; 'I' for Inactive)
REMARK    1  A    between atoms: C_1  and  O_2
REMARK    2  A    between atoms: O_2  and  C_3
REMARK    3  A    between atoms: C_7  and  C_8
REMARK    4  A    between atoms: C_8  and  C_9
REMARK    5  A    between atoms: C_8  and  C_10
REMARK    6  A    between atoms: N_11  and  C_12
REMARK    7  A    between atoms: C_20  and  O_21
REMARK    8  A    between atoms: O_21  and  C_22
REMARK    9  A    between atoms: C_22  and  C_23
REMARK                            x       y       z     vdW  Elec       q    Type
REMARK                         _______ _______ _______ _____ _____    ______ ____
ROOT
ATOM      1  C   UNL     1      -0.216  10.598  20.448  0.00  0.00    +0.000 A 
ATOM      2  C   UNL     1      -0.507  11.703  21.328  0.00  0.00    +0.000 A 
ATOM      3  C   UNL     1       0.213  12.890  21.204  0.00  0.00    +0.000 A 
ATOM      4  N   UNL     1       0.165  14.048  21.945  0.00  0.00    +0.000 NA
ATOM      5  C   UNL     1       1.066  14.864  21.424  0.00  0.00    +0.000 A 
ATOM      6  N   UNL     1       1.738  14.241  20.347  0.00  0.00    +0.000 N 
ATOM      7  C   UNL     1       1.154  12.974  20.194  0.00  0.00    +0.000 A 
ATOM      8  C   UNL     1       1.339  11.928  19.229  0.00  0.00    +0.000 A 
ATOM      9  C   UNL     1       0.636  10.739  19.297  0.00  0.00    +0.000 A 
ENDROOT
BRANCH   6  10
ATOM     10  C   UNL     1       2.784  14.712  19.520  0.00  0.00    +0.000 A 
ATOM     11  C   UNL     1       4.082  14.630  19.944  0.00  0.00    +0.000 A 
ATOM     12  C   UNL     1       5.114  15.229  19.194  0.00  0.00    +0.000 A 
ATOM     13  C   UNL     1       4.854  15.739  17.888  0.00  0.00    +0.000 A 
ATOM     14  C   UNL     1       3.565  15.685  17.426  0.00  0.00    +0.000 A 
ATOM     15  C   UNL     1       2.504  15.243  18.262  0.00  0.00    +0.000 A 
ENDBRANCH   6  10
BRANCH   5  16
ATOM     16  C   UNL     1       1.326  16.268  21.941  0.00  0.00    +0.000 C 
ATOM     17  C   UNL     1       0.707  17.288  20.984  0.00  0.00    +0.000 C 
ATOM     18  C   UNL     1       0.780  16.516  23.345  0.00  0.00    +0.000 C 
ENDBRANCH   5  16
BRANCH   1  20
ATOM     19  C   UNL     1      -0.317   8.795  22.001  0.00  0.00    +0.000 C 
ATOM     20  O   UNL     1      -0.779   9.372  20.758  0.00  0.00    +0.000 OA
ENDBRANCH   1  20
BRANCH   9  21
ATOM     21  O   UNL     1       0.828   9.766  18.311  0.00  0.00    +0.000 OA
BRANCH  21  22
ATOM     22  C   UNL     1       2.136   8.872  17.995  0.00  0.00    +0.000 C 
BRANCH  22  23
ATOM     23  C   UNL     1       2.409   7.529  19.017  0.00  0.00    +0.000 A 
ATOM     24  C   UNL     1       2.485   6.594  18.082  0.00  0.00    +0.000 A 
ATOM     25  C   UNL     1       3.138   5.553  18.606  0.00  0.00    +0.000 A 
ATOM     26  C   UNL     1       2.157   4.810  19.118  0.00  0.00    +0.000 A 
ATOM     27  C   UNL     1       1.643   3.869  18.223  0.00  0.00    +0.000 A 
ATOM     28  C   UNL     1       0.934   2.786  18.679  0.00  0.00    +0.000 A 
ATOM     29  C   UNL     1       1.053   2.572  20.019  0.00  0.00    +0.000 A 
ATOM     30  C   UNL     1       1.527   3.664  20.862  0.00  0.00    +0.000 A 
ATOM     31  C   UNL     1       1.813   5.188  20.325  0.00  0.00    +0.000 A 
ATOM     32  N   UNL     1       2.023   6.847  20.293  0.00  0.00    +0.000 NA
ENDBRANCH  22  23
ENDBRANCH  21  22
ENDBRANCH   9  21
TORSDOF 6
ENDMDL
MODEL 5
REMARK VINA RESULT:      -8.2      4.932      9.609
REMARK  Name = 
REMARK  9 active torsions:
REMARK  status: ('A' for Active; 'I' for Inactive)
REMARK    1  A    between atoms: C_1  and  O_2
REMARK    2  A    between atoms: O_2  and  C_3
REMARK    3  A    between atoms: C_7  and  C_8
REMARK    4  A    between atoms: C_8  and  C_9
REMARK    5  A    between atoms: C_8  and  C_10
REMARK    6  A    between atoms: N_11  and  C_12
REMARK    7  A    between atoms: C_20  and  O_21
REMARK    8  A    between atoms: O_21  and  C_22
REMARK    9  A    between atoms: C_22  and  C_23
REMARK                            x       y       z     vdW  Elec       q    Type
REMARK                         _______ _______ _______ _____ _____    ______ ____
ROOT
ATOM      1  C   UNL     1       6.399   5.277  17.398  0.00  0.00    +0.000 A 
ATOM      2  C   UNL     1       5.491   4.200  17.703  0.00  0.00    +0.000 A 
ATOM      3  C   UNL     1       4.263   4.483  18.299  0.00  0.00    +0.000 A 
ATOM      4  N   UNL     1       3.263   3.643  18.732  0.00  0.00    +0.000 NA
ATOM      5  C   UNL     1       2.317   4.417  19.238  0.00  0.00    +0.000 A 
ATOM      6  N   UNL     1       2.695   5.777  19.167  0.00  0.00    +0.000 N 
ATOM      7  C   UNL     1       3.944   5.809  18.527  0.00  0.00    +0.000 A 
ATOM      8  C   UNL     1       4.786   6.886  18.090  0.00  0.00    +0.000 A 
ATOM      9  C   UNL     1       6.004   6.659  17.477  0.00  0.00    +0.000 A 
ENDROOT
BRANCH   6  10
ATOM     10  C   UNL     1       2.025   6.942  19.606  0.00  0.00    +0.000 A 
ATOM     11  C   UNL     1       1.778   7.962  18.730  0.00  0.00    +0.000 A 
ATOM     12  C   UNL     1       1.245   9.183  19.191  0.00  0.00    +0.000 A 
ATOM     13  C   UNL     1       0.760   9.299  20.527  0.00  0.00    +0.000 A 
ATOM     14  C   UNL     1       0.893   8.214  21.352  0.00  0.00    +0.000 A 
ATOM     15  C   UNL     1       1.594   7.051  20.927  0.00  0.00    +0.000 A 
ENDBRANCH   6  10
BRANCH   5  16
ATOM     16  C   UNL     1       1.018   3.884  19.818  0.00  0.00    +0.000 C 
ATOM     17  C   UNL     1       0.445   2.813  18.888  0.00  0.00    +0.000 C 
ATOM     18  C   UNL     1       1.167   3.293  21.217  0.00  0.00    +0.000 C 
ENDBRANCH   5  16
BRANCH   1  20
ATOM     19  C   UNL     1       8.499   4.405  18.109  0.00  0.00    +0.000 C 
ATOM     20  O   UNL     1       7.690   4.937  17.034  0.00  0.00    +0.000 OA
ENDBRANCH   1  20
BRANCH   9  21
ATOM     21  O   UNL     1       6.770   7.743  17.039  0.00  0.00    +0.000 OA
BRANCH  21  22
ATOM     22  C   UNL     1       8.302   8.123  17.382  0.00  0.00    +0.000 C 
BRANCH  22  23
ATOM     23  C   UNL     1       8.544   9.462  18.417  0.00  0.00    +0.000 A 
ATOM     24  C   UNL     1       8.988  10.321  17.512  0.00  0.00    +0.000 A 
ATOM     25  C   UNL     1       8.811  11.551  18.004  0.00  0.00    +0.000 A 
ATOM     26  C   UNL     1       9.959  11.789  18.637  0.00  0.00    +0.000 A 
ATOM     27  C   UNL     1      10.927  12.393  17.832  0.00  0.00    +0.000 A 
ATOM     28  C   UNL     1      11.989  13.055  18.394  0.00  0.00    +0.000 A 
ATOM     29  C   UNL     1      11.836  13.318  19.722  0.00  0.00    +0.000 A 
ATOM     30  C   UNL     1      10.842  12.561  20.474  0.00  0.00    +0.000 A 
ATOM     31  C   UNL     1       9.970  11.314  19.859  0.00  0.00    +0.000 A 
ATOM     32  N   UNL     1       9.054   9.920  19.748  0.00  0.00    +0.000 NA
ENDBRANCH  22  23
ENDBRANCH  21  22
ENDBRANCH   9  21
TORSDOF 6
ENDMDL
MODEL 6
REMARK VINA RESULT:      -8.2      7.137     11.415
REMARK  Name = 
REMARK  9 active torsions:
REMARK  status: ('A' for Active; 'I' for Inactive)
REMARK    1  A    between atoms: C_1  and  O_2
REMARK    2  A    between atoms: O_2  and  C_3
REMARK    3  A    between atoms: C_7  and  C_8
REMARK    4  A    between atoms: C_8  and  C_9
REMARK    5  A    between atoms: C_8  and  C_10
REMARK    6  A    between atoms: N_11  and  C_12
REMARK    7  A    between atoms: C_20  and  O_21
REMARK    8  A    between atoms: O_21  and  C_22
REMARK    9  A    between atoms: C_22  and  C_23
REMARK                            x       y       z     vdW  Elec       q    Type
REMARK                         _______ _______ _______ _____ _____    ______ ____
ROOT
ATOM      1  C   UNL     1      10.146  12.160  19.182  0.00  0.00    +0.000 A 
ATOM      2  C   UNL     1      10.458  13.423  19.805  0.00  0.00    +0.000 A 
ATOM      3  C   UNL     1       9.935  13.716  21.063  0.00  0.00    +0.000 A 
ATOM      4  N   UNL     1      10.037  14.853  21.832  0.00  0.00    +0.000 NA
ATOM      5  C   UNL     1       9.342  14.622  22.934  0.00  0.00    +0.000 A 
ATOM      6  N   UNL     1       8.753  13.337  22.893  0.00  0.00    +0.000 N 
ATOM      7  C   UNL     1       9.171  12.748  21.690  0.00  0.00    +0.000 A 
ATOM      8  C   UNL     1       8.984  11.439  21.131  0.00  0.00    +0.000 A 
ATOM      9  C   UNL     1       9.498  11.092  19.895  0.00  0.00    +0.000 A 
ENDROOT
BRANCH   6  10
ATOM     10  C   UNL     1       7.913  12.681  23.821  0.00  0.00    +0.000 A 
ATOM     11  C   UNL     1       8.287  12.579  25.132  0.00  0.00    +0.000 A 
ATOM     12  C   UNL     1       7.529  11.801  26.030  0.00  0.00    +0.000 A 
ATOM     13  C   UNL     1       6.257  11.286  25.642  0.00  0.00    +0.000 A 
ATOM     14  C   UNL     1       5.838  11.519  24.359  0.00  0.00    +0.000 A 
ATOM     15  C   UNL     1       6.690  12.151  23.412  0.00  0.00    +0.000 A 
ENDBRANCH   6  10
BRANCH   5  16
ATOM     16  C   UNL     1       9.208  15.625  24.066  0.00  0.00    +0.000 C 
ATOM     17  C   UNL     1      10.382  16.606  24.022  0.00  0.00    +0.000 C 
ATOM     18  C   UNL     1       7.903  16.417  24.034  0.00  0.00    +0.000 C 
ENDBRANCH   5  16
BRANCH   1  20
ATOM     19  C   UNL     1      11.777  12.544  17.489  0.00  0.00    +0.000 C 
ATOM     20  O   UNL     1      10.483  12.009  17.848  0.00  0.00    +0.000 OA
ENDBRANCH   1  20
BRANCH   9  21
ATOM     21  O   UNL     1       9.317   9.792  19.413  0.00  0.00    +0.000 OA
BRANCH  21  22
ATOM     22  C   UNL     1       8.416   9.274  18.176  0.00  0.00    +0.000 C 
BRANCH  22  23
ATOM     23  C   UNL     1       8.003   7.615  18.175  0.00  0.00    +0.000 A 
ATOM     24  C   UNL     1       7.007   7.669  17.303  0.00  0.00    +0.000 A 
ATOM     25  C   UNL     1       6.834   6.439  16.811  0.00  0.00    +0.000 A 
ATOM     26  C   UNL     1       5.937   5.907  17.640  0.00  0.00    +0.000 A 
ATOM     27  C   UNL     1       4.615   6.111  17.239  0.00  0.00    +0.000 A 
ATOM     28  C   UNL     1       3.606   5.321  17.731  0.00  0.00    +0.000 A 
ATOM     29  C   UNL     1       4.044   4.193  18.358  0.00  0.00    +0.000 A 
ATOM     30  C   UNL     1       5.431   4.134  18.802  0.00  0.00    +0.000 A 
ATOM     31  C   UNL     1       6.485   5.389  18.713  0.00  0.00    +0.000 A 
ATOM     32  N   UNL     1       7.788   6.392  19.013  0.00  0.00    +0.000 NA
ENDBRANCH  22  23
ENDBRANCH  21  22
ENDBRANCH   9  21
TORSDOF 6
ENDMDL
MODEL 7
REMARK VINA RESULT:      -8.2      1.149      1.762
REMARK  Name = 
REMARK  9 active torsions:
REMARK  status: ('A' for Active; 'I' for Inactive)
REMARK    1  A    between atoms: C_1  and  O_2
REMARK    2  A    between atoms: O_2  and  C_3
REMARK    3  A    between atoms: C_7  and  C_8
REMARK    4  A    between atoms: C_8  and  C_9
REMARK    5  A    between atoms: C_8  and  C_10
REMARK    6  A    between atoms: N_11  and  C_12
REMARK    7  A    between atoms: C_20  and  O_21
REMARK    8  A    between atoms: O_21  and  C_22
REMARK    9  A    between atoms: C_22  and  C_23
REMARK                            x       y       z     vdW  Elec       q    Type
REMARK                         _______ _______ _______ _____ _____    ______ ____
ROOT
ATOM      1  C   UNL     1       1.487  10.167  18.903  0.00  0.00    +0.000 A 
ATOM      2  C   UNL     1       2.444   9.627  17.969  0.00  0.00    +0.000 A 
ATOM      3  C   UNL     1       2.747   8.267  18.004  0.00  0.00    +0.000 A 
ATOM      4  N   UNL     1       3.650   7.532  17.271  0.00  0.00    +0.000 NA
ATOM      5  C   UNL     1       3.558   6.286  17.705  0.00  0.00    +0.000 A 
ATOM      6  N   UNL     1       2.610   6.190  18.749  0.00  0.00    +0.000 N 
ATOM      7  C   UNL     1       2.068   7.475  18.912  0.00  0.00    +0.000 A 
ATOM      8  C   UNL     1       1.013   7.988  19.738  0.00  0.00    +0.000 A 
ATOM      9  C   UNL     1       0.660   9.325  19.727  0.00  0.00    +0.000 A 
ENDROOT
BRANCH   6  10
ATOM     10  C   UNL     1       2.206   5.080  19.526  0.00  0.00    +0.000 A 
ATOM     11  C   UNL     1       1.410   4.114  18.978  0.00  0.00    +0.000 A 
ATOM     12  C   UNL     1       0.883   3.084  19.783  0.00  0.00    +0.000 A 
ATOM     13  C   UNL     1       1.338   2.913  21.124  0.00  0.00    +0.000 A 
ATOM     14  C   UNL     1       2.245   3.817  21.611  0.00  0.00    +0.000 A 
ATOM     15  C   UNL     1       2.631   4.952  20.847  0.00  0.00    +0.000 A 
ENDBRANCH   6  10
BRANCH   5  16
ATOM     16  C   UNL     1       4.381   5.139  17.143  0.00  0.00    +0.000 C 
ATOM     17  C   UNL     1       5.153   5.619  15.913  0.00  0.00    +0.000 C 
ATOM     18  C   UNL     1       5.368   4.544  18.144  0.00  0.00    +0.000 C 
ENDBRANCH   5  16
BRANCH   1  20
ATOM     19  C   UNL     1       2.398  12.266  18.243  0.00  0.00    +0.000 C 
ATOM     20  O   UNL     1       1.395  11.545  18.994  0.00  0.00    +0.000 OA
ENDBRANCH   1  20
BRANCH   9  21
ATOM     21  O   UNL     1      -0.399   9.767  20.526  0.00  0.00    +0.000 OA
BRANCH  21  22
ATOM     22  C   UNL     1      -0.361  10.584  21.919  0.00  0.00    +0.000 C 
BRANCH  22  23
ATOM     23  C   UNL     1      -1.514  11.833  22.102  0.00  0.00    +0.000 A 
ATOM     24  C   UNL     1      -0.697  12.779  22.541  0.00  0.00    +0.000 A 
ATOM     25  C   UNL     1      -1.289  13.956  22.321  0.00  0.00    +0.000 A 
ATOM     26  C   UNL     1      -1.967  14.168  23.448  0.00  0.00    +0.000 A 
ATOM     27  C   UNL     1      -1.239  14.864  24.416  0.00  0.00    +0.000 A 
ATOM     28  C   UNL     1      -1.881  15.502  25.448  0.00  0.00    +0.000 A 
ATOM     29  C   UNL     1      -3.222  15.644  25.260  0.00  0.00    +0.000 A 
ATOM     30  C   UNL     1      -3.883  14.799  24.272  0.00  0.00    +0.000 A 
ATOM     31  C   UNL     1      -3.143  13.589  23.447  0.00  0.00    +0.000 A 
ATOM     32  N   UNL     1      -2.891  12.187  22.572  0.00  0.00    +0.000 NA
ENDBRANCH  22  23
ENDBRANCH  21  22
ENDBRANCH   9  21
TORSDOF 6
ENDMDL
MODEL 8
REMARK VINA RESULT:      -8.2      4.649      9.075
REMARK  Name = 
REMARK  9 active torsions:
REMARK  status: ('A' for Active; 'I' for Inactive)
REMARK    1  A    between atoms: C_1  and  O_2
REMARK    2  A    between atoms: O_2  and  C_3
REMARK    3  A    between atoms: C_7  and  C_8
REMARK    4  A    between atoms: C_8  and  C_9
REMARK    5  A    between atoms: C_8  and  C_10
REMARK    6  A    between atoms: N_11  and  C_12
REMARK    7  A    between atoms: C_20  and  O_21
REMARK    8  A    between atoms: O_21  and  C_22
REMARK    9  A    between atoms: C_22  and  C_23
REMARK                            x       y       z     vdW  Elec       q    Type
REMARK                         _______ _______ _______ _____ _____    ______ ____
ROOT
ATOM      1  C   UNL     1       6.418   5.529  16.913  0.00  0.00    +0.000 A 
ATOM      2  C   UNL     1       5.472   4.451  17.065  0.00  0.00    +0.000 A 
ATOM      3  C   UNL     1       4.272   4.679  17.737  0.00  0.00    +0.000 A 
ATOM      4  N   UNL     1       3.248   3.818  18.057  0.00  0.00    +0.000 NA
ATOM      5  C   UNL     1       2.348   4.533  18.712  0.00  0.00    +0.000 A 
ATOM      6  N   UNL     1       2.782   5.872  18.853  0.00  0.00    +0.000 N 
ATOM      7  C   UNL     1       4.015   5.961  18.188  0.00  0.00    +0.000 A 
ATOM      8  C   UNL     1       4.891   7.062  17.907  0.00  0.00    +0.000 A 
ATOM      9  C   UNL     1       6.084   6.893  17.228  0.00  0.00    +0.000 A 
ENDROOT
BRANCH   6  10
ATOM     10  C   UNL     1       2.173   6.973  19.496  0.00  0.00    +0.000 A 
ATOM     11  C   UNL     1       1.895   6.918  20.833  0.00  0.00    +0.000 A 
ATOM     12  C   UNL     1       1.157   7.948  21.451  0.00  0.00    +0.000 A 
ATOM     13  C   UNL     1       0.874   9.154  20.745  0.00  0.00    +0.000 A 
ATOM     14  C   UNL     1       1.284   9.243  19.441  0.00  0.00    +0.000 A 
ATOM     15  C   UNL     1       1.869   8.129  18.778  0.00  0.00    +0.000 A 
ENDBRANCH   6  10
BRANCH   5  16
ATOM     16  C   UNL     1       1.042   3.962  19.236  0.00  0.00    +0.000 C 
ATOM     17  C   UNL     1       0.693   2.690  18.461  0.00  0.00    +0.000 C 
ATOM     18  C   UNL     1       1.068   3.639  20.727  0.00  0.00    +0.000 C 
ENDBRANCH   5  16
BRANCH   1  20
ATOM     19  C   UNL     1       7.767   4.952  15.037  0.00  0.00    +0.000 C 
ATOM     20  O   UNL     1       7.684   5.205  16.458  0.00  0.00    +0.000 OA
ENDBRANCH   1  20
BRANCH   9  21
ATOM     21  O   UNL     1       6.884   8.005  16.950  0.00  0.00    +0.000 OA
BRANCH  21  22
ATOM     22  C   UNL     1       8.136   8.601  17.779  0.00  0.00    +0.000 C 
BRANCH  22  23
ATOM     23  C   UNL     1       8.470  10.264  17.566  0.00  0.00    +0.000 A 
ATOM     24  C   UNL     1       9.516  10.351  18.375  0.00  0.00    +0.000 A 
ATOM     25  C   UNL     1      10.210  11.436  18.021  0.00  0.00    +0.000 A 
ATOM     26  C   UNL     1       9.679  12.393  18.781  0.00  0.00    +0.000 A 
ATOM     27  C   UNL     1      10.317  12.548  20.013  0.00  0.00    +0.000 A 
ATOM     28  C   UNL     1      10.174  13.707  20.734  0.00  0.00    +0.000 A 
ATOM     29  C   UNL     1       9.642  14.738  20.021  0.00  0.00    +0.000 A 
ATOM     30  C   UNL     1       8.926  14.438  18.786  0.00  0.00    +0.000 A 
ATOM     31  C   UNL     1       8.603  12.921  18.250  0.00  0.00    +0.000 A 
ATOM     32  N   UNL     1       7.887  11.639  17.452  0.00  0.00    +0.000 NA
ENDBRANCH  22  23
ENDBRANCH  21  22
ENDBRANCH   9  21
TORSDOF 6
ENDMDL
MODEL 9
REMARK VINA RESULT:      -8.2      2.820      9.763
REMARK  Name = 
REMARK  9 active torsions:
REMARK  status: ('A' for Active; 'I' for Inactive)
REMARK    1  A    between atoms: C_1  and  O_2
REMARK    2  A    between atoms: O_2  and  C_3
REMARK    3  A    between atoms: C_7  and  C_8
REMARK    4  A    between atoms: C_8  and  C_9
REMARK    5  A    between atoms: C_8  and  C_10
REMARK    6  A    between atoms: N_11  and  C_12
REMARK    7  A    between atoms: C_20  and  O_21
REMARK    8  A    between atoms: O_21  and  C_22
REMARK    9  A    between atoms: C_22  and  C_23
REMARK                            x       y       z     vdW  Elec       q    Type
REMARK                         _______ _______ _______ _____ _____    ______ ____
ROOT
ATOM      1  C   UNL     1      -3.090  10.327  16.855  0.00  0.00    +0.000 A 
ATOM      2  C   UNL     1      -4.301  11.097  16.992  0.00  0.00    +0.000 A 
ATOM      3  C   UNL     1      -4.488  11.890  18.124  0.00  0.00    +0.000 A 
ATOM      4  N   UNL     1      -5.560  12.661  18.510  0.00  0.00    +0.000 NA
ATOM      5  C   UNL     1      -5.235  13.198  19.674  0.00  0.00    +0.000 A 
ATOM      6  N   UNL     1      -3.952  12.765  20.082  0.00  0.00    +0.000 N 
ATOM      7  C   UNL     1      -3.465  11.944  19.053  0.00  0.00    +0.000 A 
ATOM      8  C   UNL     1      -2.204  11.292  18.843  0.00  0.00    +0.000 A 
ATOM      9  C   UNL     1      -1.961  10.510  17.729  0.00  0.00    +0.000 A 
ENDROOT
BRANCH   6  10
ATOM     10  C   UNL     1      -3.215  13.050  21.254  0.00  0.00    +0.000 A 
ATOM     11  C   UNL     1      -2.174  13.935  21.210  0.00  0.00    +0.000 A 
ATOM     12  C   UNL     1      -1.343  14.113  22.335  0.00  0.00    +0.000 A 
ATOM     13  C   UNL     1      -1.699  13.540  23.592  0.00  0.00    +0.000 A 
ATOM     14  C   UNL     1      -2.827  12.765  23.644  0.00  0.00    +0.000 A 
ATOM     15  C   UNL     1      -3.556  12.449  22.464  0.00  0.00    +0.000 A 
ENDBRANCH   6  10
BRANCH   5  16
ATOM     16  C   UNL     1      -6.143  14.139  20.446  0.00  0.00    +0.000 C 
ATOM     17  C   UNL     1      -5.660  15.579  20.265  0.00  0.00    +0.000 C 
ATOM     18  C   UNL     1      -7.610  14.055  20.032  0.00  0.00    +0.000 C 
ENDBRANCH   5  16
BRANCH   1  20
ATOM     19  C   UNL     1      -3.053   9.923  14.508  0.00  0.00    +0.000 C 
ATOM     20  O   UNL     1      -3.050   9.378  15.848  0.00  0.00    +0.000 OA
ENDBRANCH   1  20
BRANCH   9  21
ATOM     21  O   UNL     1      -0.703   9.926  17.556  0.00  0.00    +0.000 OA
BRANCH  21  22
ATOM     22  C   UNL     1       0.716  10.334  18.211  0.00  0.00    +0.000 C 
BRANCH  22  23
ATOM     23  C   UNL     1       1.551   9.103  19.054  0.00  0.00    +0.000 A 
ATOM     24  C   UNL     1       1.877   8.351  18.013  0.00  0.00    +0.000 A 
ATOM     25  C   UNL     1       2.908   7.584  18.378  0.00  0.00    +0.000 A 
ATOM     26  C   UNL     1       2.315   6.488  18.850  0.00  0.00    +0.000 A 
ATOM     27  C   UNL     1       2.100   5.507  17.879  0.00  0.00    +0.000 A 
ATOM     28  C   UNL     1       1.878   4.202  18.241  0.00  0.00    +0.000 A 
ATOM     29  C   UNL     1       2.188   3.929  19.539  0.00  0.00    +0.000 A 
ATOM     30  C   UNL     1       2.307   5.039  20.478  0.00  0.00    +0.000 A 
ATOM     31  C   UNL     1       1.970   6.602  20.109  0.00  0.00    +0.000 A 
ATOM     32  N   UNL     1       1.558   8.215  20.259  0.00  0.00    +0.000 NA
ENDBRANCH  22  23
ENDBRANCH  21  22
ENDBRANCH   9  21
TORSDOF 6
ENDMDL
