MODEL 1
REMARK VINA RESULT:      -6.5      0.000      0.000
REMARK  Name = 
REMARK  3 active torsions:
REMARK  status: ('A' for Active; 'I' for Inactive)
REMARK    1  A    between atoms: C_1  and  C_2
REMARK    2  A    between atoms: C_7  and  O_8
REMARK    3  A    between atoms: O_8  and  C_9
REMARK                            x       y       z     vdW  Elec       q    Type
REMARK                         _______ _______ _______ _____ _____    ______ ____
ROOT
ATOM      1  C   UNL     1       4.873   6.667  15.836  0.00  0.00    +0.000 C 
ATOM      2  C   UNL     1       5.603   5.963  16.943  0.00  0.00    +0.000 A 
ATOM      3  C   UNL     1       6.866   5.412  16.689  0.00  0.00    +0.000 A 
ATOM      4  C   UNL     1       7.554   4.793  17.721  0.00  0.00    +0.000 A 
ATOM      5  N   UNL     1       7.094   4.713  18.984  0.00  0.00    +0.000 NA
ATOM      6  C   UNL     1       5.867   5.237  19.208  0.00  0.00    +0.000 A 
ATOM      7  C   UNL     1       5.058   5.807  18.225  0.00  0.00    +0.000 A 
ENDROOT
BRANCH   7   8
ATOM      8  O   UNL     1       3.776   6.253  18.469  0.00  0.00    +0.000 OA
BRANCH   8   9
ATOM      9  C   UNL     1       2.817   5.326  18.829  0.00  0.00    +0.000 A 
ATOM     10  C   UNL     1       2.301   5.418  20.124  0.00  0.00    +0.000 A 
ATOM     11  C   UNL     1       1.354   4.490  20.565  0.00  0.00    +0.000 A 
ATOM     12  C   UNL     1       0.921   3.471  19.719  0.00  0.00    +0.000 A 
ATOM     13  C   UNL     1       1.408   3.400  18.414  0.00  0.00    +0.000 A 
ATOM     14  C   UNL     1       2.333   4.342  17.961  0.00  0.00    +0.000 A 
ENDBRANCH   8   9
ENDBRANCH   7   8
TORSDOF 2
ENDMDL
MODEL 2
REMARK VINA RESULT:      -6.5      0.925      1.073
REMARK  Name = 
REMARK  3 active torsions:
REMARK  status: ('A' for Active; 'I' for Inactive)
REMARK    1  A    between atoms: C_1  and  C_2
REMARK    2  A    between atoms: C_7  and  O_8
REMARK    3  A    between atoms: O_8  and  C_9
REMARK                            x       y       z     vdW  Elec       q    Type
REMARK                         _______ _______ _______ _____ _____    ______ ____
ROOT
ATOM      1  C   UNL     1       5.234   6.367  15.683  0.00  0.00    +0.000 C 
ATOM      2  C   UNL     1       5.721   5.964  17.044  0.00  0.00    +0.000 A 
ATOM      3  C   UNL     1       7.099   5.862  17.275  0.00  0.00    +0.000 A 
ATOM      4  C   UNL     1       7.550   5.523  18.542  0.00  0.00    +0.000 A 
ATOM      5  N   UNL     1       6.736   5.316  19.594  0.00  0.00    +0.000 NA
ATOM      6  C   UNL     1       5.409   5.405  19.350  0.00  0.00    +0.000 A 
ATOM      7  C   UNL     1       4.849   5.656  18.096  0.00  0.00    +0.000 A 
ENDROOT
BRANCH   7   8
ATOM      8  O   UNL     1       3.489   5.654  17.864  0.00  0.00    +0.000 OA
BRANCH   8   9
ATOM      9  C   UNL     1       2.779   4.503  18.144  0.00  0.00    +0.000 A 
ATOM     10  C   UNL     1       1.816   4.582  19.152  0.00  0.00    +0.000 A 
ATOM     11  C   UNL     1       1.086   3.445  19.511  0.00  0.00    +0.000 A 
ATOM     12  C   UNL     1       1.314   2.232  18.867  0.00  0.00    +0.000 A 
ATOM     13  C   UNL     1       2.249   2.160  17.834  0.00  0.00    +0.000 A 
ATOM     14  C   UNL     1       2.960   3.299  17.455  0.00  0.00    +0.000 A 
ENDBRANCH   8   9
ENDBRANCH   7   8
TORSDOF 2
ENDMDL
MODEL 3
REMARK VINA RESULT:      -6.5      1.068      1.658
REMARK  Name = 
REMARK  3 active torsions:
REMARK  status: ('A' for Active; 'I' for Inactive)
REMARK    1  A    between atoms: C_1  and  C_2
REMARK    2  A    between atoms: C_7  and  O_8
REMARK    3  A    between atoms: O_8  and  C_9
REMARK                            x       y       z     vdW  Elec       q    Type
REMARK                         _______ _______ _______ _____ _____    ______ ____
ROOT
ATOM      1  C   UNL     1       5.297   4.575  15.201  0.00  0.00    +0.000 C 
ATOM      2  C   UNL     1       5.795   4.761  16.604  0.00  0.00    +0.000 A 
ATOM      3  C   UNL     1       7.148   4.532  16.886  0.00  0.00    +0.000 A 
ATOM      4  C   UNL     1       7.616   4.738  18.175  0.00  0.00    +0.000 A 
ATOM      5  N   UNL     1       6.848   5.185  19.187  0.00  0.00    +0.000 NA
ATOM      6  C   UNL     1       5.541   5.388  18.900  0.00  0.00    +0.000 A 
ATOM      7  C   UNL     1       4.953   5.132  17.661  0.00  0.00    +0.000 A 
ENDROOT
BRANCH   7   8
ATOM      8  O   UNL     1       3.600   5.267  17.427  0.00  0.00    +0.000 OA
BRANCH   8   9
ATOM      9  C   UNL     1       2.728   4.475  18.149  0.00  0.00    +0.000 A 
ATOM     10  C   UNL     1       2.545   3.164  17.703  0.00  0.00    +0.000 A 
ATOM     11  C   UNL     1       1.650   2.319  18.366  0.00  0.00    +0.000 A 
ATOM     12  C   UNL     1       0.939   2.779  19.472  0.00  0.00    +0.000 A 
ATOM     13  C   UNL     1       1.148   4.076  19.941  0.00  0.00    +0.000 A 
ATOM     14  C   UNL     1       2.062   4.913  19.298  0.00  0.00    +0.000 A 
ENDBRANCH   8   9
ENDBRANCH   7   8
TORSDOF 2
ENDMDL
MODEL 4
REMARK VINA RESULT:      -6.3      1.539      1.847
REMARK  Name = 
REMARK  3 active torsions:
REMARK  status: ('A' for Active; 'I' for Inactive)
REMARK    1  A    between atoms: C_1  and  C_2
REMARK    2  A    between atoms: C_7  and  O_8
REMARK    3  A    between atoms: O_8  and  C_9
REMARK                            x       y       z     vdW  Elec       q    Type
REMARK                         _______ _______ _______ _____ _____    ______ ____
ROOT
ATOM      1  C   UNL     1       5.848   4.170  14.624  0.00  0.00    +0.000 C 
ATOM      2  C   UNL     1       6.110   4.306  16.096  0.00  0.00    +0.000 A 
ATOM      3  C   UNL     1       7.420   4.530  16.541  0.00  0.00    +0.000 A 
ATOM      4  C   UNL     1       7.656   4.690  17.898  0.00  0.00    +0.000 A 
ATOM      5  N   UNL     1       6.686   4.678  18.832  0.00  0.00    +0.000 NA
ATOM      6  C   UNL     1       5.430   4.446  18.386  0.00  0.00    +0.000 A 
ATOM      7  C   UNL     1       5.096   4.190  17.056  0.00  0.00    +0.000 A 
ENDROOT
BRANCH   7   8
ATOM      8  O   UNL     1       3.817   3.871  16.648  0.00  0.00    +0.000 OA
BRANCH   8   9
ATOM      9  C   UNL     1       2.902   3.482  17.607  0.00  0.00    +0.000 A 
ATOM     10  C   UNL     1       2.160   4.493  18.222  0.00  0.00    +0.000 A 
ATOM     11  C   UNL     1       1.242   4.173  19.226  0.00  0.00    +0.000 A 
ATOM     12  C   UNL     1       1.062   2.847  19.617  0.00  0.00    +0.000 A 
ATOM     13  C   UNL     1       1.775   1.833  18.978  0.00  0.00    +0.000 A 
ATOM     14  C   UNL     1       2.672   2.147  17.956  0.00  0.00    +0.000 A 
ENDBRANCH   8   9
ENDBRANCH   7   8
TORSDOF 2
ENDMDL
MODEL 5
REMARK VINA RESULT:      -6.3      1.793      5.117
REMARK  Name = 
REMARK  3 active torsions:
REMARK  status: ('A' for Active; 'I' for Inactive)
REMARK    1  A    between atoms: C_1  and  C_2
REMARK    2  A    between atoms: C_7  and  O_8
REMARK    3  A    between atoms: O_8  and  C_9
REMARK                            x       y       z     vdW  Elec       q    Type
REMARK                         _______ _______ _______ _____ _____    ______ ____
ROOT
ATOM      1  C   UNL     1       1.661   5.533  20.575  0.00  0.00    +0.000 C 
ATOM      2  C   UNL     1       1.836   4.457  19.543  0.00  0.00    +0.000 A 
ATOM      3  C   UNL     1       1.303   3.184  19.784  0.00  0.00    +0.000 A 
ATOM      4  C   UNL     1       1.434   2.200  18.816  0.00  0.00    +0.000 A 
ATOM      5  N   UNL     1       2.024   2.401  17.622  0.00  0.00    +0.000 NA
ATOM      6  C   UNL     1       2.546   3.631  17.412  0.00  0.00    +0.000 A 
ATOM      7  C   UNL     1       2.541   4.664  18.350  0.00  0.00    +0.000 A 
ENDROOT
BRANCH   7   8
ATOM      8  O   UNL     1       3.159   5.879  18.137  0.00  0.00    +0.000 OA
BRANCH   8   9
ATOM      9  C   UNL     1       4.539   5.928  18.183  0.00  0.00    +0.000 A 
ATOM     10  C   UNL     1       5.183   6.622  17.157  0.00  0.00    +0.000 A 
ATOM     11  C   UNL     1       6.580   6.681  17.123  0.00  0.00    +0.000 A 
ATOM     12  C   UNL     1       7.333   6.050  18.110  0.00  0.00    +0.000 A 
ATOM     13  C   UNL     1       6.691   5.389  19.156  0.00  0.00    +0.000 A 
ATOM     14  C   UNL     1       5.297   5.352  19.208  0.00  0.00    +0.000 A 
ENDBRANCH   8   9
ENDBRANCH   7   8
TORSDOF 2
ENDMDL
MODEL 6
REMARK VINA RESULT:      -6.2      1.787      5.032
REMARK  Name = 
REMARK  3 active torsions:
REMARK  status: ('A' for Active; 'I' for Inactive)
REMARK    1  A    between atoms: C_1  and  C_2
REMARK    2  A    between atoms: C_7  and  O_8
REMARK    3  A    between atoms: O_8  and  C_9
REMARK                            x       y       z     vdW  Elec       q    Type
REMARK                         _______ _______ _______ _____ _____    ______ ____
ROOT
ATOM      1  C   UNL     1       1.673   5.713  20.626  0.00  0.00    +0.000 C 
ATOM      2  C   UNL     1       1.777   4.620  19.602  0.00  0.00    +0.000 A 
ATOM      3  C   UNL     1       1.201   3.372  19.872  0.00  0.00    +0.000 A 
ATOM      4  C   UNL     1       1.267   2.373  18.912  0.00  0.00    +0.000 A 
ATOM      5  N   UNL     1       1.829   2.538  17.700  0.00  0.00    +0.000 NA
ATOM      6  C   UNL     1       2.393   3.745  17.461  0.00  0.00    +0.000 A 
ATOM      7  C   UNL     1       2.455   4.787  18.387  0.00  0.00    +0.000 A 
ENDROOT
BRANCH   7   8
ATOM      8  O   UNL     1       3.114   5.974  18.142  0.00  0.00    +0.000 OA
BRANCH   8   9
ATOM      9  C   UNL     1       4.494   5.959  18.095  0.00  0.00    +0.000 A 
ATOM     10  C   UNL     1       5.159   5.384  19.180  0.00  0.00    +0.000 A 
ATOM     11  C   UNL     1       6.557   5.367  19.214  0.00  0.00    +0.000 A 
ATOM     12  C   UNL     1       7.291   5.923  18.168  0.00  0.00    +0.000 A 
ATOM     13  C   UNL     1       6.629   6.465  17.067  0.00  0.00    +0.000 A 
ATOM     14  C   UNL     1       5.234   6.458  17.018  0.00  0.00    +0.000 A 
ENDBRANCH   8   9
ENDBRANCH   7   8
TORSDOF 2
ENDMDL
MODEL 7
REMARK VINA RESULT:      -6.2      1.007      1.092
REMARK  Name = 
REMARK  3 active torsions:
REMARK  status: ('A' for Active; 'I' for Inactive)
REMARK    1  A    between atoms: C_1  and  C_2
REMARK    2  A    between atoms: C_7  and  O_8
REMARK    3  A    between atoms: O_8  and  C_9
REMARK                            x       y       z     vdW  Elec       q    Type
REMARK                         _______ _______ _______ _____ _____    ______ ____
ROOT
ATOM      1  C   UNL     1       5.073   6.763  15.979  0.00  0.00    +0.000 C 
ATOM      2  C   UNL     1       5.669   6.192  17.233  0.00  0.00    +0.000 A 
ATOM      3  C   UNL     1       6.980   6.536  17.586  0.00  0.00    +0.000 A 
ATOM      4  C   UNL     1       7.518   6.036  18.763  0.00  0.00    +0.000 A 
ATOM      5  N   UNL     1       6.838   5.253  19.621  0.00  0.00    +0.000 NA
ATOM      6  C   UNL     1       5.579   4.918  19.257  0.00  0.00    +0.000 A 
ATOM      7  C   UNL     1       4.973   5.298  18.059  0.00  0.00    +0.000 A 
ENDROOT
BRANCH   7   8
ATOM      8  O   UNL     1       3.719   4.868  17.678  0.00  0.00    +0.000 OA
BRANCH   8   9
ATOM      9  C   UNL     1       2.870   4.383  18.654  0.00  0.00    +0.000 A 
ATOM     10  C   UNL     1       2.258   5.323  19.486  0.00  0.00    +0.000 A 
ATOM     11  C   UNL     1       1.415   4.898  20.517  0.00  0.00    +0.000 A 
ATOM     12  C   UNL     1       1.180   3.540  20.718  0.00  0.00    +0.000 A 
ATOM     13  C   UNL     1       1.761   2.602  19.865  0.00  0.00    +0.000 A 
ATOM     14  C   UNL     1       2.581   3.024  18.817  0.00  0.00    +0.000 A 
ENDBRANCH   8   9
ENDBRANCH   7   8
TORSDOF 2
ENDMDL
MODEL 8
REMARK VINA RESULT:      -6.1      1.214      1.468
REMARK  Name = 
REMARK  3 active torsions:
REMARK  status: ('A' for Active; 'I' for Inactive)
REMARK    1  A    between atoms: C_1  and  C_2
REMARK    2  A    between atoms: C_7  and  O_8
REMARK    3  A    between atoms: O_8  and  C_9
REMARK                            x       y       z     vdW  Elec       q    Type
REMARK                         _______ _______ _______ _____ _____    ______ ____
ROOT
ATOM      1  C   UNL     1       3.454   7.449  17.703  0.00  0.00    +0.000 C 
ATOM      2  C   UNL     1       4.533   6.441  17.433  0.00  0.00    +0.000 A 
ATOM      3  C   UNL     1       5.216   6.481  16.211  0.00  0.00    +0.000 A 
ATOM      4  C   UNL     1       6.237   5.572  15.976  0.00  0.00    +0.000 A 
ATOM      5  N   UNL     1       6.646   4.658  16.876  0.00  0.00    +0.000 NA
ATOM      6  C   UNL     1       5.965   4.624  18.045  0.00  0.00    +0.000 A 
ATOM      7  C   UNL     1       4.872   5.436  18.349  0.00  0.00    +0.000 A 
ENDROOT
BRANCH   7   8
ATOM      8  O   UNL     1       4.146   5.316  19.516  0.00  0.00    +0.000 OA
BRANCH   8   9
ATOM      9  C   UNL     1       3.016   4.521  19.506  0.00  0.00    +0.000 A 
ATOM     10  C   UNL     1       2.294   4.431  20.698  0.00  0.00    +0.000 A 
ATOM     11  C   UNL     1       1.161   3.616  20.768  0.00  0.00    +0.000 A 
ATOM     12  C   UNL     1       0.747   2.891  19.652  0.00  0.00    +0.000 A 
ATOM     13  C   UNL     1       1.445   3.009  18.451  0.00  0.00    +0.000 A 
ATOM     14  C   UNL     1       2.561   3.844  18.370  0.00  0.00    +0.000 A 
ENDBRANCH   8   9
ENDBRANCH   7   8
TORSDOF 2
ENDMDL
MODEL 9
REMARK VINA RESULT:      -6.1      1.554      2.203
REMARK  Name = 
REMARK  3 active torsions:
REMARK  status: ('A' for Active; 'I' for Inactive)
REMARK    1  A    between atoms: C_1  and  C_2
REMARK    2  A    between atoms: C_7  and  O_8
REMARK    3  A    between atoms: O_8  and  C_9
REMARK                            x       y       z     vdW  Elec       q    Type
REMARK                         _______ _______ _______ _____ _____    ______ ____
ROOT
ATOM      1  C   UNL     1       3.306   7.689  17.665  0.00  0.00    +0.000 C 
ATOM      2  C   UNL     1       4.172   6.507  17.339  0.00  0.00    +0.000 A 
ATOM      3  C   UNL     1       5.495   6.720  16.929  0.00  0.00    +0.000 A 
ATOM      4  C   UNL     1       6.305   5.626  16.662  0.00  0.00    +0.000 A 
ATOM      5  N   UNL     1       5.906   4.348  16.806  0.00  0.00    +0.000 NA
ATOM      6  C   UNL     1       4.622   4.162  17.188  0.00  0.00    +0.000 A 
ATOM      7  C   UNL     1       3.702   5.189  17.401  0.00  0.00    +0.000 A 
ENDROOT
BRANCH   7   8
ATOM      8  O   UNL     1       2.376   4.961  17.706  0.00  0.00    +0.000 OA
BRANCH   8   9
ATOM      9  C   UNL     1       2.078   4.305  18.885  0.00  0.00    +0.000 A 
ATOM     10  C   UNL     1       1.390   3.095  18.780  0.00  0.00    +0.000 A 
ATOM     11  C   UNL     1       1.025   2.396  19.935  0.00  0.00    +0.000 A 
ATOM     12  C   UNL     1       1.346   2.903  21.192  0.00  0.00    +0.000 A 
ATOM     13  C   UNL     1       2.065   4.093  21.298  0.00  0.00    +0.000 A 
ATOM     14  C   UNL     1       2.455   4.778  20.146  0.00  0.00    +0.000 A 
ENDBRANCH   8   9
ENDBRANCH   7   8
TORSDOF 2
ENDMDL
