MODEL 1
REMARK VINA RESULT:      -7.2      0.000      0.000
REMARK  Name = 
REMARK  7 active torsions:
REMARK  status: ('A' for Active; 'I' for Inactive)
REMARK    1  A    between atoms: C_1  and  O_2
REMARK    2  A    between atoms: O_2  and  C_3
REMARK    3  A    between atoms: C_8  and  C_9
REMARK    4  A    between atoms: C_13  and  C_14
REMARK    5  A    between atoms: N_15  and  C_16
REMARK    6  A    between atoms: C_21  and  O_22
REMARK    7  A    between atoms: O_22  and  C_23
REMARK                            x       y       z     vdW  Elec       q    Type
REMARK                         _______ _______ _______ _____ _____    ______ ____
ROOT
ATOM      1  C   UNL     1       2.499   6.234  19.424  0.00  0.00    +0.000 C 
ATOM      2  O   UNL     1       3.474   6.242  18.667  0.00  0.00    +0.000 OA
ATOM      3  N   UNL     1       1.878   7.421  19.856  0.00  0.00    +0.000 N 
ATOM      4  C   UNL     1       1.278   7.582  21.081  0.00  0.00    +0.000 A 
ATOM      5  C   UNL     1       0.652   8.761  21.161  0.00  0.00    +0.000 A 
ATOM      6  C   UNL     1      -0.187   9.142  22.330  0.00  0.00    +0.000 C 
ATOM      7  N   UNL     1       0.817   9.480  19.963  0.00  0.00    +0.000 N 
ATOM      8  C   UNL     1       1.724   8.688  19.125  0.00  0.00    +0.000 A 
ATOM      9  S   UNL     1       2.565   9.133  17.752  0.00  0.00    +0.000 S 
ENDROOT
BRANCH   1  15
ATOM     10  C   UNL     1       1.602   3.794  19.124  0.00  0.00    +0.000 A 
ATOM     11  C   UNL     1       1.394   2.538  19.730  0.00  0.00    +0.000 A 
ATOM     12  C   UNL     1       1.643   2.332  21.088  0.00  0.00    +0.000 A 
ATOM     13  C   UNL     1       2.086   3.384  21.871  0.00  0.00    +0.000 A 
ATOM     14  C   UNL     1       2.291   4.638  21.291  0.00  0.00    +0.000 A 
ATOM     15  C   UNL     1       2.065   4.868  19.917  0.00  0.00    +0.000 A 
BRANCH  10  17
ATOM     16  C   UNL     1       2.382   3.497  16.882  0.00  0.00    +0.000 C 
ATOM     17  O   UNL     1       1.392   3.993  17.782  0.00  0.00    +0.000 OA
ENDBRANCH  10  17
ENDBRANCH   1  15
BRANCH   7  18
ATOM     18  C   UNL     1       0.152  10.721  19.611  0.00  0.00    +0.000 A 
ATOM     19  C   UNL     1      -0.942  10.649  18.720  0.00  0.00    +0.000 A 
ATOM     20  C   UNL     1      -1.512  11.778  18.119  0.00  0.00    +0.000 A 
ATOM     21  C   UNL     1      -1.022  13.033  18.411  0.00  0.00    +0.000 A 
ATOM     22  C   UNL     1      -0.004  13.155  19.351  0.00  0.00    +0.000 A 
ATOM     23  C   UNL     1       0.559  12.024  19.986  0.00  0.00    +0.000 A 
BRANCH  23  24
ATOM     24  O   UNL     1       1.580  12.228  20.882  0.00  0.00    +0.000 OA
ATOM     25  C   UNL     1       1.982  13.601  21.006  0.00  0.00    +0.000 C 
ENDBRANCH  23  24
ENDBRANCH   7  18
TORSDOF 4
ENDMDL
MODEL 2
REMARK VINA RESULT:      -7.1      1.178      1.996
REMARK  Name = 
REMARK  7 active torsions:
REMARK  status: ('A' for Active; 'I' for Inactive)
REMARK    1  A    between atoms: C_1  and  O_2
REMARK    2  A    between atoms: O_2  and  C_3
REMARK    3  A    between atoms: C_8  and  C_9
REMARK    4  A    between atoms: C_13  and  C_14
REMARK    5  A    between atoms: N_15  and  C_16
REMARK    6  A    between atoms: C_21  and  O_22
REMARK    7  A    between atoms: O_22  and  C_23
REMARK                            x       y       z     vdW  Elec       q    Type
REMARK                         _______ _______ _______ _____ _____    ______ ____
ROOT
ATOM      1  C   UNL     1       2.398   6.351  19.411  0.00  0.00    +0.000 C 
ATOM      2  O   UNL     1       3.347   6.410  18.624  0.00  0.00    +0.000 OA
ATOM      3  N   UNL     1       1.761   7.506  19.904  0.00  0.00    +0.000 N 
ATOM      4  C   UNL     1       1.198   7.610  21.152  0.00  0.00    +0.000 A 
ATOM      5  C   UNL     1       0.544   8.768  21.292  0.00  0.00    +0.000 A 
ATOM      6  C   UNL     1      -0.265   9.087  22.499  0.00  0.00    +0.000 C 
ATOM      7  N   UNL     1       0.651   9.531  20.114  0.00  0.00    +0.000 N 
ATOM      8  C   UNL     1       1.550   8.792  19.221  0.00  0.00    +0.000 A 
ATOM      9  S   UNL     1       2.333   9.305  17.838  0.00  0.00    +0.000 S 
ENDROOT
BRANCH   1  15
ATOM     10  C   UNL     1       1.612   3.881  19.051  0.00  0.00    +0.000 A 
ATOM     11  C   UNL     1       1.450   2.606  19.630  0.00  0.00    +0.000 A 
ATOM     12  C   UNL     1       1.688   2.384  20.987  0.00  0.00    +0.000 A 
ATOM     13  C   UNL     1       2.073   3.439  21.798  0.00  0.00    +0.000 A 
ATOM     14  C   UNL     1       2.232   4.711  21.245  0.00  0.00    +0.000 A 
ATOM     15  C   UNL     1       2.016   4.958  19.872  0.00  0.00    +0.000 A 
BRANCH  10  17
ATOM     16  C   UNL     1       2.383   3.565  16.809  0.00  0.00    +0.000 C 
ATOM     17  O   UNL     1       1.413   4.097  17.710  0.00  0.00    +0.000 OA
ENDBRANCH  10  17
ENDBRANCH   1  15
BRANCH   7  18
ATOM     18  C   UNL     1      -0.058  10.764  19.826  0.00  0.00    +0.000 A 
ATOM     19  C   UNL     1       0.374  11.938  20.484  0.00  0.00    +0.000 A 
ATOM     20  C   UNL     1      -0.361  13.129  20.479  0.00  0.00    +0.000 A 
ATOM     21  C   UNL     1      -1.552  13.199  19.786  0.00  0.00    +0.000 A 
ATOM     22  C   UNL     1      -1.968  12.094  19.052  0.00  0.00    +0.000 A 
ATOM     23  C   UNL     1      -1.218  10.895  19.026  0.00  0.00    +0.000 A 
BRANCH  23  24
ATOM     24  O   UNL     1      -1.713   9.840  18.299  0.00  0.00    +0.000 OA
ATOM     25  C   UNL     1      -2.981  10.102  17.678  0.00  0.00    +0.000 C 
ENDBRANCH  23  24
ENDBRANCH   7  18
TORSDOF 4
ENDMDL
MODEL 3
REMARK VINA RESULT:      -7.1      2.910      4.758
REMARK  Name = 
REMARK  7 active torsions:
REMARK  status: ('A' for Active; 'I' for Inactive)
REMARK    1  A    between atoms: C_1  and  O_2
REMARK    2  A    between atoms: O_2  and  C_3
REMARK    3  A    between atoms: C_8  and  C_9
REMARK    4  A    between atoms: C_13  and  C_14
REMARK    5  A    between atoms: N_15  and  C_16
REMARK    6  A    between atoms: C_21  and  O_22
REMARK    7  A    between atoms: O_22  and  C_23
REMARK                            x       y       z     vdW  Elec       q    Type
REMARK                         _______ _______ _______ _____ _____    ______ ____
ROOT
ATOM      1  C   UNL     1       3.680   4.978  18.279  0.00  0.00    +0.000 C 
ATOM      2  O   UNL     1       3.266   3.863  18.612  0.00  0.00    +0.000 OA
ATOM      3  N   UNL     1       2.963   6.156  18.558  0.00  0.00    +0.000 N 
ATOM      4  C   UNL     1       2.964   7.274  17.759  0.00  0.00    +0.000 A 
ATOM      5  C   UNL     1       2.311   8.285  18.342  0.00  0.00    +0.000 A 
ATOM      6  C   UNL     1       2.267   9.651  17.753  0.00  0.00    +0.000 C 
ATOM      7  N   UNL     1       1.811   7.882  19.593  0.00  0.00    +0.000 N 
ATOM      8  C   UNL     1       2.109   6.450  19.718  0.00  0.00    +0.000 A 
ATOM      9  S   UNL     1       1.499   5.327  20.794  0.00  0.00    +0.000 S 
ENDROOT
BRANCH   1  15
ATOM     10  C   UNL     1       6.282   5.034  18.004  0.00  0.00    +0.000 A 
ATOM     11  C   UNL     1       7.372   4.869  17.126  0.00  0.00    +0.000 A 
ATOM     12  C   UNL     1       7.184   4.648  15.760  0.00  0.00    +0.000 A 
ATOM     13  C   UNL     1       5.900   4.611  15.243  0.00  0.00    +0.000 A 
ATOM     14  C   UNL     1       4.807   4.780  16.095  0.00  0.00    +0.000 A 
ATOM     15  C   UNL     1       4.970   4.984  17.482  0.00  0.00    +0.000 A 
BRANCH  10  17
ATOM     16  C   UNL     1       7.750   5.642  19.793  0.00  0.00    +0.000 C 
ATOM     17  O   UNL     1       6.461   5.216  19.353  0.00  0.00    +0.000 OA
ENDBRANCH  10  17
ENDBRANCH   1  15
BRANCH   7  18
ATOM     18  C   UNL     1       1.194   8.742  20.587  0.00  0.00    +0.000 A 
ATOM     19  C   UNL     1       1.706   8.695  21.903  0.00  0.00    +0.000 A 
ATOM     20  C   UNL     1       1.057   9.285  22.994  0.00  0.00    +0.000 A 
ATOM     21  C   UNL     1      -0.122   9.975  22.802  0.00  0.00    +0.000 A 
ATOM     22  C   UNL     1      -0.612  10.122  21.509  0.00  0.00    +0.000 A 
ATOM     23  C   UNL     1       0.050   9.554  20.396  0.00  0.00    +0.000 A 
BRANCH  23  24
ATOM     24  O   UNL     1      -0.514   9.720  19.155  0.00  0.00    +0.000 OA
ATOM     25  C   UNL     1      -1.255  10.942  19.010  0.00  0.00    +0.000 C 
ENDBRANCH  23  24
ENDBRANCH   7  18
TORSDOF 4
ENDMDL
MODEL 4
REMARK VINA RESULT:      -7.0      1.992      2.870
REMARK  Name = 
REMARK  7 active torsions:
REMARK  status: ('A' for Active; 'I' for Inactive)
REMARK    1  A    between atoms: C_1  and  O_2
REMARK    2  A    between atoms: O_2  and  C_3
REMARK    3  A    between atoms: C_8  and  C_9
REMARK    4  A    between atoms: C_13  and  C_14
REMARK    5  A    between atoms: N_15  and  C_16
REMARK    6  A    between atoms: C_21  and  O_22
REMARK    7  A    between atoms: O_22  and  C_23
REMARK                            x       y       z     vdW  Elec       q    Type
REMARK                         _______ _______ _______ _____ _____    ______ ____
ROOT
ATOM      1  C   UNL     1       2.895   7.183  18.430  0.00  0.00    +0.000 C 
ATOM      2  O   UNL     1       3.768   7.621  17.675  0.00  0.00    +0.000 OA
ATOM      3  N   UNL     1       2.079   8.032  19.201  0.00  0.00    +0.000 N 
ATOM      4  C   UNL     1       1.579   7.714  20.441  0.00  0.00    +0.000 A 
ATOM      5  C   UNL     1       0.726   8.649  20.872  0.00  0.00    +0.000 A 
ATOM      6  C   UNL     1      -0.058   8.496  22.127  0.00  0.00    +0.000 C 
ATOM      7  N   UNL     1       0.617   9.681  19.922  0.00  0.00    +0.000 N 
ATOM      8  C   UNL     1       1.588   9.377  18.865  0.00  0.00    +0.000 A 
ATOM      9  S   UNL     1       2.177  10.358  17.648  0.00  0.00    +0.000 S 
ENDROOT
BRANCH   1  15
ATOM     10  C   UNL     1       3.680   4.829  19.261  0.00  0.00    +0.000 A 
ATOM     11  C   UNL     1       3.362   3.461  19.376  0.00  0.00    +0.000 A 
ATOM     12  C   UNL     1       2.211   2.926  18.795  0.00  0.00    +0.000 A 
ATOM     13  C   UNL     1       1.365   3.746  18.068  0.00  0.00    +0.000 A 
ATOM     14  C   UNL     1       1.666   5.104  17.936  0.00  0.00    +0.000 A 
ATOM     15  C   UNL     1       2.813   5.673  18.529  0.00  0.00    +0.000 A 
BRANCH  10  17
ATOM     16  C   UNL     1       6.034   5.246  19.167  0.00  0.00    +0.000 C 
ATOM     17  O   UNL     1       4.791   5.367  19.860  0.00  0.00    +0.000 OA
ENDBRANCH  10  17
ENDBRANCH   1  15
BRANCH   7  18
ATOM     18  C   UNL     1      -0.329  10.782  19.958  0.00  0.00    +0.000 A 
ATOM     19  C   UNL     1      -0.146  11.771  20.950  0.00  0.00    +0.000 A 
ATOM     20  C   UNL     1      -1.110  12.743  21.243  0.00  0.00    +0.000 A 
ATOM     21  C   UNL     1      -2.290  12.779  20.530  0.00  0.00    +0.000 A 
ATOM     22  C   UNL     1      -2.472  11.878  19.486  0.00  0.00    +0.000 A 
ATOM     23  C   UNL     1      -1.492  10.911  19.162  0.00  0.00    +0.000 A 
BRANCH  23  24
ATOM     24  O   UNL     1      -1.760  10.040  18.135  0.00  0.00    +0.000 OA
ATOM     25  C   UNL     1      -3.106  10.120  17.638  0.00  0.00    +0.000 C 
ENDBRANCH  23  24
ENDBRANCH   7  18
TORSDOF 4
ENDMDL
MODEL 5
REMARK VINA RESULT:      -6.9      1.552      1.995
REMARK  Name = 
REMARK  7 active torsions:
REMARK  status: ('A' for Active; 'I' for Inactive)
REMARK    1  A    between atoms: C_1  and  O_2
REMARK    2  A    between atoms: O_2  and  C_3
REMARK    3  A    between atoms: C_8  and  C_9
REMARK    4  A    between atoms: C_13  and  C_14
REMARK    5  A    between atoms: N_15  and  C_16
REMARK    6  A    between atoms: C_21  and  O_22
REMARK    7  A    between atoms: O_22  and  C_23
REMARK                            x       y       z     vdW  Elec       q    Type
REMARK                         _______ _______ _______ _____ _____    ______ ____
ROOT
ATOM      1  C   UNL     1       2.944   7.057  18.406  0.00  0.00    +0.000 C 
ATOM      2  O   UNL     1       3.777   7.466  17.592  0.00  0.00    +0.000 OA
ATOM      3  N   UNL     1       2.182   7.935  19.200  0.00  0.00    +0.000 N 
ATOM      4  C   UNL     1       1.750   7.653  20.473  0.00  0.00    +0.000 A 
ATOM      5  C   UNL     1       0.931   8.608  20.928  0.00  0.00    +0.000 A 
ATOM      6  C   UNL     1       0.218   8.495  22.229  0.00  0.00    +0.000 C 
ATOM      7  N   UNL     1       0.779   9.618  19.960  0.00  0.00    +0.000 N 
ATOM      8  C   UNL     1       1.685   9.276  18.857  0.00  0.00    +0.000 A 
ATOM      9  S   UNL     1       2.214  10.220  17.585  0.00  0.00    +0.000 S 
ENDROOT
BRANCH   1  15
ATOM     10  C   UNL     1       3.721   4.722  19.295  0.00  0.00    +0.000 A 
ATOM     11  C   UNL     1       3.395   3.360  19.452  0.00  0.00    +0.000 A 
ATOM     12  C   UNL     1       2.235   2.817  18.897  0.00  0.00    +0.000 A 
ATOM     13  C   UNL     1       1.388   3.623  18.155  0.00  0.00    +0.000 A 
ATOM     14  C   UNL     1       1.696   4.974  17.982  0.00  0.00    +0.000 A 
ATOM     15  C   UNL     1       2.853   5.551  18.548  0.00  0.00    +0.000 A 
BRANCH  10  17
ATOM     16  C   UNL     1       6.063   5.183  19.133  0.00  0.00    +0.000 C 
ATOM     17  O   UNL     1       4.842   5.268  19.867  0.00  0.00    +0.000 OA
ENDBRANCH  10  17
ENDBRANCH   1  15
BRANCH   7  18
ATOM     18  C   UNL     1      -0.153  10.729  20.021  0.00  0.00    +0.000 A 
ATOM     19  C   UNL     1      -1.394  10.581  19.362  0.00  0.00    +0.000 A 
ATOM     20  C   UNL     1      -2.272  11.649  19.143  0.00  0.00    +0.000 A 
ATOM     21  C   UNL     1      -1.952  12.909  19.603  0.00  0.00    +0.000 A 
ATOM     22  C   UNL     1      -0.781  13.080  20.334  0.00  0.00    +0.000 A 
ATOM     23  C   UNL     1       0.100  12.002  20.586  0.00  0.00    +0.000 A 
BRANCH  23  24
ATOM     24  O   UNL     1       1.249  12.260  21.292  0.00  0.00    +0.000 OA
ATOM     25  C   UNL     1       2.000  13.379  20.796  0.00  0.00    +0.000 C 
ENDBRANCH  23  24
ENDBRANCH   7  18
TORSDOF 4
ENDMDL
MODEL 6
REMARK VINA RESULT:      -6.5      3.908      8.492
REMARK  Name = 
REMARK  7 active torsions:
REMARK  status: ('A' for Active; 'I' for Inactive)
REMARK    1  A    between atoms: C_1  and  O_2
REMARK    2  A    between atoms: O_2  and  C_3
REMARK    3  A    between atoms: C_8  and  C_9
REMARK    4  A    between atoms: C_13  and  C_14
REMARK    5  A    between atoms: N_15  and  C_16
REMARK    6  A    between atoms: C_21  and  O_22
REMARK    7  A    between atoms: O_22  and  C_23
REMARK                            x       y       z     vdW  Elec       q    Type
REMARK                         _______ _______ _______ _____ _____    ______ ____
ROOT
ATOM      1  C   UNL     1      -2.802  13.577  20.921  0.00  0.00    +0.000 C 
ATOM      2  O   UNL     1      -2.232  14.573  21.379  0.00  0.00    +0.000 OA
ATOM      3  N   UNL     1      -2.120  12.612  20.157  0.00  0.00    +0.000 N 
ATOM      4  C   UNL     1      -2.686  11.886  19.138  0.00  0.00    +0.000 A 
ATOM      5  C   UNL     1      -1.846  10.947  18.688  0.00  0.00    +0.000 A 
ATOM      6  C   UNL     1      -2.248   9.937  17.672  0.00  0.00    +0.000 C 
ATOM      7  N   UNL     1      -0.631  11.006  19.394  0.00  0.00    +0.000 N 
ATOM      8  C   UNL     1      -0.723  12.170  20.283  0.00  0.00    +0.000 A 
ATOM      9  S   UNL     1       0.483  12.966  21.120  0.00  0.00    +0.000 S 
ENDROOT
BRANCH   1  15
ATOM     10  C   UNL     1      -4.939  12.876  22.259  0.00  0.00    +0.000 A 
ATOM     11  C   UNL     1      -6.329  13.045  22.420  0.00  0.00    +0.000 A 
ATOM     12  C   UNL     1      -7.078  13.825  21.536  0.00  0.00    +0.000 A 
ATOM     13  C   UNL     1      -6.454  14.434  20.461  0.00  0.00    +0.000 A 
ATOM     14  C   UNL     1      -5.078  14.273  20.280  0.00  0.00    +0.000 A 
ATOM     15  C   UNL     1      -4.296  13.506  21.169  0.00  0.00    +0.000 A 
BRANCH  10  17
ATOM     16  C   UNL     1      -4.086  12.631  24.480  0.00  0.00    +0.000 C 
ATOM     17  O   UNL     1      -4.193  12.140  23.144  0.00  0.00    +0.000 OA
ENDBRANCH  10  17
ENDBRANCH   1  15
BRANCH   7  18
ATOM     18  C   UNL     1       0.458  10.051  19.305  0.00  0.00    +0.000 A 
ATOM     19  C   UNL     1       1.231  10.046  18.121  0.00  0.00    +0.000 A 
ATOM     20  C   UNL     1       2.144   9.031  17.812  0.00  0.00    +0.000 A 
ATOM     21  C   UNL     1       2.340   7.990  18.695  0.00  0.00    +0.000 A 
ATOM     22  C   UNL     1       1.666   8.003  19.911  0.00  0.00    +0.000 A 
ATOM     23  C   UNL     1       0.763   9.039  20.246  0.00  0.00    +0.000 A 
BRANCH  23  24
ATOM     24  O   UNL     1       0.115   8.964  21.455  0.00  0.00    +0.000 OA
ATOM     25  C   UNL     1       0.945   9.286  22.582  0.00  0.00    +0.000 C 
ENDBRANCH  23  24
ENDBRANCH   7  18
TORSDOF 4
ENDMDL
MODEL 7
REMARK VINA RESULT:      -6.5      1.314      1.417
REMARK  Name = 
REMARK  7 active torsions:
REMARK  status: ('A' for Active; 'I' for Inactive)
REMARK    1  A    between atoms: C_1  and  O_2
REMARK    2  A    between atoms: O_2  and  C_3
REMARK    3  A    between atoms: C_8  and  C_9
REMARK    4  A    between atoms: C_13  and  C_14
REMARK    5  A    between atoms: N_15  and  C_16
REMARK    6  A    between atoms: C_21  and  O_22
REMARK    7  A    between atoms: O_22  and  C_23
REMARK                            x       y       z     vdW  Elec       q    Type
REMARK                         _______ _______ _______ _____ _____    ______ ____
ROOT
ATOM      1  C   UNL     1       2.674   6.742  19.291  0.00  0.00    +0.000 C 
ATOM      2  O   UNL     1       3.571   6.973  18.475  0.00  0.00    +0.000 OA
ATOM      3  N   UNL     1       1.895   7.770  19.855  0.00  0.00    +0.000 N 
ATOM      4  C   UNL     1       1.374   7.741  21.126  0.00  0.00    +0.000 A 
ATOM      5  C   UNL     1       0.563   8.783  21.339  0.00  0.00    +0.000 A 
ATOM      6  C   UNL     1      -0.235   8.931  22.587  0.00  0.00    +0.000 C 
ATOM      7  N   UNL     1       0.507   9.597  20.193  0.00  0.00    +0.000 N 
ATOM      8  C   UNL     1       1.468   9.035  19.237  0.00  0.00    +0.000 A 
ATOM      9  S   UNL     1       2.109   9.711  17.851  0.00  0.00    +0.000 S 
ENDROOT
BRANCH   1  15
ATOM     10  C   UNL     1       3.559   4.340  19.834  0.00  0.00    +0.000 A 
ATOM     11  C   UNL     1       3.260   3.077  20.385  0.00  0.00    +0.000 A 
ATOM     12  C   UNL     1       1.971   2.752  20.811  0.00  0.00    +0.000 A 
ATOM     13  C   UNL     1       0.950   3.677  20.675  0.00  0.00    +0.000 A 
ATOM     14  C   UNL     1       1.224   4.931  20.124  0.00  0.00    +0.000 A 
ATOM     15  C   UNL     1       2.522   5.292  19.703  0.00  0.00    +0.000 A 
BRANCH  10  17
ATOM     16  C   UNL     1       5.307   4.135  18.213  0.00  0.00    +0.000 C 
ATOM     17  O   UNL     1       4.831   4.677  19.445  0.00  0.00    +0.000 OA
ENDBRANCH  10  17
ENDBRANCH   1  15
BRANCH   7  18
ATOM     18  C   UNL     1      -0.387  10.721  19.983  0.00  0.00    +0.000 A 
ATOM     19  C   UNL     1      -1.483  10.533  19.112  0.00  0.00    +0.000 A 
ATOM     20  C   UNL     1      -2.273  11.589  18.642  0.00  0.00    +0.000 A 
ATOM     21  C   UNL     1      -2.010  12.879  19.052  0.00  0.00    +0.000 A 
ATOM     22  C   UNL     1      -0.996  13.097  19.979  0.00  0.00    +0.000 A 
ATOM     23  C   UNL     1      -0.211  12.034  20.482  0.00  0.00    +0.000 A 
BRANCH  23  24
ATOM     24  O   UNL     1       0.789  12.336  21.373  0.00  0.00    +0.000 OA
ATOM     25  C   UNL     1       1.099  13.736  21.450  0.00  0.00    +0.000 C 
ENDBRANCH  23  24
ENDBRANCH   7  18
TORSDOF 4
ENDMDL
MODEL 8
REMARK VINA RESULT:      -6.5      1.915      2.356
REMARK  Name = 
REMARK  7 active torsions:
REMARK  status: ('A' for Active; 'I' for Inactive)
REMARK    1  A    between atoms: C_1  and  O_2
REMARK    2  A    between atoms: O_2  and  C_3
REMARK    3  A    between atoms: C_8  and  C_9
REMARK    4  A    between atoms: C_13  and  C_14
REMARK    5  A    between atoms: N_15  and  C_16
REMARK    6  A    between atoms: C_21  and  O_22
REMARK    7  A    between atoms: O_22  and  C_23
REMARK                            x       y       z     vdW  Elec       q    Type
REMARK                         _______ _______ _______ _____ _____    ______ ____
ROOT
ATOM      1  C   UNL     1       2.994   7.179  18.505  0.00  0.00    +0.000 C 
ATOM      2  O   UNL     1       3.867   7.709  17.811  0.00  0.00    +0.000 OA
ATOM      3  N   UNL     1       2.057   7.936  19.234  0.00  0.00    +0.000 N 
ATOM      4  C   UNL     1       1.514   7.551  20.435  0.00  0.00    +0.000 A 
ATOM      5  C   UNL     1       0.552   8.395  20.823  0.00  0.00    +0.000 A 
ATOM      6  C   UNL     1      -0.290   8.148  22.026  0.00  0.00    +0.000 C 
ATOM      7  N   UNL     1       0.406   9.430  19.881  0.00  0.00    +0.000 N 
ATOM      8  C   UNL     1       1.464   9.235  18.883  0.00  0.00    +0.000 A 
ATOM      9  S   UNL     1       2.032  10.287  17.717  0.00  0.00    +0.000 S 
ENDROOT
BRANCH   1  15
ATOM     10  C   UNL     1       4.028   4.891  19.242  0.00  0.00    +0.000 A 
ATOM     11  C   UNL     1       3.835   3.499  19.352  0.00  0.00    +0.000 A 
ATOM     12  C   UNL     1       2.700   2.874  18.833  0.00  0.00    +0.000 A 
ATOM     13  C   UNL     1       1.743   3.629  18.174  0.00  0.00    +0.000 A 
ATOM     14  C   UNL     1       1.918   5.008  18.049  0.00  0.00    +0.000 A 
ATOM     15  C   UNL     1       3.048   5.666  18.581  0.00  0.00    +0.000 A 
BRANCH  10  17
ATOM     16  C   UNL     1       6.385   5.286  19.152  0.00  0.00    +0.000 C 
ATOM     17  O   UNL     1       5.125   5.515  19.781  0.00  0.00    +0.000 OA
ENDBRANCH  10  17
ENDBRANCH   1  15
BRANCH   7  18
ATOM     18  C   UNL     1      -0.639  10.437  19.871  0.00  0.00    +0.000 A 
ATOM     19  C   UNL     1      -1.480  10.497  18.737  0.00  0.00    +0.000 A 
ATOM     20  C   UNL     1      -2.360  11.559  18.497  0.00  0.00    +0.000 A 
ATOM     21  C   UNL     1      -2.452  12.595  19.403  0.00  0.00    +0.000 A 
ATOM     22  C   UNL     1      -1.707  12.530  20.575  0.00  0.00    +0.000 A 
ATOM     23  C   UNL     1      -0.837  11.447  20.842  0.00  0.00    +0.000 A 
BRANCH  23  24
ATOM     24  O   UNL     1      -0.115  11.472  22.010  0.00  0.00    +0.000 OA
ATOM     25  C   UNL     1      -0.922  11.407  23.196  0.00  0.00    +0.000 C 
ENDBRANCH  23  24
ENDBRANCH   7  18
TORSDOF 4
ENDMDL
MODEL 9
REMARK VINA RESULT:      -6.3      2.289      7.566
REMARK  Name = 
REMARK  7 active torsions:
REMARK  status: ('A' for Active; 'I' for Inactive)
REMARK    1  A    between atoms: C_1  and  O_2
REMARK    2  A    between atoms: O_2  and  C_3
REMARK    3  A    between atoms: C_8  and  C_9
REMARK    4  A    between atoms: C_13  and  C_14
REMARK    5  A    between atoms: N_15  and  C_16
REMARK    6  A    between atoms: C_21  and  O_22
REMARK    7  A    between atoms: O_22  and  C_23
REMARK                            x       y       z     vdW  Elec       q    Type
REMARK                         _______ _______ _______ _____ _____    ______ ____
ROOT
ATOM      1  C   UNL     1       0.973   9.494  19.899  0.00  0.00    +0.000 C 
ATOM      2  O   UNL     1       0.703   9.479  21.104  0.00  0.00    +0.000 OA
ATOM      3  N   UNL     1       1.790   8.514  19.304  0.00  0.00    +0.000 N 
ATOM      4  C   UNL     1       2.629   8.742  18.240  0.00  0.00    +0.000 A 
ATOM      5  C   UNL     1       3.170   7.602  17.799  0.00  0.00    +0.000 A 
ATOM      6  C   UNL     1       4.018   7.542  16.577  0.00  0.00    +0.000 C 
ATOM      7  N   UNL     1       2.721   6.519  18.576  0.00  0.00    +0.000 N 
ATOM      8  C   UNL     1       1.911   7.091  19.657  0.00  0.00    +0.000 A 
ATOM      9  S   UNL     1       1.381   6.387  21.076  0.00  0.00    +0.000 S 
ENDROOT
BRANCH   1  15
ATOM     10  C   UNL     1      -0.838  10.777  18.512  0.00  0.00    +0.000 A 
ATOM     11  C   UNL     1      -1.239  12.013  17.967  0.00  0.00    +0.000 A 
ATOM     12  C   UNL     1      -0.415  13.139  18.026  0.00  0.00    +0.000 A 
ATOM     13  C   UNL     1       0.836  13.044  18.612  0.00  0.00    +0.000 A 
ATOM     14  C   UNL     1       1.255  11.826  19.151  0.00  0.00    +0.000 A 
ATOM     15  C   UNL     1       0.434  10.678  19.122  0.00  0.00    +0.000 A 
BRANCH  10  17
ATOM     16  C   UNL     1      -2.840   9.755  17.693  0.00  0.00    +0.000 C 
ATOM     17  O   UNL     1      -1.657   9.676  18.488  0.00  0.00    +0.000 OA
ENDBRANCH  10  17
ENDBRANCH   1  15
BRANCH   7  18
ATOM     18  C   UNL     1       2.958   5.113  18.303  0.00  0.00    +0.000 A 
ATOM     19  C   UNL     1       1.889   4.360  17.767  0.00  0.00    +0.000 A 
ATOM     20  C   UNL     1       1.908   2.963  17.684  0.00  0.00    +0.000 A 
ATOM     21  C   UNL     1       3.017   2.263  18.110  0.00  0.00    +0.000 A 
ATOM     22  C   UNL     1       4.126   2.971  18.561  0.00  0.00    +0.000 A 
ATOM     23  C   UNL     1       4.128   4.384  18.623  0.00  0.00    +0.000 A 
BRANCH  23  24
ATOM     24  O   UNL     1       5.253   5.007  19.107  0.00  0.00    +0.000 OA
ATOM     25  C   UNL     1       6.391   4.915  18.236  0.00  0.00    +0.000 C 
ENDBRANCH  23  24
ENDBRANCH   7  18
TORSDOF 4
ENDMDL
