MODEL 1
REMARK VINA RESULT:      -7.8      0.000      0.000
REMARK  Name = 
REMARK  8 active torsions:
REMARK  status: ('A' for Active; 'I' for Inactive)
REMARK    1  A    between atoms: C_1  and  C_2
REMARK    2  A    between atoms: C_4  and  C_5
REMARK    3  A    between atoms: C_7  and  N_8
REMARK    4  A    between atoms: C_9  and  C_10
REMARK    5  A    between atoms: C_12  and  C_13
REMARK    6  A    between atoms: C_13  and  C_15
REMARK    7  A    between atoms: C_21  and  C_22
REMARK    8  A    between atoms: C_24  and  C_25
REMARK                            x       y       z     vdW  Elec       q    Type
REMARK                         _______ _______ _______ _____ _____    ______ ____
ROOT
ATOM      1  N   UNL     1       1.030   9.089  19.856  0.00  0.00    +0.000 N 
ATOM      2  C   UNL     1       0.367   9.825  18.875  0.00  0.00    +0.000 A 
ATOM      3  C   UNL     1       0.163   9.462  17.440  0.00  0.00    +0.000 C 
ATOM      4  C   UNL     1      -0.165  10.945  19.469  0.00  0.00    +0.000 A 
ATOM      5  C   UNL     1       0.108  10.927  20.857  0.00  0.00    +0.000 A 
ATOM      6  C   UNL     1       0.850   9.762  21.083  0.00  0.00    +0.000 A 
ATOM      7  C   UNL     1       1.463   9.308  22.373  0.00  0.00    +0.000 C 
ENDROOT
BRANCH   1  14
ATOM      8  C   UNL     1       2.090   4.415  21.166  0.00  0.00    +0.000 C 
ATOM      9  C   UNL     1       2.289   5.570  20.232  0.00  0.00    +0.000 A 
ATOM     10  C   UNL     1       3.202   5.503  19.173  0.00  0.00    +0.000 A 
ATOM     11  C   UNL     1       3.407   6.611  18.343  0.00  0.00    +0.000 A 
ATOM     12  C   UNL     1       4.335   6.539  17.166  0.00  0.00    +0.000 C 
ATOM     13  C   UNL     1       2.718   7.804  18.608  0.00  0.00    +0.000 A 
ATOM     14  C   UNL     1       1.768   7.878  19.636  0.00  0.00    +0.000 A 
ATOM     15  C   UNL     1       1.553   6.747  20.430  0.00  0.00    +0.000 A 
ENDBRANCH   1  14
BRANCH   5  16
ATOM     16  C   UNL     1      -0.299  11.948  21.843  0.00  0.00    +0.000 C 
ATOM     17  O   UNL     1       0.314  12.997  22.034  0.00  0.00    +0.000 OA
BRANCH  16  18
ATOM     18  C   UNL     1      -1.569  11.762  22.694  0.00  0.00    +0.000 C 
ATOM     19  O   UNL     1      -1.638  10.861  23.512  0.00  0.00    +0.000 OA
ATOM     20  N   UNL     1      -2.555  12.686  22.412  0.00  0.00    +0.000 N 
ATOM     21  C   UNL     1      -3.725  12.651  23.116  0.00  0.00    +0.000 A 
ATOM     22  N   UNL     1      -4.051  11.876  24.119  0.00  0.00    +0.000 NA
ATOM     23  N   UNL     1      -5.324  12.127  24.580  0.00  0.00    +0.000 NA
ATOM     24  C   UNL     1      -5.916  13.075  23.885  0.00  0.00    +0.000 A 
ATOM     25  C   UNL     1      -7.299  13.545  24.131  0.00  0.00    +0.000 C 
ATOM     26  S   UNL     1      -4.941  13.742  22.631  0.00  0.00    +0.000 S 
ATOM     27  H   UNL     1      -2.410  13.380  21.689  0.00  0.00    +0.000 HD
ENDBRANCH  16  18
ENDBRANCH   5  16
TORSDOF 3
ENDMDL
MODEL 2
REMARK VINA RESULT:      -7.7      0.075      1.694
REMARK  Name = 
REMARK  8 active torsions:
REMARK  status: ('A' for Active; 'I' for Inactive)
REMARK    1  A    between atoms: C_1  and  C_2
REMARK    2  A    between atoms: C_4  and  C_5
REMARK    3  A    between atoms: C_7  and  N_8
REMARK    4  A    between atoms: C_9  and  C_10
REMARK    5  A    between atoms: C_12  and  C_13
REMARK    6  A    between atoms: C_13  and  C_15
REMARK    7  A    between atoms: C_21  and  C_22
REMARK    8  A    between atoms: C_24  and  C_25
REMARK                            x       y       z     vdW  Elec       q    Type
REMARK                         _______ _______ _______ _____ _____    ______ ____
ROOT
ATOM      1  N   UNL     1       1.062   9.037  19.836  0.00  0.00    +0.000 N 
ATOM      2  C   UNL     1       0.412   9.781  18.853  0.00  0.00    +0.000 A 
ATOM      3  C   UNL     1       0.210   9.423  17.417  0.00  0.00    +0.000 C 
ATOM      4  C   UNL     1      -0.110  10.907  19.446  0.00  0.00    +0.000 A 
ATOM      5  C   UNL     1       0.157  10.885  20.835  0.00  0.00    +0.000 A 
ATOM      6  C   UNL     1       0.885   9.712  21.063  0.00  0.00    +0.000 A 
ATOM      7  C   UNL     1       1.487   9.250  22.355  0.00  0.00    +0.000 C 
ENDROOT
BRANCH   1  14
ATOM      8  C   UNL     1       4.375   6.429  17.208  0.00  0.00    +0.000 C 
ATOM      9  C   UNL     1       3.432   6.519  18.370  0.00  0.00    +0.000 A 
ATOM     10  C   UNL     1       3.220   5.430  19.224  0.00  0.00    +0.000 A 
ATOM     11  C   UNL     1       2.299   5.522  20.272  0.00  0.00    +0.000 A 
ATOM     12  C   UNL     1       2.103   4.387  21.235  0.00  0.00    +0.000 C 
ATOM     13  C   UNL     1       1.558   6.702  20.435  0.00  0.00    +0.000 A 
ATOM     14  C   UNL     1       1.787   7.818  19.619  0.00  0.00    +0.000 A 
ATOM     15  C   UNL     1       2.740   7.717  18.600  0.00  0.00    +0.000 A 
ENDBRANCH   1  14
BRANCH   5  16
ATOM     16  C   UNL     1      -0.243  11.910  21.820  0.00  0.00    +0.000 C 
ATOM     17  O   UNL     1       0.373  12.959  22.004  0.00  0.00    +0.000 OA
BRANCH  16  18
ATOM     18  C   UNL     1      -1.509  11.729  22.679  0.00  0.00    +0.000 C 
ATOM     19  O   UNL     1      -1.572  10.836  23.505  0.00  0.00    +0.000 OA
ATOM     20  N   UNL     1      -2.498  12.648  22.392  0.00  0.00    +0.000 N 
ATOM     21  C   UNL     1      -3.665  12.617  23.102  0.00  0.00    +0.000 A 
ATOM     22  N   UNL     1      -3.985  11.851  24.113  0.00  0.00    +0.000 NA
ATOM     23  N   UNL     1      -5.256  12.103  24.578  0.00  0.00    +0.000 NA
ATOM     24  C   UNL     1      -5.853  13.043  23.877  0.00  0.00    +0.000 A 
ATOM     25  C   UNL     1      -7.236  13.513  24.125  0.00  0.00    +0.000 C 
ATOM     26  S   UNL     1      -4.885  13.701  22.612  0.00  0.00    +0.000 S 
ATOM     27  H   UNL     1      -2.358  13.336  21.663  0.00  0.00    +0.000 HD
ENDBRANCH  16  18
ENDBRANCH   5  16
TORSDOF 3
ENDMDL
MODEL 3
REMARK VINA RESULT:      -7.6      5.441      9.912
REMARK  Name = 
REMARK  8 active torsions:
REMARK  status: ('A' for Active; 'I' for Inactive)
REMARK    1  A    between atoms: C_1  and  C_2
REMARK    2  A    between atoms: C_4  and  C_5
REMARK    3  A    between atoms: C_7  and  N_8
REMARK    4  A    between atoms: C_9  and  C_10
REMARK    5  A    between atoms: C_12  and  C_13
REMARK    6  A    between atoms: C_13  and  C_15
REMARK    7  A    between atoms: C_21  and  C_22
REMARK    8  A    between atoms: C_24  and  C_25
REMARK                            x       y       z     vdW  Elec       q    Type
REMARK                         _______ _______ _______ _____ _____    ______ ____
ROOT
ATOM      1  N   UNL     1       1.268   8.875  19.657  0.00  0.00    +0.000 N 
ATOM      2  C   UNL     1       1.118   8.326  20.930  0.00  0.00    +0.000 A 
ATOM      3  C   UNL     1       0.328   8.871  22.075  0.00  0.00    +0.000 C 
ATOM      4  C   UNL     1       1.766   7.114  20.950  0.00  0.00    +0.000 A 
ATOM      5  C   UNL     1       2.309   6.838  19.673  0.00  0.00    +0.000 A 
ATOM      6  C   UNL     1       1.987   7.944  18.878  0.00  0.00    +0.000 A 
ATOM      7  C   UNL     1       2.397   8.195  17.458  0.00  0.00    +0.000 C 
ENDROOT
BRANCH   1  14
ATOM      8  C   UNL     1      -2.395  11.698  17.840  0.00  0.00    +0.000 C 
ATOM      9  C   UNL     1      -1.001  11.582  18.379  0.00  0.00    +0.000 A 
ATOM     10  C   UNL     1      -0.151  12.692  18.451  0.00  0.00    +0.000 A 
ATOM     11  C   UNL     1       1.162  12.551  18.912  0.00  0.00    +0.000 A 
ATOM     12  C   UNL     1       2.067  13.739  19.055  0.00  0.00    +0.000 C 
ATOM     13  C   UNL     1       1.633  11.277  19.263  0.00  0.00    +0.000 A 
ATOM     14  C   UNL     1       0.786  10.160  19.239  0.00  0.00    +0.000 A 
ATOM     15  C   UNL     1      -0.534  10.331  18.810  0.00  0.00    +0.000 A 
ENDBRANCH   1  14
BRANCH   5  16
ATOM     16  C   UNL     1       3.072   5.635  19.287  0.00  0.00    +0.000 C 
ATOM     17  O   UNL     1       2.711   4.486  19.538  0.00  0.00    +0.000 OA
BRANCH  16  18
ATOM     18  C   UNL     1       4.390   5.755  18.499  0.00  0.00    +0.000 C 
ATOM     19  O   UNL     1       5.364   6.287  19.002  0.00  0.00    +0.000 OA
ATOM     20  N   UNL     1       4.316   5.223  17.227  0.00  0.00    +0.000 N 
ATOM     21  C   UNL     1       5.425   5.239  16.430  0.00  0.00    +0.000 A 
ATOM     22  N   UNL     1       6.635   5.642  16.723  0.00  0.00    +0.000 NA
ATOM     23  N   UNL     1       7.501   5.508  15.662  0.00  0.00    +0.000 NA
ATOM     24  C   UNL     1       6.897   5.025  14.597  0.00  0.00    +0.000 A 
ATOM     25  C   UNL     1       7.565   4.794  13.296  0.00  0.00    +0.000 C 
ATOM     26  S   UNL     1       5.226   4.676  14.834  0.00  0.00    +0.000 S 
ATOM     27  H   UNL     1       3.447   4.827  16.891  0.00  0.00    +0.000 HD
ENDBRANCH  16  18
ENDBRANCH   5  16
TORSDOF 3
ENDMDL
MODEL 4
REMARK VINA RESULT:      -7.6      5.479      9.987
REMARK  Name = 
REMARK  8 active torsions:
REMARK  status: ('A' for Active; 'I' for Inactive)
REMARK    1  A    between atoms: C_1  and  C_2
REMARK    2  A    between atoms: C_4  and  C_5
REMARK    3  A    between atoms: C_7  and  N_8
REMARK    4  A    between atoms: C_9  and  C_10
REMARK    5  A    between atoms: C_12  and  C_13
REMARK    6  A    between atoms: C_13  and  C_15
REMARK    7  A    between atoms: C_21  and  C_22
REMARK    8  A    between atoms: C_24  and  C_25
REMARK                            x       y       z     vdW  Elec       q    Type
REMARK                         _______ _______ _______ _____ _____    ______ ____
ROOT
ATOM      1  N   UNL     1       1.345   8.863  19.643  0.00  0.00    +0.000 N 
ATOM      2  C   UNL     1       1.178   8.309  20.911  0.00  0.00    +0.000 A 
ATOM      3  C   UNL     1       0.378   8.852  22.050  0.00  0.00    +0.000 C 
ATOM      4  C   UNL     1       1.819   7.092  20.932  0.00  0.00    +0.000 A 
ATOM      5  C   UNL     1       2.374   6.820  19.660  0.00  0.00    +0.000 A 
ATOM      6  C   UNL     1       2.067   7.931  18.867  0.00  0.00    +0.000 A 
ATOM      7  C   UNL     1       2.495   8.188  17.453  0.00  0.00    +0.000 C 
ENDROOT
BRANCH   1  14
ATOM      8  C   UNL     1       2.174  13.714  18.958  0.00  0.00    +0.000 C 
ATOM      9  C   UNL     1       1.257  12.533  18.848  0.00  0.00    +0.000 A 
ATOM     10  C   UNL     1      -0.055  12.669  18.380  0.00  0.00    +0.000 A 
ATOM     11  C   UNL     1      -0.908  11.561  18.332  0.00  0.00    +0.000 A 
ATOM     12  C   UNL     1      -2.297  11.675  17.777  0.00  0.00    +0.000 C 
ATOM     13  C   UNL     1      -0.448  10.320  18.796  0.00  0.00    +0.000 A 
ATOM     14  C   UNL     1       0.875  10.153  19.227  0.00  0.00    +0.000 A 
ATOM     15  C   UNL     1       1.721  11.266  19.232  0.00  0.00    +0.000 A 
ENDBRANCH   1  14
BRANCH   5  16
ATOM     16  C   UNL     1       3.135   5.615  19.276  0.00  0.00    +0.000 C 
ATOM     17  O   UNL     1       2.774   4.467  19.534  0.00  0.00    +0.000 OA
BRANCH  16  18
ATOM     18  C   UNL     1       4.449   5.730  18.481  0.00  0.00    +0.000 C 
ATOM     19  O   UNL     1       5.434   6.239  18.985  0.00  0.00    +0.000 OA
ATOM     20  N   UNL     1       4.358   5.221  17.200  0.00  0.00    +0.000 N 
ATOM     21  C   UNL     1       5.462   5.236  16.396  0.00  0.00    +0.000 A 
ATOM     22  N   UNL     1       6.679   5.617  16.687  0.00  0.00    +0.000 NA
ATOM     23  N   UNL     1       7.536   5.489  15.617  0.00  0.00    +0.000 NA
ATOM     24  C   UNL     1       6.918   5.033  14.549  0.00  0.00    +0.000 A 
ATOM     25  C   UNL     1       7.574   4.815  13.239  0.00  0.00    +0.000 C 
ATOM     26  S   UNL     1       5.244   4.703  14.791  0.00  0.00    +0.000 S 
ATOM     27  H   UNL     1       3.481   4.844  16.864  0.00  0.00    +0.000 HD
ENDBRANCH  16  18
ENDBRANCH   5  16
TORSDOF 3
ENDMDL
MODEL 5
REMARK VINA RESULT:      -7.5      3.602      9.131
REMARK  Name = 
REMARK  8 active torsions:
REMARK  status: ('A' for Active; 'I' for Inactive)
REMARK    1  A    between atoms: C_1  and  C_2
REMARK    2  A    between atoms: C_4  and  C_5
REMARK    3  A    between atoms: C_7  and  N_8
REMARK    4  A    between atoms: C_9  and  C_10
REMARK    5  A    between atoms: C_12  and  C_13
REMARK    6  A    between atoms: C_13  and  C_15
REMARK    7  A    between atoms: C_21  and  C_22
REMARK    8  A    between atoms: C_24  and  C_25
REMARK                            x       y       z     vdW  Elec       q    Type
REMARK                         _______ _______ _______ _____ _____    ______ ____
ROOT
ATOM      1  N   UNL     1      -0.913  11.236  21.682  0.00  0.00    +0.000 N 
ATOM      2  C   UNL     1      -0.201  10.106  22.083  0.00  0.00    +0.000 A 
ATOM      3  C   UNL     1      -0.020   9.583  23.471  0.00  0.00    +0.000 C 
ATOM      4  C   UNL     1       0.260   9.470  20.954  0.00  0.00    +0.000 A 
ATOM      5  C   UNL     1      -0.187  10.157  19.801  0.00  0.00    +0.000 A 
ATOM      6  C   UNL     1      -0.919  11.252  20.271  0.00  0.00    +0.000 A 
ATOM      7  C   UNL     1      -1.543  12.348  19.460  0.00  0.00    +0.000 C 
ENDROOT
BRANCH   1  14
ATOM      8  C   UNL     1      -0.726  15.638  23.978  0.00  0.00    +0.000 C 
ATOM      9  C   UNL     1      -1.466  14.370  23.677  0.00  0.00    +0.000 A 
ATOM     10  C   UNL     1      -2.709  14.095  24.259  0.00  0.00    +0.000 A 
ATOM     11  C   UNL     1      -3.359  12.883  24.002  0.00  0.00    +0.000 A 
ATOM     12  C   UNL     1      -4.719  12.596  24.568  0.00  0.00    +0.000 C 
ATOM     13  C   UNL     1      -2.733  11.928  23.187  0.00  0.00    +0.000 A 
ATOM     14  C   UNL     1      -1.510  12.201  22.560  0.00  0.00    +0.000 A 
ATOM     15  C   UNL     1      -0.896  13.434  22.802  0.00  0.00    +0.000 A 
ENDBRANCH   1  14
BRANCH   5  16
ATOM     16  C   UNL     1       0.092   9.787  18.399  0.00  0.00    +0.000 C 
ATOM     17  O   UNL     1      -0.712   9.935  17.480  0.00  0.00    +0.000 OA
BRANCH  16  18
ATOM     18  C   UNL     1       1.458   9.203  17.993  0.00  0.00    +0.000 C 
ATOM     19  O   UNL     1       2.317   9.920  17.510  0.00  0.00    +0.000 OA
ATOM     20  N   UNL     1       1.562   7.846  18.225  0.00  0.00    +0.000 N 
ATOM     21  C   UNL     1       2.733   7.207  17.934  0.00  0.00    +0.000 A 
ATOM     22  N   UNL     1       3.860   7.719  17.509  0.00  0.00    +0.000 NA
ATOM     23  N   UNL     1       4.832   6.763  17.324  0.00  0.00    +0.000 NA
ATOM     24  C   UNL     1       4.387   5.555  17.600  0.00  0.00    +0.000 A 
ATOM     25  C   UNL     1       5.196   4.321  17.471  0.00  0.00    +0.000 C 
ATOM     26  S   UNL     1       2.748   5.514  18.132  0.00  0.00    +0.000 S 
ATOM     27  H   UNL     1       0.776   7.333  18.604  0.00  0.00    +0.000 HD
ENDBRANCH  16  18
ENDBRANCH   5  16
TORSDOF 3
ENDMDL
MODEL 6
REMARK VINA RESULT:      -7.5      4.482      9.017
REMARK  Name = 
REMARK  8 active torsions:
REMARK  status: ('A' for Active; 'I' for Inactive)
REMARK    1  A    between atoms: C_1  and  C_2
REMARK    2  A    between atoms: C_4  and  C_5
REMARK    3  A    between atoms: C_7  and  N_8
REMARK    4  A    between atoms: C_9  and  C_10
REMARK    5  A    between atoms: C_12  and  C_13
REMARK    6  A    between atoms: C_13  and  C_15
REMARK    7  A    between atoms: C_21  and  C_22
REMARK    8  A    between atoms: C_24  and  C_25
REMARK                            x       y       z     vdW  Elec       q    Type
REMARK                         _______ _______ _______ _____ _____    ______ ____
ROOT
ATOM      1  N   UNL     1      -3.290  10.987  17.912  0.00  0.00    +0.000 N 
ATOM      2  C   UNL     1      -2.814  10.162  16.894  0.00  0.00    +0.000 A 
ATOM      3  C   UNL     1      -3.555   9.664  15.696  0.00  0.00    +0.000 C 
ATOM      4  C   UNL     1      -1.477   9.931  17.123  0.00  0.00    +0.000 A 
ATOM      5  C   UNL     1      -1.058  10.643  18.272  0.00  0.00    +0.000 A 
ATOM      6  C   UNL     1      -2.198  11.299  18.749  0.00  0.00    +0.000 A 
ATOM      7  C   UNL     1      -2.320  12.126  19.993  0.00  0.00    +0.000 C 
ENDROOT
BRANCH   1  14
ATOM      8  C   UNL     1      -7.649  10.649  20.271  0.00  0.00    +0.000 C 
ATOM      9  C   UNL     1      -6.794  11.301  19.227  0.00  0.00    +0.000 A 
ATOM     10  C   UNL     1      -7.303  12.295  18.383  0.00  0.00    +0.000 A 
ATOM     11  C   UNL     1      -6.501  12.855  17.384  0.00  0.00    +0.000 A 
ATOM     12  C   UNL     1      -7.010  13.964  16.511  0.00  0.00    +0.000 C 
ATOM     13  C   UNL     1      -5.192  12.381  17.208  0.00  0.00    +0.000 A 
ATOM     14  C   UNL     1      -4.650  11.418  18.070  0.00  0.00    +0.000 A 
ATOM     15  C   UNL     1      -5.458  10.899  19.085  0.00  0.00    +0.000 A 
ENDBRANCH   1  14
BRANCH   5  16
ATOM     16  C   UNL     1       0.304  10.660  18.843  0.00  0.00    +0.000 C 
ATOM     17  O   UNL     1       0.654  11.407  19.756  0.00  0.00    +0.000 OA
BRANCH  16  18
ATOM     18  C   UNL     1       1.387   9.693  18.329  0.00  0.00    +0.000 C 
ATOM     19  O   UNL     1       2.034   9.963  17.333  0.00  0.00    +0.000 OA
ATOM     20  N   UNL     1       1.506   8.551  19.096  0.00  0.00    +0.000 N 
ATOM     21  C   UNL     1       2.451   7.621  18.766  0.00  0.00    +0.000 A 
ATOM     22  N   UNL     1       3.357   7.676  17.824  0.00  0.00    +0.000 NA
ATOM     23  N   UNL     1       4.142   6.546  17.787  0.00  0.00    +0.000 NA
ATOM     24  C   UNL     1       3.777   5.669  18.698  0.00  0.00    +0.000 A 
ATOM     25  C   UNL     1       4.418   4.347  18.883  0.00  0.00    +0.000 C 
ATOM     26  S   UNL     1       2.459   6.183  19.681  0.00  0.00    +0.000 S 
ATOM     27  H   UNL     1       0.898   8.406  19.891  0.00  0.00    +0.000 HD
ENDBRANCH  16  18
ENDBRANCH   5  16
TORSDOF 3
ENDMDL
MODEL 7
REMARK VINA RESULT:      -7.5      4.467      9.058
REMARK  Name = 
REMARK  8 active torsions:
REMARK  status: ('A' for Active; 'I' for Inactive)
REMARK    1  A    between atoms: C_1  and  C_2
REMARK    2  A    between atoms: C_4  and  C_5
REMARK    3  A    between atoms: C_7  and  N_8
REMARK    4  A    between atoms: C_9  and  C_10
REMARK    5  A    between atoms: C_12  and  C_13
REMARK    6  A    between atoms: C_13  and  C_15
REMARK    7  A    between atoms: C_21  and  C_22
REMARK    8  A    between atoms: C_24  and  C_25
REMARK                            x       y       z     vdW  Elec       q    Type
REMARK                         _______ _______ _______ _____ _____    ______ ____
ROOT
ATOM      1  N   UNL     1      -3.423  11.188  17.931  0.00  0.00    +0.000 N 
ATOM      2  C   UNL     1      -2.974  10.350  16.911  0.00  0.00    +0.000 A 
ATOM      3  C   UNL     1      -3.746   9.841  15.738  0.00  0.00    +0.000 C 
ATOM      4  C   UNL     1      -1.633  10.120  17.109  0.00  0.00    +0.000 A 
ATOM      5  C   UNL     1      -1.183  10.843  18.238  0.00  0.00    +0.000 A 
ATOM      6  C   UNL     1      -2.310  11.506  18.737  0.00  0.00    +0.000 A 
ATOM      7  C   UNL     1      -2.399  12.347  19.975  0.00  0.00    +0.000 C 
ENDROOT
BRANCH   1  14
ATOM      8  C   UNL     1      -7.249  14.030  16.526  0.00  0.00    +0.000 C 
ATOM      9  C   UNL     1      -6.686  12.981  17.437  0.00  0.00    +0.000 A 
ATOM     10  C   UNL     1      -7.443  12.443  18.485  0.00  0.00    +0.000 A 
ATOM     11  C   UNL     1      -6.881  11.501  19.353  0.00  0.00    +0.000 A 
ATOM     12  C   UNL     1      -7.695  10.868  20.444  0.00  0.00    +0.000 C 
ATOM     13  C   UNL     1      -5.538  11.130  19.188  0.00  0.00    +0.000 A 
ATOM     14  C   UNL     1      -4.778  11.623  18.119  0.00  0.00    +0.000 A 
ATOM     15  C   UNL     1      -5.371  12.536  17.242  0.00  0.00    +0.000 A 
ENDBRANCH   1  14
BRANCH   5  16
ATOM     16  C   UNL     1       0.192  10.863  18.774  0.00  0.00    +0.000 C 
ATOM     17  O   UNL     1       0.878  11.881  18.860  0.00  0.00    +0.000 OA
BRANCH  16  18
ATOM     18  C   UNL     1       0.855   9.575  19.297  0.00  0.00    +0.000 C 
ATOM     19  O   UNL     1       0.611   9.166  20.419  0.00  0.00    +0.000 OA
ATOM     20  N   UNL     1       1.715   8.996  18.386  0.00  0.00    +0.000 N 
ATOM     21  C   UNL     1       2.350   7.831  18.714  0.00  0.00    +0.000 A 
ATOM     22  N   UNL     1       2.211   7.101  19.791  0.00  0.00    +0.000 NA
ATOM     23  N   UNL     1       3.020   5.987  19.774  0.00  0.00    +0.000 NA
ATOM     24  C   UNL     1       3.756   5.935  18.684  0.00  0.00    +0.000 A 
ATOM     25  C   UNL     1       4.740   4.867  18.396  0.00  0.00    +0.000 C 
ATOM     26  S   UNL     1       3.487   7.239  17.590  0.00  0.00    +0.000 S 
ATOM     27  H   UNL     1       1.874   9.432  17.487  0.00  0.00    +0.000 HD
ENDBRANCH  16  18
ENDBRANCH   5  16
TORSDOF 3
ENDMDL
MODEL 8
REMARK VINA RESULT:      -7.4      3.813      8.725
REMARK  Name = 
REMARK  8 active torsions:
REMARK  status: ('A' for Active; 'I' for Inactive)
REMARK    1  A    between atoms: C_1  and  C_2
REMARK    2  A    between atoms: C_4  and  C_5
REMARK    3  A    between atoms: C_7  and  N_8
REMARK    4  A    between atoms: C_9  and  C_10
REMARK    5  A    between atoms: C_12  and  C_13
REMARK    6  A    between atoms: C_13  and  C_15
REMARK    7  A    between atoms: C_21  and  C_22
REMARK    8  A    between atoms: C_24  and  C_25
REMARK                            x       y       z     vdW  Elec       q    Type
REMARK                         _______ _______ _______ _____ _____    ______ ____
ROOT
ATOM      1  N   UNL     1      -1.250  11.705  19.731  0.00  0.00    +0.000 N 
ATOM      2  C   UNL     1      -1.911  11.089  18.669  0.00  0.00    +0.000 A 
ATOM      3  C   UNL     1      -3.295  11.355  18.174  0.00  0.00    +0.000 C 
ATOM      4  C   UNL     1      -1.032  10.220  18.067  0.00  0.00    +0.000 A 
ATOM      5  C   UNL     1       0.229  10.294  18.705  0.00  0.00    +0.000 A 
ATOM      6  C   UNL     1       0.078  11.227  19.737  0.00  0.00    +0.000 A 
ATOM      7  C   UNL     1       1.092  11.617  20.769  0.00  0.00    +0.000 C 
ENDROOT
BRANCH   1  14
ATOM      8  C   UNL     1      -3.716  12.606  23.949  0.00  0.00    +0.000 C 
ATOM      9  C   UNL     1      -3.016  13.121  22.728  0.00  0.00    +0.000 A 
ATOM     10  C   UNL     1      -2.951  14.491  22.448  0.00  0.00    +0.000 A 
ATOM     11  C   UNL     1      -2.335  14.947  21.278  0.00  0.00    +0.000 A 
ATOM     12  C   UNL     1      -2.201  16.414  20.991  0.00  0.00    +0.000 C 
ATOM     13  C   UNL     1      -1.819  14.014  20.366  0.00  0.00    +0.000 A 
ATOM     14  C   UNL     1      -1.835  12.641  20.648  0.00  0.00    +0.000 A 
ATOM     15  C   UNL     1      -2.423  12.211  21.842  0.00  0.00    +0.000 A 
ENDBRANCH   1  14
BRANCH   5  16
ATOM     16  C   UNL     1       1.437   9.523  18.350  0.00  0.00    +0.000 C 
ATOM     17  O   UNL     1       2.223   9.853  17.463  0.00  0.00    +0.000 OA
BRANCH  16  18
ATOM     18  C   UNL     1       1.805   8.237  19.113  0.00  0.00    +0.000 C 
ATOM     19  O   UNL     1       1.662   8.173  20.322  0.00  0.00    +0.000 OA
ATOM     20  N   UNL     1       2.298   7.239  18.296  0.00  0.00    +0.000 N 
ATOM     21  C   UNL     1       2.637   6.035  18.842  0.00  0.00    +0.000 A 
ATOM     22  N   UNL     1       2.499   5.631  20.079  0.00  0.00    +0.000 NA
ATOM     23  N   UNL     1       2.956   4.346  20.264  0.00  0.00    +0.000 NA
ATOM     24  C   UNL     1       3.443   3.838  19.152  0.00  0.00    +0.000 A 
ATOM     25  C   UNL     1       4.031   2.482  19.045  0.00  0.00    +0.000 C 
ATOM     26  S   UNL     1       3.351   4.895  17.794  0.00  0.00    +0.000 S 
ATOM     27  H   UNL     1       2.406   7.403  17.303  0.00  0.00    +0.000 HD
ENDBRANCH  16  18
ENDBRANCH   5  16
TORSDOF 3
ENDMDL
MODEL 9
REMARK VINA RESULT:      -7.4      3.807      8.879
REMARK  Name = 
REMARK  8 active torsions:
REMARK  status: ('A' for Active; 'I' for Inactive)
REMARK    1  A    between atoms: C_1  and  C_2
REMARK    2  A    between atoms: C_4  and  C_5
REMARK    3  A    between atoms: C_7  and  N_8
REMARK    4  A    between atoms: C_9  and  C_10
REMARK    5  A    between atoms: C_12  and  C_13
REMARK    6  A    between atoms: C_13  and  C_15
REMARK    7  A    between atoms: C_21  and  C_22
REMARK    8  A    between atoms: C_24  and  C_25
REMARK                            x       y       z     vdW  Elec       q    Type
REMARK                         _______ _______ _______ _____ _____    ______ ____
ROOT
ATOM      1  N   UNL     1      -1.239  11.730  19.745  0.00  0.00    +0.000 N 
ATOM      2  C   UNL     1      -1.907  11.115  18.686  0.00  0.00    +0.000 A 
ATOM      3  C   UNL     1      -3.292  11.384  18.197  0.00  0.00    +0.000 C 
ATOM      4  C   UNL     1      -1.032  10.245  18.079  0.00  0.00    +0.000 A 
ATOM      5  C   UNL     1       0.232  10.317  18.711  0.00  0.00    +0.000 A 
ATOM      6  C   UNL     1       0.087  11.249  19.744  0.00  0.00    +0.000 A 
ATOM      7  C   UNL     1       1.107  11.636  20.771  0.00  0.00    +0.000 C 
ENDROOT
BRANCH   1  14
ATOM      8  C   UNL     1      -2.293  16.421  20.995  0.00  0.00    +0.000 C 
ATOM      9  C   UNL     1      -2.379  14.955  21.295  0.00  0.00    +0.000 A 
ATOM     10  C   UNL     1      -2.981  14.485  22.468  0.00  0.00    +0.000 A 
ATOM     11  C   UNL     1      -3.007  13.115  22.751  0.00  0.00    +0.000 A 
ATOM     12  C   UNL     1      -3.701  12.587  23.971  0.00  0.00    +0.000 C 
ATOM     13  C   UNL     1      -2.387  12.220  21.866  0.00  0.00    +0.000 A 
ATOM     14  C   UNL     1      -1.818  12.666  20.666  0.00  0.00    +0.000 A 
ATOM     15  C   UNL     1      -1.836  14.036  20.386  0.00  0.00    +0.000 A 
ENDBRANCH   1  14
BRANCH   5  16
ATOM     16  C   UNL     1       1.437   9.543  18.350  0.00  0.00    +0.000 C 
ATOM     17  O   UNL     1       2.221   9.874  17.461  0.00  0.00    +0.000 OA
BRANCH  16  18
ATOM     18  C   UNL     1       1.804   8.254  19.108  0.00  0.00    +0.000 C 
ATOM     19  O   UNL     1       1.650   8.181  20.314  0.00  0.00    +0.000 OA
ATOM     20  N   UNL     1       2.309   7.264  18.288  0.00  0.00    +0.000 N 
ATOM     21  C   UNL     1       2.650   6.057  18.830  0.00  0.00    +0.000 A 
ATOM     22  N   UNL     1       2.502   5.645  20.063  0.00  0.00    +0.000 NA
ATOM     23  N   UNL     1       2.963   4.360  20.242  0.00  0.00    +0.000 NA
ATOM     24  C   UNL     1       3.463   3.862  19.132  0.00  0.00    +0.000 A 
ATOM     25  C   UNL     1       4.058   2.510  19.022  0.00  0.00    +0.000 C 
ATOM     26  S   UNL     1       3.378   4.928  17.781  0.00  0.00    +0.000 S 
ATOM     27  H   UNL     1       2.426   7.435  17.297  0.00  0.00    +0.000 HD
ENDBRANCH  16  18
ENDBRANCH   5  16
TORSDOF 3
ENDMDL
