MODEL 1
REMARK VINA RESULT:      -6.4      0.000      0.000
REMARK  Name = 
REMARK  5 active torsions:
REMARK  status: ('A' for Active; 'I' for Inactive)
REMARK    1  A    between atoms: N_6  and  C_7
REMARK    2  A    between atoms: C_9  and  C_10
REMARK    3  A    between atoms: C_10  and  O_11
REMARK    4  A    between atoms: C_12  and  C_13
REMARK    5  A    between atoms: C_13  and  O_14
REMARK                            x       y       z     vdW  Elec       q    Type
REMARK                         _______ _______ _______ _____ _____    ______ ____
ROOT
ATOM      1  N   UNL     1       7.816   5.464  14.587  0.00  0.00    +0.000 N 
ATOM      2  C   UNL     1       6.992   4.952  15.558  0.00  0.00    +0.000 A 
ATOM      3  N   UNL     1       7.342   5.196  16.787  0.00  0.00    +0.000 NA
ATOM      4  C   UNL     1       6.567   4.749  17.832  0.00  0.00    +0.000 A 
ATOM      5  O   UNL     1       6.876   4.986  18.995  0.00  0.00    +0.000 OA
ATOM      6  N   UNL     1       5.404   4.025  17.533  0.00  0.00    +0.000 N 
ATOM      7  C   UNL     1       5.043   3.743  16.233  0.00  0.00    +0.000 A 
ATOM      8  C   UNL     1       5.775   4.165  15.200  0.00  0.00    +0.000 A 
ATOM      9 BR   UNL     1       5.366   3.805  13.428  0.00  0.00    +0.000 Br
ATOM     10  H   UNL     1       8.741   5.719  14.916  0.00  0.00    +0.000 HD
ATOM     11  H   UNL     1       7.789   5.040  13.667  0.00  0.00    +0.000 HD
ENDROOT
BRANCH   6  12
ATOM     12  C   UNL     1       4.554   3.500  18.629  0.00  0.00    +0.000 C 
ATOM     13  S   UNL     1       3.647   1.977  18.142  0.00  0.00    +0.000 S 
ATOM     14  C   UNL     1       2.526   2.823  19.328  0.00  0.00    +0.000 C 
ATOM     15  C   UNL     1       3.185   4.195  18.936  0.00  0.00    +0.000 C 
BRANCH  14  16
ATOM     16  C   UNL     1       1.044   2.695  18.993  0.00  0.00    +0.000 C 
BRANCH  16  17
ATOM     17  O   UNL     1       0.214   3.177  20.048  0.00  0.00    +0.000 OA
ATOM     18  H   UNL     1       0.770   3.410  20.810  0.00  0.00    +0.000 HD
ENDBRANCH  16  17
ENDBRANCH  14  16
BRANCH  15  19
ATOM     19  C   UNL     1       3.231   5.257  20.021  0.00  0.00    +0.000 C 
BRANCH  19  20
ATOM     20  O   UNL     1       1.962   5.896  20.092  0.00  0.00    +0.000 OA
ATOM     21  H   UNL     1       1.284   5.268  19.788  0.00  0.00    +0.000 HD
ENDBRANCH  19  20
ENDBRANCH  15  19
ENDBRANCH   6  12
TORSDOF 5
ENDMDL
MODEL 2
REMARK VINA RESULT:      -5.8      1.566      1.664
REMARK  Name = 
REMARK  5 active torsions:
REMARK  status: ('A' for Active; 'I' for Inactive)
REMARK    1  A    between atoms: N_6  and  C_7
REMARK    2  A    between atoms: C_9  and  C_10
REMARK    3  A    between atoms: C_10  and  O_11
REMARK    4  A    between atoms: C_12  and  C_13
REMARK    5  A    between atoms: C_13  and  O_14
REMARK                            x       y       z     vdW  Elec       q    Type
REMARK                         _______ _______ _______ _____ _____    ______ ____
ROOT
ATOM      1  N   UNL     1       7.940   5.467  13.746  0.00  0.00    +0.000 N 
ATOM      2  C   UNL     1       7.093   5.314  14.816  0.00  0.00    +0.000 A 
ATOM      3  N   UNL     1       7.428   5.948  15.901  0.00  0.00    +0.000 NA
ATOM      4  C   UNL     1       6.630   5.881  17.020  0.00  0.00    +0.000 A 
ATOM      5  O   UNL     1       6.925   6.487  18.045  0.00  0.00    +0.000 OA
ATOM      6  N   UNL     1       5.459   5.111  16.954  0.00  0.00    +0.000 N 
ATOM      7  C   UNL     1       5.114   4.419  15.815  0.00  0.00    +0.000 A 
ATOM      8  C   UNL     1       5.868   4.466  14.715  0.00  0.00    +0.000 A 
ATOM      9 BR   UNL     1       5.480   3.544  13.154  0.00  0.00    +0.000 Br
ATOM     10  H   UNL     1       8.864   5.806  13.992  0.00  0.00    +0.000 HD
ATOM     11  H   UNL     1       7.920   4.762  13.018  0.00  0.00    +0.000 HD
ENDROOT
BRANCH   6  12
ATOM     12  C   UNL     1       4.584   4.989  18.146  0.00  0.00    +0.000 C 
ATOM     13  S   UNL     1       5.184   3.711  19.324  0.00  0.00    +0.000 S 
ATOM     14  C   UNL     1       3.354   3.674  19.494  0.00  0.00    +0.000 C 
ATOM     15  C   UNL     1       3.229   4.213  18.023  0.00  0.00    +0.000 C 
BRANCH  14  16
ATOM     16  C   UNL     1       2.772   2.285  19.729  0.00  0.00    +0.000 C 
BRANCH  16  17
ATOM     17  O   UNL     1       1.521   2.338  20.413  0.00  0.00    +0.000 OA
ATOM     18  H   UNL     1       0.950   1.622  20.088  0.00  0.00    +0.000 HD
ENDBRANCH  16  17
ENDBRANCH  14  16
BRANCH  15  19
ATOM     19  C   UNL     1       2.018   5.078  17.721  0.00  0.00    +0.000 C 
BRANCH  19  20
ATOM     20  O   UNL     1       0.982   4.253  17.202  0.00  0.00    +0.000 OA
ATOM     21  H   UNL     1       1.265   3.915  16.334  0.00  0.00    +0.000 HD
ENDBRANCH  19  20
ENDBRANCH  15  19
ENDBRANCH   6  12
TORSDOF 5
ENDMDL
MODEL 3
REMARK VINA RESULT:      -5.8      1.970      2.326
REMARK  Name = 
REMARK  5 active torsions:
REMARK  status: ('A' for Active; 'I' for Inactive)
REMARK    1  A    between atoms: N_6  and  C_7
REMARK    2  A    between atoms: C_9  and  C_10
REMARK    3  A    between atoms: C_10  and  O_11
REMARK    4  A    between atoms: C_12  and  C_13
REMARK    5  A    between atoms: C_13  and  O_14
REMARK                            x       y       z     vdW  Elec       q    Type
REMARK                         _______ _______ _______ _____ _____    ______ ____
ROOT
ATOM      1  N   UNL     1       7.626   6.380  16.113  0.00  0.00    +0.000 N 
ATOM      2  C   UNL     1       6.655   5.579  16.661  0.00  0.00    +0.000 A 
ATOM      3  N   UNL     1       6.393   5.784  17.918  0.00  0.00    +0.000 NA
ATOM      4  C   UNL     1       5.416   5.052  18.553  0.00  0.00    +0.000 A 
ATOM      5  O   UNL     1       5.147   5.245  19.734  0.00  0.00    +0.000 OA
ATOM      6  N   UNL     1       4.724   4.085  17.810  0.00  0.00    +0.000 N 
ATOM      7  C   UNL     1       5.016   3.848  16.484  0.00  0.00    +0.000 A 
ATOM      8  C   UNL     1       5.957   4.543  15.843  0.00  0.00    +0.000 A 
ATOM      9 BR   UNL     1       6.420   4.265  14.069  0.00  0.00    +0.000 Br
ATOM     10  H   UNL     1       8.228   6.832  16.794  0.00  0.00    +0.000 HD
ATOM     11  H   UNL     1       8.094   6.056  15.274  0.00  0.00    +0.000 HD
ENDROOT
BRANCH   6  12
ATOM     12  C   UNL     1       3.683   3.253  18.461  0.00  0.00    +0.000 C 
ATOM     13  S   UNL     1       2.197   4.230  18.924  0.00  0.00    +0.000 S 
ATOM     14  C   UNL     1       2.310   2.924  20.212  0.00  0.00    +0.000 C 
ATOM     15  C   UNL     1       3.859   2.844  19.963  0.00  0.00    +0.000 C 
BRANCH  14  16
ATOM     16  C   UNL     1       1.898   3.379  21.607  0.00  0.00    +0.000 C 
BRANCH  16  17
ATOM     17  O   UNL     1       1.391   2.301  22.393  0.00  0.00    +0.000 OA
ATOM     18  H   UNL     1       2.001   1.547  22.331  0.00  0.00    +0.000 HD
ENDBRANCH  16  17
ENDBRANCH  14  16
BRANCH  15  19
ATOM     19  C   UNL     1       4.512   1.492  20.189  0.00  0.00    +0.000 C 
BRANCH  19  20
ATOM     20  O   UNL     1       5.328   1.565  21.352  0.00  0.00    +0.000 OA
ATOM     21  H   UNL     1       5.638   2.482  21.452  0.00  0.00    +0.000 HD
ENDBRANCH  19  20
ENDBRANCH  15  19
ENDBRANCH   6  12
TORSDOF 5
ENDMDL
MODEL 4
REMARK VINA RESULT:      -5.7      1.623      1.809
REMARK  Name = 
REMARK  5 active torsions:
REMARK  status: ('A' for Active; 'I' for Inactive)
REMARK    1  A    between atoms: N_6  and  C_7
REMARK    2  A    between atoms: C_9  and  C_10
REMARK    3  A    between atoms: C_10  and  O_11
REMARK    4  A    between atoms: C_12  and  C_13
REMARK    5  A    between atoms: C_13  and  O_14
REMARK                            x       y       z     vdW  Elec       q    Type
REMARK                         _______ _______ _______ _____ _____    ______ ____
ROOT
ATOM      1  N   UNL     1       7.898   5.123  12.735  0.00  0.00    +0.000 N 
ATOM      2  C   UNL     1       7.165   4.956  13.884  0.00  0.00    +0.000 A 
ATOM      3  N   UNL     1       7.631   5.543  14.946  0.00  0.00    +0.000 NA
ATOM      4  C   UNL     1       6.954   5.459  16.141  0.00  0.00    +0.000 A 
ATOM      5  O   UNL     1       7.374   6.022  17.147  0.00  0.00    +0.000 OA
ATOM      6  N   UNL     1       5.762   4.722  16.177  0.00  0.00    +0.000 N 
ATOM      7  C   UNL     1       5.278   4.077  15.060  0.00  0.00    +0.000 A 
ATOM      8  C   UNL     1       5.913   4.142  13.888  0.00  0.00    +0.000 A 
ATOM      9 BR   UNL     1       5.335   3.283  12.349  0.00  0.00    +0.000 Br
ATOM     10  H   UNL     1       8.853   5.431  12.891  0.00  0.00    +0.000 HD
ATOM     11  H   UNL     1       7.781   4.444  11.992  0.00  0.00    +0.000 HD
ENDROOT
BRANCH   6  12
ATOM     12  C   UNL     1       5.015   4.581  17.450  0.00  0.00    +0.000 C 
ATOM     13  S   UNL     1       4.082   3.000  17.542  0.00  0.00    +0.000 S 
ATOM     14  C   UNL     1       3.061   4.194  18.495  0.00  0.00    +0.000 C 
ATOM     15  C   UNL     1       3.671   5.363  17.640  0.00  0.00    +0.000 C 
BRANCH  14  16
ATOM     16  C   UNL     1       1.556   3.996  18.344  0.00  0.00    +0.000 C 
BRANCH  16  17
ATOM     17  O   UNL     1       0.921   3.754  19.598  0.00  0.00    +0.000 OA
ATOM     18  H   UNL     1       0.459   4.561  19.882  0.00  0.00    +0.000 HD
ENDBRANCH  16  17
ENDBRANCH  14  16
BRANCH  15  19
ATOM     19  C   UNL     1       3.803   6.709  18.332  0.00  0.00    +0.000 C 
BRANCH  19  20
ATOM     20  O   UNL     1       3.133   7.693  17.553  0.00  0.00    +0.000 OA
ATOM     21  H   UNL     1       2.677   7.245  16.819  0.00  0.00    +0.000 HD
ENDBRANCH  19  20
ENDBRANCH  15  19
ENDBRANCH   6  12
TORSDOF 5
ENDMDL
MODEL 5
REMARK VINA RESULT:      -5.6      2.695      3.153
REMARK  Name = 
REMARK  5 active torsions:
REMARK  status: ('A' for Active; 'I' for Inactive)
REMARK    1  A    between atoms: N_6  and  C_7
REMARK    2  A    between atoms: C_9  and  C_10
REMARK    3  A    between atoms: C_10  and  O_11
REMARK    4  A    between atoms: C_12  and  C_13
REMARK    5  A    between atoms: C_13  and  O_14
REMARK                            x       y       z     vdW  Elec       q    Type
REMARK                         _______ _______ _______ _____ _____    ______ ____
ROOT
ATOM      1  N   UNL     1       7.633   5.554  15.150  0.00  0.00    +0.000 N 
ATOM      2  C   UNL     1       6.524   5.339  15.931  0.00  0.00    +0.000 A 
ATOM      3  N   UNL     1       5.710   4.412  15.518  0.00  0.00    +0.000 NA
ATOM      4  C   UNL     1       4.585   4.100  16.246  0.00  0.00    +0.000 A 
ATOM      5  O   UNL     1       3.818   3.217  15.877  0.00  0.00    +0.000 OA
ATOM      6  N   UNL     1       4.344   4.811  17.430  0.00  0.00    +0.000 N 
ATOM      7  C   UNL     1       5.190   5.811  17.858  0.00  0.00    +0.000 A 
ATOM      8  C   UNL     1       6.289   6.133  17.173  0.00  0.00    +0.000 A 
ATOM      9 BR   UNL     1       7.461   7.481  17.672  0.00  0.00    +0.000 Br
ATOM     10  H   UNL     1       7.556   5.188  14.207  0.00  0.00    +0.000 HD
ATOM     11  H   UNL     1       8.102   6.449  15.226  0.00  0.00    +0.000 HD
ENDROOT
BRANCH   6  12
ATOM     12  C   UNL     1       3.128   4.528  18.231  0.00  0.00    +0.000 C 
ATOM     13  S   UNL     1       2.954   5.666  19.664  0.00  0.00    +0.000 S 
ATOM     14  C   UNL     1       2.212   4.085  20.237  0.00  0.00    +0.000 C 
ATOM     15  C   UNL     1       3.127   3.314  19.219  0.00  0.00    +0.000 C 
BRANCH  14  16
ATOM     16  C   UNL     1       2.465   3.769  21.707  0.00  0.00    +0.000 C 
BRANCH  16  17
ATOM     17  O   UNL     1       1.638   2.704  22.174  0.00  0.00    +0.000 OA
ATOM     18  H   UNL     1       0.851   3.077  22.606  0.00  0.00    +0.000 HD
ENDBRANCH  16  17
ENDBRANCH  14  16
BRANCH  15  19
ATOM     19  C   UNL     1       2.567   2.022  18.651  0.00  0.00    +0.000 C 
BRANCH  19  20
ATOM     20  O   UNL     1       3.647   1.199  18.228  0.00  0.00    +0.000 OA
ATOM     21  H   UNL     1       4.414   1.769  18.045  0.00  0.00    +0.000 HD
ENDBRANCH  19  20
ENDBRANCH  15  19
ENDBRANCH   6  12
TORSDOF 5
ENDMDL
MODEL 6
REMARK VINA RESULT:      -5.6      2.845      3.474
REMARK  Name = 
REMARK  5 active torsions:
REMARK  status: ('A' for Active; 'I' for Inactive)
REMARK    1  A    between atoms: N_6  and  C_7
REMARK    2  A    between atoms: C_9  and  C_10
REMARK    3  A    between atoms: C_10  and  O_11
REMARK    4  A    between atoms: C_12  and  C_13
REMARK    5  A    between atoms: C_13  and  O_14
REMARK                            x       y       z     vdW  Elec       q    Type
REMARK                         _______ _______ _______ _____ _____    ______ ____
ROOT
ATOM      1  N   UNL     1       6.688   7.406  16.786  0.00  0.00    +0.000 N 
ATOM      2  C   UNL     1       5.615   6.717  17.295  0.00  0.00    +0.000 A 
ATOM      3  N   UNL     1       4.497   7.378  17.367  0.00  0.00    +0.000 NA
ATOM      4  C   UNL     1       3.357   6.767  17.837  0.00  0.00    +0.000 A 
ATOM      5  O   UNL     1       2.293   7.374  17.895  0.00  0.00    +0.000 OA
ATOM      6  N   UNL     1       3.441   5.425  18.236  0.00  0.00    +0.000 N 
ATOM      7  C   UNL     1       4.628   4.729  18.184  0.00  0.00    +0.000 A 
ATOM      8  C   UNL     1       5.749   5.295  17.732  0.00  0.00    +0.000 A 
ATOM      9 BR   UNL     1       7.387   4.430  17.655  0.00  0.00    +0.000 Br
ATOM     10  H   UNL     1       6.578   8.415  16.795  0.00  0.00    +0.000 HD
ATOM     11  H   UNL     1       7.618   7.074  17.012  0.00  0.00    +0.000 HD
ENDROOT
BRANCH   6  12
ATOM     12  C   UNL     1       2.243   4.736  18.775  0.00  0.00    +0.000 C 
ATOM     13  S   UNL     1       1.850   5.259  20.492  0.00  0.00    +0.000 S 
ATOM     14  C   UNL     1       1.314   3.504  20.411  0.00  0.00    +0.000 C 
ATOM     15  C   UNL     1       2.371   3.258  19.275  0.00  0.00    +0.000 C 
BRANCH  14  16
ATOM     16  C   UNL     1       1.545   2.715  21.695  0.00  0.00    +0.000 C 
BRANCH  16  17
ATOM     17  O   UNL     1       2.933   2.513  21.956  0.00  0.00    +0.000 OA
ATOM     18  H   UNL     1       3.158   1.584  21.785  0.00  0.00    +0.000 HD
ENDBRANCH  16  17
ENDBRANCH  14  16
BRANCH  15  19
ATOM     19  C   UNL     1       2.022   2.198  18.244  0.00  0.00    +0.000 C 
BRANCH  19  20
ATOM     20  O   UNL     1       3.141   1.336  18.074  0.00  0.00    +0.000 OA
ATOM     21  H   UNL     1       3.244   1.150  17.125  0.00  0.00    +0.000 HD
ENDBRANCH  19  20
ENDBRANCH  15  19
ENDBRANCH   6  12
TORSDOF 5
ENDMDL
MODEL 7
REMARK VINA RESULT:      -5.5      2.732      3.206
REMARK  Name = 
REMARK  5 active torsions:
REMARK  status: ('A' for Active; 'I' for Inactive)
REMARK    1  A    between atoms: N_6  and  C_7
REMARK    2  A    between atoms: C_9  and  C_10
REMARK    3  A    between atoms: C_10  and  O_11
REMARK    4  A    between atoms: C_12  and  C_13
REMARK    5  A    between atoms: C_13  and  O_14
REMARK                            x       y       z     vdW  Elec       q    Type
REMARK                         _______ _______ _______ _____ _____    ______ ____
ROOT
ATOM      1  N   UNL     1       7.707   6.289  16.081  0.00  0.00    +0.000 N 
ATOM      2  C   UNL     1       6.738   5.545  16.707  0.00  0.00    +0.000 A 
ATOM      3  N   UNL     1       5.822   5.039  15.934  0.00  0.00    +0.000 NA
ATOM      4  C   UNL     1       4.823   4.254  16.461  0.00  0.00    +0.000 A 
ATOM      5  O   UNL     1       3.963   3.756  15.741  0.00  0.00    +0.000 OA
ATOM      6  N   UNL     1       4.820   4.025  17.845  0.00  0.00    +0.000 N 
ATOM      7  C   UNL     1       5.773   4.580  18.670  0.00  0.00    +0.000 A 
ATOM      8  C   UNL     1       6.754   5.344  18.186  0.00  0.00    +0.000 A 
ATOM      9 BR   UNL     1       8.057   6.143  19.237  0.00  0.00    +0.000 Br
ATOM     10  H   UNL     1       7.454   6.605  15.150  0.00  0.00    +0.000 HD
ATOM     11  H   UNL     1       8.225   6.960  16.636  0.00  0.00    +0.000 HD
ENDROOT
BRANCH   6  12
ATOM     12  C   UNL     1       3.745   3.209  18.459  0.00  0.00    +0.000 C 
ATOM     13  S   UNL     1       2.254   4.207  18.863  0.00  0.00    +0.000 S 
ATOM     14  C   UNL     1       2.302   2.904  20.158  0.00  0.00    +0.000 C 
ATOM     15  C   UNL     1       3.858   2.804  19.968  0.00  0.00    +0.000 C 
BRANCH  14  16
ATOM     16  C   UNL     1       1.844   3.369  21.536  0.00  0.00    +0.000 C 
BRANCH  16  17
ATOM     17  O   UNL     1       1.456   2.277  22.367  0.00  0.00    +0.000 OA
ATOM     18  H   UNL     1       1.587   2.522  23.298  0.00  0.00    +0.000 HD
ENDBRANCH  16  17
ENDBRANCH  14  16
BRANCH  15  19
ATOM     19  C   UNL     1       4.485   1.444  20.223  0.00  0.00    +0.000 C 
BRANCH  19  20
ATOM     20  O   UNL     1       5.374   1.549  21.329  0.00  0.00    +0.000 OA
ATOM     21  H   UNL     1       6.262   1.760  20.990  0.00  0.00    +0.000 HD
ENDBRANCH  19  20
ENDBRANCH  15  19
ENDBRANCH   6  12
TORSDOF 5
ENDMDL
MODEL 8
REMARK VINA RESULT:      -5.4      1.317      1.450
REMARK  Name = 
REMARK  5 active torsions:
REMARK  status: ('A' for Active; 'I' for Inactive)
REMARK    1  A    between atoms: N_6  and  C_7
REMARK    2  A    between atoms: C_9  and  C_10
REMARK    3  A    between atoms: C_10  and  O_11
REMARK    4  A    between atoms: C_12  and  C_13
REMARK    5  A    between atoms: C_13  and  O_14
REMARK                            x       y       z     vdW  Elec       q    Type
REMARK                         _______ _______ _______ _____ _____    ______ ____
ROOT
ATOM      1  N   UNL     1       7.932   5.462  13.155  0.00  0.00    +0.000 N 
ATOM      2  C   UNL     1       7.181   5.059  14.231  0.00  0.00    +0.000 A 
ATOM      3  N   UNL     1       7.520   5.562  15.381  0.00  0.00    +0.000 NA
ATOM      4  C   UNL     1       6.811   5.242  16.516  0.00  0.00    +0.000 A 
ATOM      5  O   UNL     1       7.109   5.723  17.605  0.00  0.00    +0.000 OA
ATOM      6  N   UNL     1       5.727   4.361  16.394  0.00  0.00    +0.000 N 
ATOM      7  C   UNL     1       5.380   3.807  15.182  0.00  0.00    +0.000 A 
ATOM      8  C   UNL     1       6.048   4.100  14.065  0.00  0.00    +0.000 A 
ATOM      9 BR   UNL     1       5.655   3.375  12.404  0.00  0.00    +0.000 Br
ATOM     10  H   UNL     1       8.830   5.866  13.401  0.00  0.00    +0.000 HD
ATOM     11  H   UNL     1       7.938   4.873  12.330  0.00  0.00    +0.000 HD
ENDROOT
BRANCH   6  12
ATOM     12  C   UNL     1       4.953   3.967  17.597  0.00  0.00    +0.000 C 
ATOM     13  S   UNL     1       3.847   2.534  17.277  0.00  0.00    +0.000 S 
ATOM     14  C   UNL     1       2.955   3.533  18.534  0.00  0.00    +0.000 C 
ATOM     15  C   UNL     1       3.703   4.813  18.014  0.00  0.00    +0.000 C 
BRANCH  14  16
ATOM     16  C   UNL     1       1.440   3.552  18.363  0.00  0.00    +0.000 C 
BRANCH  16  17
ATOM     17  O   UNL     1       0.760   3.300  19.591  0.00  0.00    +0.000 OA
ATOM     18  H   UNL     1       0.562   2.351  19.658  0.00  0.00    +0.000 HD
ENDBRANCH  16  17
ENDBRANCH  14  16
BRANCH  15  19
ATOM     19  C   UNL     1       3.975   5.900  19.039  0.00  0.00    +0.000 C 
BRANCH  19  20
ATOM     20  O   UNL     1       5.191   5.601  19.714  0.00  0.00    +0.000 OA
ATOM     21  H   UNL     1       5.229   6.133  20.528  0.00  0.00    +0.000 HD
ENDBRANCH  19  20
ENDBRANCH  15  19
ENDBRANCH   6  12
TORSDOF 5
ENDMDL
MODEL 9
REMARK VINA RESULT:      -5.3      3.625      6.020
REMARK  Name = 
REMARK  5 active torsions:
REMARK  status: ('A' for Active; 'I' for Inactive)
REMARK    1  A    between atoms: N_6  and  C_7
REMARK    2  A    between atoms: C_9  and  C_10
REMARK    3  A    between atoms: C_10  and  O_11
REMARK    4  A    between atoms: C_12  and  C_13
REMARK    5  A    between atoms: C_13  and  O_14
REMARK                            x       y       z     vdW  Elec       q    Type
REMARK                         _______ _______ _______ _____ _____    ______ ____
ROOT
ATOM      1  N   UNL     1       0.454   3.725  20.257  0.00  0.00    +0.000 N 
ATOM      2  C   UNL     1       1.705   3.966  19.747  0.00  0.00    +0.000 A 
ATOM      3  N   UNL     1       2.264   2.972  19.121  0.00  0.00    +0.000 NA
ATOM      4  C   UNL     1       3.506   3.121  18.549  0.00  0.00    +0.000 A 
ATOM      5  O   UNL     1       4.038   2.198  17.941  0.00  0.00    +0.000 OA
ATOM      6  N   UNL     1       4.146   4.364  18.667  0.00  0.00    +0.000 N 
ATOM      7  C   UNL     1       3.568   5.411  19.351  0.00  0.00    +0.000 A 
ATOM      8  C   UNL     1       2.364   5.295  19.915  0.00  0.00    +0.000 A 
ATOM      9 BR   UNL     1       1.534   6.651  20.870  0.00  0.00    +0.000 Br
ATOM     10  H   UNL     1       0.223   2.741  20.349  0.00  0.00    +0.000 HD
ATOM     11  H   UNL     1       0.125   4.315  21.013  0.00  0.00    +0.000 HD
ENDROOT
BRANCH   6  12
ATOM     12  C   UNL     1       5.498   4.560  18.091  0.00  0.00    +0.000 C 
ATOM     13  S   UNL     1       6.714   5.137  19.342  0.00  0.00    +0.000 S 
ATOM     14  C   UNL     1       7.268   5.910  17.770  0.00  0.00    +0.000 C 
ATOM     15  C   UNL     1       5.790   5.844  17.243  0.00  0.00    +0.000 C 
BRANCH  14  16
ATOM     16  C   UNL     1       7.841   7.315  17.927  0.00  0.00    +0.000 C 
BRANCH  16  17
ATOM     17  O   UNL     1       7.314   8.218  16.956  0.00  0.00    +0.000 OA
ATOM     18  H   UNL     1       7.497   7.872  16.067  0.00  0.00    +0.000 HD
ENDBRANCH  16  17
ENDBRANCH  14  16
BRANCH  15  19
ATOM     19  C   UNL     1       5.613   5.680  15.743  0.00  0.00    +0.000 C 
BRANCH  19  20
ATOM     20  O   UNL     1       5.186   6.919  15.192  0.00  0.00    +0.000 OA
ATOM     21  H   UNL     1       4.429   6.750  14.605  0.00  0.00    +0.000 HD
ENDBRANCH  19  20
ENDBRANCH  15  19
ENDBRANCH   6  12
TORSDOF 5
ENDMDL
