MODEL 1
REMARK VINA RESULT:      -8.4      0.000      0.000
REMARK  Name = 
REMARK  12 active torsions:
REMARK  status: ('A' for Active; 'I' for Inactive)
REMARK    1  A    between atoms: C_2  and  O_3
REMARK    2  A    between atoms: C_2  and  C_4
REMARK    3  A    between atoms: C_4  and  C_5
REMARK    4  A    between atoms: C_5  and  C_6
REMARK    5  A    between atoms: C_6  and  C_7
REMARK    6  A    between atoms: C_8  and  C_9
REMARK    7  A    between atoms: C_9  and  C_10
REMARK    8  A    between atoms: C_11  and  C_12
REMARK    9  A    between atoms: C_12  and  O_13
REMARK   10  A    between atoms: O_13  and  C_14
REMARK   11  A    between atoms: C_14  and  C_15
REMARK   12  A    between atoms: C_23  and  C_24
REMARK                            x       y       z     vdW  Elec       q    Type
REMARK                         _______ _______ _______ _____ _____    ______ ____
ROOT
ATOM      1  C   UNL     1       5.911   6.318  16.647  0.00  0.00    +0.000 C 
ATOM      2  C   UNL     1       5.346   6.149  18.092  0.00  0.00    +0.000 C 
ATOM      3  C   UNL     1       5.494   4.633  18.313  0.00  0.00    +0.000 C 
ATOM      4  C   UNL     1       5.247   4.051  16.933  0.00  0.00    +0.000 C 
ATOM      5  C   UNL     1       6.391   4.867  16.287  0.00  0.00    +0.000 C 
ATOM      6  C   UNL     1       7.503   4.362  17.230  0.00  0.00    +0.000 C 
ATOM      7  O   UNL     1       6.899   4.370  18.541  0.00  0.00    +0.000 OA
ENDROOT
BRANCH   5   8
ATOM      8  C   UNL     1       6.611   4.608  14.811  0.00  0.00    +0.000 A 
ATOM      9  C   UNL     1       7.620   5.279  14.098  0.00  0.00    +0.000 A 
ATOM     10  C   UNL     1       7.791   5.088  12.724  0.00  0.00    +0.000 A 
ATOM     11  C   UNL     1       6.965   4.205  12.037  0.00  0.00    +0.000 A 
ATOM     12  C   UNL     1       5.981   3.505  12.726  0.00  0.00    +0.000 A 
ATOM     13  C   UNL     1       5.809   3.700  14.103  0.00  0.00    +0.000 A 
ENDBRANCH   5   8
BRANCH   1  14
ATOM     14  C   UNL     1       6.880   7.506  16.467  0.00  0.00    +0.000 C 
BRANCH  14  16
ATOM     15  C   UNL     1       8.211   9.179  17.832  0.00  0.00    +0.000 C 
ATOM     16  C   UNL     1       7.620   7.983  17.685  0.00  0.00    +0.000 C 
BRANCH  15  17
ATOM     17  C   UNL     1       8.921   9.553  19.107  0.00  0.00    +0.000 C 
BRANCH  17  18
ATOM     18  C   UNL     1       9.727  10.842  18.960  0.00  0.00    +0.000 C 
BRANCH  18  19
ATOM     19  C   UNL     1       9.051  11.817  17.991  0.00  0.00    +0.000 C 
BRANCH  19  21
ATOM     20  O   UNL     1       9.703  13.941  18.980  0.00  0.00    +0.000 OA
ATOM     21  C   UNL     1       9.707  13.180  18.027  0.00  0.00    +0.000 C 
BRANCH  21  22
ATOM     22  O   UNL     1      10.322  13.492  16.862  0.00  0.00    +0.000 OA
ATOM     23  H   UNL     1      10.726  14.379  16.846  0.00  0.00    +0.000 HD
ENDBRANCH  21  22
ENDBRANCH  19  21
ENDBRANCH  18  19
ENDBRANCH  17  18
ENDBRANCH  15  17
ENDBRANCH  14  16
ENDBRANCH   1  14
BRANCH   2  24
ATOM     24  C   UNL     1       3.886   6.598  18.198  0.00  0.00    +0.000 C 
BRANCH  24  25
ATOM     25  O   UNL     1       3.468   6.482  19.556  0.00  0.00    +0.000 OA
BRANCH  25  26
ATOM     26  C   UNL     1       2.062   6.266  19.659  0.00  0.00    +0.000 C 
BRANCH  26  27
ATOM     27  C   UNL     1       1.792   4.785  19.667  0.00  0.00    +0.000 A 
ATOM     28  C   UNL     1       1.761   4.078  20.878  0.00  0.00    +0.000 A 
ATOM     29  C   UNL     1       1.508   2.705  20.894  0.00  0.00    +0.000 A 
ATOM     30  C   UNL     1       1.281   2.026  19.699  0.00  0.00    +0.000 A 
ATOM     31  C   UNL     1       1.306   2.716  18.489  0.00  0.00    +0.000 A 
ATOM     32  C   UNL     1       1.560   4.090  18.472  0.00  0.00    +0.000 A 
ENDBRANCH  26  27
ENDBRANCH  25  26
ENDBRANCH  24  25
ENDBRANCH   2  24
TORSDOF 12
ENDMDL
MODEL 2
REMARK VINA RESULT:      -8.2      2.593      8.841
REMARK  Name = 
REMARK  12 active torsions:
REMARK  status: ('A' for Active; 'I' for Inactive)
REMARK    1  A    between atoms: C_2  and  O_3
REMARK    2  A    between atoms: C_2  and  C_4
REMARK    3  A    between atoms: C_4  and  C_5
REMARK    4  A    between atoms: C_5  and  C_6
REMARK    5  A    between atoms: C_6  and  C_7
REMARK    6  A    between atoms: C_8  and  C_9
REMARK    7  A    between atoms: C_9  and  C_10
REMARK    8  A    between atoms: C_11  and  C_12
REMARK    9  A    between atoms: C_12  and  O_13
REMARK   10  A    between atoms: O_13  and  C_14
REMARK   11  A    between atoms: C_14  and  C_15
REMARK   12  A    between atoms: C_23  and  C_24
REMARK                            x       y       z     vdW  Elec       q    Type
REMARK                         _______ _______ _______ _____ _____    ______ ____
ROOT
ATOM      1  C   UNL     1       5.657   6.578  17.164  0.00  0.00    +0.000 C 
ATOM      2  C   UNL     1       7.147   7.023  17.305  0.00  0.00    +0.000 C 
ATOM      3  C   UNL     1       7.689   5.993  18.312  0.00  0.00    +0.000 C 
ATOM      4  C   UNL     1       6.502   5.731  19.221  0.00  0.00    +0.000 C 
ATOM      5  C   UNL     1       5.593   5.285  18.052  0.00  0.00    +0.000 C 
ATOM      6  C   UNL     1       6.525   4.168  17.537  0.00  0.00    +0.000 C 
ATOM      7  O   UNL     1       7.848   4.743  17.600  0.00  0.00    +0.000 OA
ENDROOT
BRANCH   5   8
ATOM      8  C   UNL     1       4.200   4.847  18.453  0.00  0.00    +0.000 A 
ATOM      9  C   UNL     1       3.397   5.647  19.286  0.00  0.00    +0.000 A 
ATOM     10  C   UNL     1       2.133   5.223  19.706  0.00  0.00    +0.000 A 
ATOM     11  C   UNL     1       1.637   3.995  19.285  0.00  0.00    +0.000 A 
ATOM     12  C   UNL     1       2.397   3.200  18.434  0.00  0.00    +0.000 A 
ATOM     13  C   UNL     1       3.665   3.625  18.016  0.00  0.00    +0.000 A 
ENDBRANCH   5   8
BRANCH   1  14
ATOM     14  C   UNL     1       5.132   6.531  15.713  0.00  0.00    +0.000 C 
BRANCH  14  16
ATOM     15  C   UNL     1       6.324   4.829  14.260  0.00  0.00    +0.000 C 
ATOM     16  C   UNL     1       5.261   5.229  14.974  0.00  0.00    +0.000 C 
BRANCH  15  17
ATOM     17  C   UNL     1       6.345   3.493  13.564  0.00  0.00    +0.000 C 
BRANCH  17  18
ATOM     18  C   UNL     1       5.904   3.596  12.106  0.00  0.00    +0.000 C 
BRANCH  18  19
ATOM     19  C   UNL     1       5.409   2.248  11.574  0.00  0.00    +0.000 C 
BRANCH  19  21
ATOM     20  O   UNL     1       7.693   1.726  10.920  0.00  0.00    +0.000 OA
ATOM     21  C   UNL     1       6.562   1.350  11.181  0.00  0.00    +0.000 C 
BRANCH  21  22
ATOM     22  O   UNL     1       6.213   0.043  11.139  0.00  0.00    +0.000 OA
ATOM     23  H   UNL     1       6.026  -0.351  12.012  0.00  0.00    +0.000 HD
ENDBRANCH  21  22
ENDBRANCH  19  21
ENDBRANCH  18  19
ENDBRANCH  17  18
ENDBRANCH  15  17
ENDBRANCH  14  16
ENDBRANCH   1  14
BRANCH   2  24
ATOM     24  C   UNL     1       7.275   8.454  17.832  0.00  0.00    +0.000 C 
BRANCH  24  25
ATOM     25  O   UNL     1       8.656   8.806  17.874  0.00  0.00    +0.000 OA
BRANCH  25  26
ATOM     26  C   UNL     1       8.955   9.639  18.993  0.00  0.00    +0.000 C 
BRANCH  26  27
ATOM     27  C   UNL     1       9.555  10.928  18.498  0.00  0.00    +0.000 A 
ATOM     28  C   UNL     1       8.743  11.900  17.895  0.00  0.00    +0.000 A 
ATOM     29  C   UNL     1       9.292  13.099  17.437  0.00  0.00    +0.000 A 
ATOM     30  C   UNL     1      10.656  13.340  17.579  0.00  0.00    +0.000 A 
ATOM     31  C   UNL     1      11.473  12.384  18.180  0.00  0.00    +0.000 A 
ATOM     32  C   UNL     1      10.926  11.184  18.637  0.00  0.00    +0.000 A 
ENDBRANCH  26  27
ENDBRANCH  25  26
ENDBRANCH  24  25
ENDBRANCH   2  24
TORSDOF 12
ENDMDL
MODEL 3
REMARK VINA RESULT:      -8.2      0.486      1.058
REMARK  Name = 
REMARK  12 active torsions:
REMARK  status: ('A' for Active; 'I' for Inactive)
REMARK    1  A    between atoms: C_2  and  O_3
REMARK    2  A    between atoms: C_2  and  C_4
REMARK    3  A    between atoms: C_4  and  C_5
REMARK    4  A    between atoms: C_5  and  C_6
REMARK    5  A    between atoms: C_6  and  C_7
REMARK    6  A    between atoms: C_8  and  C_9
REMARK    7  A    between atoms: C_9  and  C_10
REMARK    8  A    between atoms: C_11  and  C_12
REMARK    9  A    between atoms: C_12  and  O_13
REMARK   10  A    between atoms: O_13  and  C_14
REMARK   11  A    between atoms: C_14  and  C_15
REMARK   12  A    between atoms: C_23  and  C_24
REMARK                            x       y       z     vdW  Elec       q    Type
REMARK                         _______ _______ _______ _____ _____    ______ ____
ROOT
ATOM      1  C   UNL     1       5.967   6.338  16.607  0.00  0.00    +0.000 C 
ATOM      2  C   UNL     1       5.392   6.140  18.045  0.00  0.00    +0.000 C 
ATOM      3  C   UNL     1       5.487   4.613  18.215  0.00  0.00    +0.000 C 
ATOM      4  C   UNL     1       5.223   4.087  16.815  0.00  0.00    +0.000 C 
ATOM      5  C   UNL     1       6.397   4.883  16.199  0.00  0.00    +0.000 C 
ATOM      6  C   UNL     1       7.489   4.309  17.126  0.00  0.00    +0.000 C 
ATOM      7  O   UNL     1       6.881   4.293  18.436  0.00  0.00    +0.000 OA
ENDROOT
BRANCH   5   8
ATOM      8  C   UNL     1       6.612   4.667  14.716  0.00  0.00    +0.000 A 
ATOM      9  C   UNL     1       5.811   3.769  13.988  0.00  0.00    +0.000 A 
ATOM     10  C   UNL     1       6.041   3.522  12.632  0.00  0.00    +0.000 A 
ATOM     11  C   UNL     1       7.068   4.185  11.969  0.00  0.00    +0.000 A 
ATOM     12  C   UNL     1       7.853   5.103  12.659  0.00  0.00    +0.000 A 
ATOM     13  C   UNL     1       7.623   5.347  14.019  0.00  0.00    +0.000 A 
ENDBRANCH   5   8
BRANCH   1  14
ATOM     14  C   UNL     1       6.978   7.497  16.469  0.00  0.00    +0.000 C 
BRANCH  14  16
ATOM     15  C   UNL     1       8.453   9.052  17.823  0.00  0.00    +0.000 C 
ATOM     16  C   UNL     1       7.506   8.106  17.737  0.00  0.00    +0.000 C 
BRANCH  15  17
ATOM     17  C   UNL     1       8.901   9.597  19.155  0.00  0.00    +0.000 C 
BRANCH  17  18
ATOM     18  C   UNL     1       9.869  10.767  19.001  0.00  0.00    +0.000 C 
BRANCH  18  19
ATOM     19  C   UNL     1       9.125  12.105  18.943  0.00  0.00    +0.000 C 
BRANCH  19  21
ATOM     20  O   UNL     1      10.425  12.963  17.076  0.00  0.00    +0.000 OA
ATOM     21  C   UNL     1       9.344  12.805  17.620  0.00  0.00    +0.000 C 
BRANCH  21  22
ATOM     22  O   UNL     1       8.192  13.258  17.074  0.00  0.00    +0.000 OA
ATOM     23  H   UNL     1       7.901  12.767  16.283  0.00  0.00    +0.000 HD
ENDBRANCH  21  22
ENDBRANCH  19  21
ENDBRANCH  18  19
ENDBRANCH  17  18
ENDBRANCH  15  17
ENDBRANCH  14  16
ENDBRANCH   1  14
BRANCH   2  24
ATOM     24  C   UNL     1       3.949   6.635  18.164  0.00  0.00    +0.000 C 
BRANCH  24  25
ATOM     25  O   UNL     1       3.487   6.391  19.490  0.00  0.00    +0.000 OA
BRANCH  25  26
ATOM     26  C   UNL     1       2.071   6.230  19.535  0.00  0.00    +0.000 C 
BRANCH  26  27
ATOM     27  C   UNL     1       1.746   4.761  19.607  0.00  0.00    +0.000 A 
ATOM     28  C   UNL     1       1.619   4.125  20.850  0.00  0.00    +0.000 A 
ATOM     29  C   UNL     1       1.314   2.765  20.924  0.00  0.00    +0.000 A 
ATOM     30  C   UNL     1       1.131   2.028  19.757  0.00  0.00    +0.000 A 
ATOM     31  C   UNL     1       1.250   2.649  18.515  0.00  0.00    +0.000 A 
ATOM     32  C   UNL     1       1.556   4.009  18.439  0.00  0.00    +0.000 A 
ENDBRANCH  26  27
ENDBRANCH  25  26
ENDBRANCH  24  25
ENDBRANCH   2  24
TORSDOF 12
ENDMDL
MODEL 4
REMARK VINA RESULT:      -8.2      2.472      7.883
REMARK  Name = 
REMARK  12 active torsions:
REMARK  status: ('A' for Active; 'I' for Inactive)
REMARK    1  A    between atoms: C_2  and  O_3
REMARK    2  A    between atoms: C_2  and  C_4
REMARK    3  A    between atoms: C_4  and  C_5
REMARK    4  A    between atoms: C_5  and  C_6
REMARK    5  A    between atoms: C_6  and  C_7
REMARK    6  A    between atoms: C_8  and  C_9
REMARK    7  A    between atoms: C_9  and  C_10
REMARK    8  A    between atoms: C_11  and  C_12
REMARK    9  A    between atoms: C_12  and  O_13
REMARK   10  A    between atoms: O_13  and  C_14
REMARK   11  A    between atoms: C_14  and  C_15
REMARK   12  A    between atoms: C_23  and  C_24
REMARK                            x       y       z     vdW  Elec       q    Type
REMARK                         _______ _______ _______ _____ _____    ______ ____
ROOT
ATOM      1  C   UNL     1       5.238   6.389  17.560  0.00  0.00    +0.000 C 
ATOM      2  C   UNL     1       6.666   6.744  17.039  0.00  0.00    +0.000 C 
ATOM      3  C   UNL     1       7.190   5.367  16.593  0.00  0.00    +0.000 C 
ATOM      4  C   UNL     1       6.562   4.412  17.592  0.00  0.00    +0.000 C 
ATOM      5  C   UNL     1       5.121   4.855  17.244  0.00  0.00    +0.000 C 
ATOM      6  C   UNL     1       5.219   4.555  15.733  0.00  0.00    +0.000 C 
ATOM      7  O   UNL     1       6.524   5.038  15.351  0.00  0.00    +0.000 OA
ENDROOT
BRANCH   5   8
ATOM      8  C   UNL     1       4.026   4.124  17.991  0.00  0.00    +0.000 A 
ATOM      9  C   UNL     1       3.940   4.181  19.394  0.00  0.00    +0.000 A 
ATOM     10  C   UNL     1       2.966   3.463  20.094  0.00  0.00    +0.000 A 
ATOM     11  C   UNL     1       2.044   2.686  19.402  0.00  0.00    +0.000 A 
ATOM     12  C   UNL     1       2.087   2.640  18.012  0.00  0.00    +0.000 A 
ATOM     13  C   UNL     1       3.066   3.357  17.312  0.00  0.00    +0.000 A 
ENDBRANCH   5   8
BRANCH   1  14
ATOM     14  C   UNL     1       4.123   7.349  17.092  0.00  0.00    +0.000 C 
BRANCH  14  16
ATOM     15  C   UNL     1       2.296   8.836  18.031  0.00  0.00    +0.000 C 
ATOM     16  C   UNL     1       3.096   7.761  18.109  0.00  0.00    +0.000 C 
BRANCH  15  17
ATOM     17  C   UNL     1       1.294   9.149  19.112  0.00  0.00    +0.000 C 
BRANCH  17  18
ATOM     18  C   UNL     1       1.468   8.253  20.336  0.00  0.00    +0.000 C 
BRANCH  18  19
ATOM     19  C   UNL     1       0.301   8.410  21.314  0.00  0.00    +0.000 C 
BRANCH  19  21
ATOM     20  O   UNL     1       1.824   9.637  22.760  0.00  0.00    +0.000 OA
ATOM     21  C   UNL     1       0.708   9.193  22.544  0.00  0.00    +0.000 C 
BRANCH  21  22
ATOM     22  O   UNL     1      -0.314   9.362  23.415  0.00  0.00    +0.000 OA
ATOM     23  H   UNL     1      -1.016   8.689  23.347  0.00  0.00    +0.000 HD
ENDBRANCH  21  22
ENDBRANCH  19  21
ENDBRANCH  18  19
ENDBRANCH  17  18
ENDBRANCH  15  17
ENDBRANCH  14  16
ENDBRANCH   1  14
BRANCH   2  24
ATOM     24  C   UNL     1       7.544   7.358  18.132  0.00  0.00    +0.000 C 
BRANCH  24  25
ATOM     25  O   UNL     1       8.353   8.379  17.551  0.00  0.00    +0.000 OA
BRANCH  25  26
ATOM     26  C   UNL     1       7.926   9.681  17.948  0.00  0.00    +0.000 C 
BRANCH  26  27
ATOM     27  C   UNL     1       9.102  10.431  18.514  0.00  0.00    +0.000 A 
ATOM     28  C   UNL     1       9.266  10.546  19.902  0.00  0.00    +0.000 A 
ATOM     29  C   UNL     1      10.356  11.238  20.434  0.00  0.00    +0.000 A 
ATOM     30  C   UNL     1      11.295  11.818  19.584  0.00  0.00    +0.000 A 
ATOM     31  C   UNL     1      11.146  11.707  18.203  0.00  0.00    +0.000 A 
ATOM     32  C   UNL     1      10.055  11.017  17.670  0.00  0.00    +0.000 A 
ENDBRANCH  26  27
ENDBRANCH  25  26
ENDBRANCH  24  25
ENDBRANCH   2  24
TORSDOF 12
ENDMDL
MODEL 5
REMARK VINA RESULT:      -8.2      2.953      5.118
REMARK  Name = 
REMARK  12 active torsions:
REMARK  status: ('A' for Active; 'I' for Inactive)
REMARK    1  A    between atoms: C_2  and  O_3
REMARK    2  A    between atoms: C_2  and  C_4
REMARK    3  A    between atoms: C_4  and  C_5
REMARK    4  A    between atoms: C_5  and  C_6
REMARK    5  A    between atoms: C_6  and  C_7
REMARK    6  A    between atoms: C_8  and  C_9
REMARK    7  A    between atoms: C_9  and  C_10
REMARK    8  A    between atoms: C_11  and  C_12
REMARK    9  A    between atoms: C_12  and  O_13
REMARK   10  A    between atoms: O_13  and  C_14
REMARK   11  A    between atoms: C_14  and  C_15
REMARK   12  A    between atoms: C_23  and  C_24
REMARK                            x       y       z     vdW  Elec       q    Type
REMARK                         _______ _______ _______ _____ _____    ______ ____
ROOT
ATOM      1  C   UNL     1       5.356   5.313  17.558  0.00  0.00    +0.000 C 
ATOM      2  C   UNL     1       5.855   5.490  19.027  0.00  0.00    +0.000 C 
ATOM      3  C   UNL     1       7.377   5.599  18.832  0.00  0.00    +0.000 C 
ATOM      4  C   UNL     1       7.648   4.680  17.655  0.00  0.00    +0.000 C 
ATOM      5  C   UNL     1       6.680   5.444  16.722  0.00  0.00    +0.000 C 
ATOM      6  C   UNL     1       7.348   6.825  16.888  0.00  0.00    +0.000 C 
ATOM      7  O   UNL     1       7.646   6.917  18.298  0.00  0.00    +0.000 OA
ENDROOT
BRANCH   5   8
ATOM      8  C   UNL     1       6.601   4.916  15.305  0.00  0.00    +0.000 A 
ATOM      9  C   UNL     1       7.543   5.298  14.333  0.00  0.00    +0.000 A 
ATOM     10  C   UNL     1       7.443   4.860  13.010  0.00  0.00    +0.000 A 
ATOM     11  C   UNL     1       6.406   4.012  12.635  0.00  0.00    +0.000 A 
ATOM     12  C   UNL     1       5.481   3.593  13.585  0.00  0.00    +0.000 A 
ATOM     13  C   UNL     1       5.581   4.036  14.910  0.00  0.00    +0.000 A 
ENDBRANCH   5   8
BRANCH   1  14
ATOM     14  C   UNL     1       4.132   6.176  17.183  0.00  0.00    +0.000 C 
BRANCH  14  16
ATOM     15  C   UNL     1       2.495   6.197  19.120  0.00  0.00    +0.000 C 
ATOM     16  C   UNL     1       3.367   6.814  18.309  0.00  0.00    +0.000 C 
BRANCH  15  17
ATOM     17  C   UNL     1       1.789   6.940  20.224  0.00  0.00    +0.000 C 
BRANCH  17  18
ATOM     18  C   UNL     1       1.759   8.446  19.978  0.00  0.00    +0.000 C 
BRANCH  18  19
ATOM     19  C   UNL     1       0.477   9.077  20.528  0.00  0.00    +0.000 C 
BRANCH  19  21
ATOM     20  O   UNL     1       1.307   9.422  22.789  0.00  0.00    +0.000 OA
ATOM     21  C   UNL     1       0.433   9.016  22.040  0.00  0.00    +0.000 C 
BRANCH  21  22
ATOM     22  O   UNL     1      -0.704   8.449  22.505  0.00  0.00    +0.000 OA
ATOM     23  H   UNL     1      -0.687   8.237  23.457  0.00  0.00    +0.000 HD
ENDBRANCH  21  22
ENDBRANCH  19  21
ENDBRANCH  18  19
ENDBRANCH  17  18
ENDBRANCH  15  17
ENDBRANCH  14  16
ENDBRANCH   1  14
BRANCH   2  24
ATOM     24  C   UNL     1       5.480   4.298  19.911  0.00  0.00    +0.000 C 
BRANCH  24  25
ATOM     25  O   UNL     1       5.275   3.157  19.080  0.00  0.00    +0.000 OA
BRANCH  25  26
ATOM     26  C   UNL     1       4.559   2.129  19.763  0.00  0.00    +0.000 C 
BRANCH  26  27
ATOM     27  C   UNL     1       3.099   2.494  19.808  0.00  0.00    +0.000 A 
ATOM     28  C   UNL     1       2.335   2.500  18.631  0.00  0.00    +0.000 A 
ATOM     29  C   UNL     1       0.980   2.834  18.666  0.00  0.00    +0.000 A 
ATOM     30  C   UNL     1       0.375   3.162  19.877  0.00  0.00    +0.000 A 
ATOM     31  C   UNL     1       1.121   3.155  21.053  0.00  0.00    +0.000 A 
ATOM     32  C   UNL     1       2.477   2.822  21.020  0.00  0.00    +0.000 A 
ENDBRANCH  26  27
ENDBRANCH  25  26
ENDBRANCH  24  25
ENDBRANCH   2  24
TORSDOF 12
ENDMDL
MODEL 6
REMARK VINA RESULT:      -8.1      2.813      7.411
REMARK  Name = 
REMARK  12 active torsions:
REMARK  status: ('A' for Active; 'I' for Inactive)
REMARK    1  A    between atoms: C_2  and  O_3
REMARK    2  A    between atoms: C_2  and  C_4
REMARK    3  A    between atoms: C_4  and  C_5
REMARK    4  A    between atoms: C_5  and  C_6
REMARK    5  A    between atoms: C_6  and  C_7
REMARK    6  A    between atoms: C_8  and  C_9
REMARK    7  A    between atoms: C_9  and  C_10
REMARK    8  A    between atoms: C_11  and  C_12
REMARK    9  A    between atoms: C_12  and  O_13
REMARK   10  A    between atoms: O_13  and  C_14
REMARK   11  A    between atoms: C_14  and  C_15
REMARK   12  A    between atoms: C_23  and  C_24
REMARK                            x       y       z     vdW  Elec       q    Type
REMARK                         _______ _______ _______ _____ _____    ______ ____
ROOT
ATOM      1  C   UNL     1       5.358   6.305  17.593  0.00  0.00    +0.000 C 
ATOM      2  C   UNL     1       6.881   6.282  17.251  0.00  0.00    +0.000 C 
ATOM      3  C   UNL     1       7.196   4.777  17.314  0.00  0.00    +0.000 C 
ATOM      4  C   UNL     1       6.284   4.273  18.417  0.00  0.00    +0.000 C 
ATOM      5  C   UNL     1       5.004   4.779  17.711  0.00  0.00    +0.000 C 
ATOM      6  C   UNL     1       5.234   4.016  16.389  0.00  0.00    +0.000 C 
ATOM      7  O   UNL     1       6.644   4.175  16.120  0.00  0.00    +0.000 OA
ENDROOT
BRANCH   5   8
ATOM      8  C   UNL     1       3.709   4.473  18.431  0.00  0.00    +0.000 A 
ATOM      9  C   UNL     1       3.572   4.701  19.812  0.00  0.00    +0.000 A 
ATOM     10  C   UNL     1       2.399   4.367  20.494  0.00  0.00    +0.000 A 
ATOM     11  C   UNL     1       1.327   3.813  19.803  0.00  0.00    +0.000 A 
ATOM     12  C   UNL     1       1.425   3.607  18.431  0.00  0.00    +0.000 A 
ATOM     13  C   UNL     1       2.603   3.940  17.750  0.00  0.00    +0.000 A 
ENDBRANCH   5   8
BRANCH   1  14
ATOM     14  C   UNL     1       4.505   7.216  16.684  0.00  0.00    +0.000 C 
BRANCH  14  16
ATOM     15  C   UNL     1       2.476   7.747  18.107  0.00  0.00    +0.000 C 
ATOM     16  C   UNL     1       3.517   8.128  17.353  0.00  0.00    +0.000 C 
BRANCH  15  17
ATOM     17  C   UNL     1       1.550   8.755  18.737  0.00  0.00    +0.000 C 
BRANCH  17  18
ATOM     18  C   UNL     1       1.627  10.116  18.049  0.00  0.00    +0.000 C 
BRANCH  18  19
ATOM     19  C   UNL     1       1.322  11.255  19.026  0.00  0.00    +0.000 C 
BRANCH  19  21
ATOM     20  O   UNL     1       1.803  13.637  19.125  0.00  0.00    +0.000 OA
ATOM     21  C   UNL     1       1.897  12.569  18.543  0.00  0.00    +0.000 C 
BRANCH  21  22
ATOM     22  O   UNL     1       2.547  12.450  17.362  0.00  0.00    +0.000 OA
ATOM     23  H   UNL     1       3.087  13.226  17.120  0.00  0.00    +0.000 HD
ENDBRANCH  21  22
ENDBRANCH  19  21
ENDBRANCH  18  19
ENDBRANCH  17  18
ENDBRANCH  15  17
ENDBRANCH  14  16
ENDBRANCH   1  14
BRANCH   2  24
ATOM     24  C   UNL     1       7.712   7.079  18.259  0.00  0.00    +0.000 C 
BRANCH  24  25
ATOM     25  O   UNL     1       8.375   8.139  17.574  0.00  0.00    +0.000 OA
BRANCH  25  26
ATOM     26  C   UNL     1       7.863   9.415  17.953  0.00  0.00    +0.000 C 
BRANCH  26  27
ATOM     27  C   UNL     1       8.982  10.243  18.525  0.00  0.00    +0.000 A 
ATOM     28  C   UNL     1       9.861  10.928  17.673  0.00  0.00    +0.000 A 
ATOM     29  C   UNL     1      10.900  11.701  18.197  0.00  0.00    +0.000 A 
ATOM     30  C   UNL     1      11.067  11.799  19.576  0.00  0.00    +0.000 A 
ATOM     31  C   UNL     1      10.199  11.127  20.433  0.00  0.00    +0.000 A 
ATOM     32  C   UNL     1       9.160  10.353  19.911  0.00  0.00    +0.000 A 
ENDBRANCH  26  27
ENDBRANCH  25  26
ENDBRANCH  24  25
ENDBRANCH   2  24
TORSDOF 12
ENDMDL
MODEL 7
REMARK VINA RESULT:      -8.1      1.639      3.050
REMARK  Name = 
REMARK  12 active torsions:
REMARK  status: ('A' for Active; 'I' for Inactive)
REMARK    1  A    between atoms: C_2  and  O_3
REMARK    2  A    between atoms: C_2  and  C_4
REMARK    3  A    between atoms: C_4  and  C_5
REMARK    4  A    between atoms: C_5  and  C_6
REMARK    5  A    between atoms: C_6  and  C_7
REMARK    6  A    between atoms: C_8  and  C_9
REMARK    7  A    between atoms: C_9  and  C_10
REMARK    8  A    between atoms: C_11  and  C_12
REMARK    9  A    between atoms: C_12  and  O_13
REMARK   10  A    between atoms: O_13  and  C_14
REMARK   11  A    between atoms: C_14  and  C_15
REMARK   12  A    between atoms: C_23  and  C_24
REMARK                            x       y       z     vdW  Elec       q    Type
REMARK                         _______ _______ _______ _____ _____    ______ ____
ROOT
ATOM      1  C   UNL     1       4.785   5.552  16.487  0.00  0.00    +0.000 C 
ATOM      2  C   UNL     1       4.220   5.066  17.859  0.00  0.00    +0.000 C 
ATOM      3  C   UNL     1       4.952   3.725  18.044  0.00  0.00    +0.000 C 
ATOM      4  C   UNL     1       5.078   3.195  16.627  0.00  0.00    +0.000 C 
ATOM      5  C   UNL     1       5.842   4.445  16.132  0.00  0.00    +0.000 C 
ATOM      6  C   UNL     1       6.980   4.362  17.170  0.00  0.00    +0.000 C 
ATOM      7  O   UNL     1       6.318   4.032  18.410  0.00  0.00    +0.000 OA
ENDROOT
BRANCH   5   8
ATOM      8  C   UNL     1       6.269   4.404  14.681  0.00  0.00    +0.000 A 
ATOM      9  C   UNL     1       5.585   3.610  13.743  0.00  0.00    +0.000 A 
ATOM     10  C   UNL     1       6.009   3.523  12.414  0.00  0.00    +0.000 A 
ATOM     11  C   UNL     1       7.119   4.245  11.990  0.00  0.00    +0.000 A 
ATOM     12  C   UNL     1       7.793   5.064  12.890  0.00  0.00    +0.000 A 
ATOM     13  C   UNL     1       7.368   5.147  14.223  0.00  0.00    +0.000 A 
ENDBRANCH   5   8
BRANCH   1  14
ATOM     14  C   UNL     1       5.200   7.039  16.449  0.00  0.00    +0.000 C 
BRANCH  14  16
ATOM     15  C   UNL     1       7.343   8.181  17.178  0.00  0.00    +0.000 C 
ATOM     16  C   UNL     1       6.223   7.496  17.451  0.00  0.00    +0.000 C 
BRANCH  15  17
ATOM     17  C   UNL     1       8.297   8.594  18.269  0.00  0.00    +0.000 C 
BRANCH  17  18
ATOM     18  C   UNL     1       8.665  10.073  18.182  0.00  0.00    +0.000 C 
BRANCH  18  19
ATOM     19  C   UNL     1       9.722  10.448  19.225  0.00  0.00    +0.000 C 
BRANCH  19  21
ATOM     20  O   UNL     1      10.818  12.615  19.378  0.00  0.00    +0.000 OA
ATOM     21  C   UNL     1      10.588  11.595  18.749  0.00  0.00    +0.000 C 
BRANCH  21  22
ATOM     22  O   UNL     1      11.102  11.381  17.515  0.00  0.00    +0.000 OA
ATOM     23  H   UNL     1      12.067  11.512  17.454  0.00  0.00    +0.000 HD
ENDBRANCH  21  22
ENDBRANCH  19  21
ENDBRANCH  18  19
ENDBRANCH  17  18
ENDBRANCH  15  17
ENDBRANCH  14  16
ENDBRANCH   1  14
BRANCH   2  24
ATOM     24  C   UNL     1       2.701   4.884  17.825  0.00  0.00    +0.000 C 
BRANCH  24  25
ATOM     25  O   UNL     1       2.165   5.260  19.091  0.00  0.00    +0.000 OA
BRANCH  25  26
ATOM     26  C   UNL     1       2.894   6.338  19.675  0.00  0.00    +0.000 C 
BRANCH  26  27
ATOM     27  C   UNL     1       2.143   7.622  19.441  0.00  0.00    +0.000 A 
ATOM     28  C   UNL     1       2.112   8.200  18.164  0.00  0.00    +0.000 A 
ATOM     29  C   UNL     1       1.414   9.389  17.939  0.00  0.00    +0.000 A 
ATOM     30  C   UNL     1       0.739  10.008  18.988  0.00  0.00    +0.000 A 
ATOM     31  C   UNL     1       0.758   9.442  20.261  0.00  0.00    +0.000 A 
ATOM     32  C   UNL     1       1.457   8.254  20.487  0.00  0.00    +0.000 A 
ENDBRANCH  26  27
ENDBRANCH  25  26
ENDBRANCH  24  25
ENDBRANCH   2  24
TORSDOF 12
ENDMDL
MODEL 8
REMARK VINA RESULT:      -8.1      2.287      8.210
REMARK  Name = 
REMARK  12 active torsions:
REMARK  status: ('A' for Active; 'I' for Inactive)
REMARK    1  A    between atoms: C_2  and  O_3
REMARK    2  A    between atoms: C_2  and  C_4
REMARK    3  A    between atoms: C_4  and  C_5
REMARK    4  A    between atoms: C_5  and  C_6
REMARK    5  A    between atoms: C_6  and  C_7
REMARK    6  A    between atoms: C_8  and  C_9
REMARK    7  A    between atoms: C_9  and  C_10
REMARK    8  A    between atoms: C_11  and  C_12
REMARK    9  A    between atoms: C_12  and  O_13
REMARK   10  A    between atoms: O_13  and  C_14
REMARK   11  A    between atoms: C_14  and  C_15
REMARK   12  A    between atoms: C_23  and  C_24
REMARK                            x       y       z     vdW  Elec       q    Type
REMARK                         _______ _______ _______ _____ _____    ______ ____
ROOT
ATOM      1  C   UNL     1       5.492   6.179  17.513  0.00  0.00    +0.000 C 
ATOM      2  C   UNL     1       6.896   6.798  17.222  0.00  0.00    +0.000 C 
ATOM      3  C   UNL     1       7.668   5.583  16.678  0.00  0.00    +0.000 C 
ATOM      4  C   UNL     1       7.092   4.419  17.463  0.00  0.00    +0.000 C 
ATOM      5  C   UNL     1       5.646   4.704  16.996  0.00  0.00    +0.000 C 
ATOM      6  C   UNL     1       5.946   4.637  15.484  0.00  0.00    +0.000 C 
ATOM      7  O   UNL     1       7.195   5.345  15.331  0.00  0.00    +0.000 OA
ENDROOT
BRANCH   5   8
ATOM      8  C   UNL     1       4.603   3.732  17.504  0.00  0.00    +0.000 A 
ATOM      9  C   UNL     1       4.826   2.964  18.662  0.00  0.00    +0.000 A 
ATOM     10  C   UNL     1       3.892   2.023  19.103  0.00  0.00    +0.000 A 
ATOM     11  C   UNL     1       2.703   1.843  18.405  0.00  0.00    +0.000 A 
ATOM     12  C   UNL     1       2.443   2.614  17.277  0.00  0.00    +0.000 A 
ATOM     13  C   UNL     1       3.382   3.554  16.834  0.00  0.00    +0.000 A 
ENDBRANCH   5   8
BRANCH   1  14
ATOM     14  C   UNL     1       4.298   7.033  17.033  0.00  0.00    +0.000 C 
BRANCH  14  16
ATOM     15  C   UNL     1       3.111   6.817  19.263  0.00  0.00    +0.000 C 
ATOM     16  C   UNL     1       3.231   7.356  18.041  0.00  0.00    +0.000 C 
BRANCH  15  17
ATOM     17  C   UNL     1       2.000   7.224  20.195  0.00  0.00    +0.000 C 
BRANCH  17  18
ATOM     18  C   UNL     1       1.359   6.022  20.886  0.00  0.00    +0.000 C 
BRANCH  18  19
ATOM     19  C   UNL     1       1.952   4.704  20.379  0.00  0.00    +0.000 C 
BRANCH  19  21
ATOM     20  O   UNL     1       2.370   3.301  22.322  0.00  0.00    +0.000 OA
ATOM     21  C   UNL     1       1.689   3.570  21.346  0.00  0.00    +0.000 C 
BRANCH  21  22
ATOM     22  O   UNL     1       0.590   2.851  21.018  0.00  0.00    +0.000 OA
ATOM     23  H   UNL     1       0.270   2.999  20.109  0.00  0.00    +0.000 HD
ENDBRANCH  21  22
ENDBRANCH  19  21
ENDBRANCH  18  19
ENDBRANCH  17  18
ENDBRANCH  15  17
ENDBRANCH  14  16
ENDBRANCH   1  14
BRANCH   2  24
ATOM     24  C   UNL     1       7.549   7.366  18.484  0.00  0.00    +0.000 C 
BRANCH  24  25
ATOM     25  O   UNL     1       8.561   8.294  18.099  0.00  0.00    +0.000 OA
BRANCH  25  26
ATOM     26  C   UNL     1       8.008   9.559  17.739  0.00  0.00    +0.000 C 
BRANCH  26  27
ATOM     27  C   UNL     1       8.834  10.651  18.365  0.00  0.00    +0.000 A 
ATOM     28  C   UNL     1       8.892  11.921  17.772  0.00  0.00    +0.000 A 
ATOM     29  C   UNL     1       9.653  12.940  18.348  0.00  0.00    +0.000 A 
ATOM     30  C   UNL     1      10.360  12.701  19.524  0.00  0.00    +0.000 A 
ATOM     31  C   UNL     1      10.308  11.445  20.125  0.00  0.00    +0.000 A 
ATOM     32  C   UNL     1       9.548  10.424  19.549  0.00  0.00    +0.000 A 
ENDBRANCH  26  27
ENDBRANCH  25  26
ENDBRANCH  24  25
ENDBRANCH   2  24
TORSDOF 12
ENDMDL
MODEL 9
REMARK VINA RESULT:      -8.0      2.667      8.712
REMARK  Name = 
REMARK  12 active torsions:
REMARK  status: ('A' for Active; 'I' for Inactive)
REMARK    1  A    between atoms: C_2  and  O_3
REMARK    2  A    between atoms: C_2  and  C_4
REMARK    3  A    between atoms: C_4  and  C_5
REMARK    4  A    between atoms: C_5  and  C_6
REMARK    5  A    between atoms: C_6  and  C_7
REMARK    6  A    between atoms: C_8  and  C_9
REMARK    7  A    between atoms: C_9  and  C_10
REMARK    8  A    between atoms: C_11  and  C_12
REMARK    9  A    between atoms: C_12  and  O_13
REMARK   10  A    between atoms: O_13  and  C_14
REMARK   11  A    between atoms: C_14  and  C_15
REMARK   12  A    between atoms: C_23  and  C_24
REMARK                            x       y       z     vdW  Elec       q    Type
REMARK                         _______ _______ _______ _____ _____    ______ ____
ROOT
ATOM      1  C   UNL     1       6.277   6.543  17.191  0.00  0.00    +0.000 C 
ATOM      2  C   UNL     1       7.696   6.786  17.795  0.00  0.00    +0.000 C 
ATOM      3  C   UNL     1       7.802   5.644  18.822  0.00  0.00    +0.000 C 
ATOM      4  C   UNL     1       6.378   5.490  19.323  0.00  0.00    +0.000 C 
ATOM      5  C   UNL     1       5.814   5.224  17.908  0.00  0.00    +0.000 C 
ATOM      6  C   UNL     1       6.732   4.026  17.588  0.00  0.00    +0.000 C 
ATOM      7  O   UNL     1       8.031   4.422  18.080  0.00  0.00    +0.000 OA
ENDROOT
BRANCH   5   8
ATOM      8  C   UNL     1       4.327   4.948  17.850  0.00  0.00    +0.000 A 
ATOM      9  C   UNL     1       3.390   5.924  18.234  0.00  0.00    +0.000 A 
ATOM     10  C   UNL     1       2.018   5.656  18.238  0.00  0.00    +0.000 A 
ATOM     11  C   UNL     1       1.552   4.408  17.837  0.00  0.00    +0.000 A 
ATOM     12  C   UNL     1       2.457   3.437  17.420  0.00  0.00    +0.000 A 
ATOM     13  C   UNL     1       3.831   3.706  17.421  0.00  0.00    +0.000 A 
ENDBRANCH   5   8
BRANCH   1  14
ATOM     14  C   UNL     1       6.205   6.638  15.652  0.00  0.00    +0.000 C 
BRANCH  14  16
ATOM     15  C   UNL     1       5.590   4.600  14.276  0.00  0.00    +0.000 C 
ATOM     16  C   UNL     1       6.497   5.390  14.869  0.00  0.00    +0.000 C 
BRANCH  15  17
ATOM     17  C   UNL     1       6.000   3.371  13.507  0.00  0.00    +0.000 C 
BRANCH  17  18
ATOM     18  C   UNL     1       5.689   3.494  12.017  0.00  0.00    +0.000 C 
BRANCH  18  19
ATOM     19  C   UNL     1       5.301   2.140  11.414  0.00  0.00    +0.000 C 
BRANCH  19  21
ATOM     20  O   UNL     1       7.634   1.663  10.921  0.00  0.00    +0.000 OA
ATOM     21  C   UNL     1       6.514   1.263  11.193  0.00  0.00    +0.000 C 
BRANCH  21  22
ATOM     22  O   UNL     1       6.236  -0.054  11.328  0.00  0.00    +0.000 OA
ATOM     23  H   UNL     1       5.375  -0.242  11.746  0.00  0.00    +0.000 HD
ENDBRANCH  21  22
ENDBRANCH  19  21
ENDBRANCH  18  19
ENDBRANCH  17  18
ENDBRANCH  15  17
ENDBRANCH  14  16
ENDBRANCH   1  14
BRANCH   2  24
ATOM     24  C   UNL     1       7.814   8.159  18.460  0.00  0.00    +0.000 C 
BRANCH  24  25
ATOM     25  O   UNL     1       8.467   9.051  17.558  0.00  0.00    +0.000 OA
BRANCH  25  26
ATOM     26  C   UNL     1       8.242  10.415  17.910  0.00  0.00    +0.000 C 
BRANCH  26  27
ATOM     27  C   UNL     1       9.483  10.965  18.562  0.00  0.00    +0.000 A 
ATOM     28  C   UNL     1      10.586  11.337  17.780  0.00  0.00    +0.000 A 
ATOM     29  C   UNL     1      11.739  11.851  18.377  0.00  0.00    +0.000 A 
ATOM     30  C   UNL     1      11.799  12.000  19.761  0.00  0.00    +0.000 A 
ATOM     31  C   UNL     1      10.708  11.638  20.548  0.00  0.00    +0.000 A 
ATOM     32  C   UNL     1       9.555  11.123  19.952  0.00  0.00    +0.000 A 
ENDBRANCH  26  27
ENDBRANCH  25  26
ENDBRANCH  24  25
ENDBRANCH   2  24
TORSDOF 12
ENDMDL
