MODEL 1
REMARK VINA RESULT:      -9.1      0.000      0.000
REMARK  Name = 
REMARK  9 active torsions:
REMARK  status: ('A' for Active; 'I' for Inactive)
REMARK    1  A    between atoms: C_1  and  C_2
REMARK    2  A    between atoms: C_2  and  C_3
REMARK    3  A    between atoms: C_2  and  C_4
REMARK    4  A    between atoms: C_2  and  C_5
REMARK    5  A    between atoms: C_7  and  N_8
REMARK    6  A    between atoms: C_17  and  C_18
REMARK    7  A    between atoms: N_20  and  C_21
REMARK    8  A    between atoms: C_21  and  C_22
REMARK    9  A    between atoms: C_28  and  O_29
REMARK                            x       y       z     vdW  Elec       q    Type
REMARK                         _______ _______ _______ _____ _____    ______ ____
ROOT
ATOM      1  C   UNL     1       2.501   4.141  19.038  0.00  0.00    +0.000 A 
ATOM      2  C   UNL     1       3.500   4.159  18.043  0.00  0.00    +0.000 A 
ATOM      3  C   UNL     1       4.100   5.347  17.597  0.00  0.00    +0.000 A 
ATOM      4  C   UNL     1       3.650   6.570  18.093  0.00  0.00    +0.000 A 
ATOM      5  C   UNL     1       2.597   6.603  19.018  0.00  0.00    +0.000 A 
ATOM      6  C   UNL     1       2.074   5.396  19.525  0.00  0.00    +0.000 A 
ENDROOT
BRANCH   3   7
ATOM      7  N   UNL     1       5.176   5.271  16.673  0.00  0.00    +0.000 N 
ATOM      8  C   UNL     1       5.224   4.161  15.731  0.00  0.00    +0.000 C 
ATOM      9  C   UNL     1       5.751   4.641  14.392  0.00  0.00    +0.000 C 
ATOM     10  C   UNL     1       7.072   5.325  14.600  0.00  0.00    +0.000 C 
ATOM     11  O   UNL     1       7.929   5.386  13.723  0.00  0.00    +0.000 OA
ATOM     12  N   UNL     1       7.219   5.977  15.793  0.00  0.00    +0.000 N 
ATOM     13  C   UNL     1       6.242   6.164  16.740  0.00  0.00    +0.000 C 
ATOM     14  O   UNL     1       6.363   7.069  17.561  0.00  0.00    +0.000 OA
ATOM     15  H   UNL     1       8.031   6.573  15.878  0.00  0.00    +0.000 HD
ENDBRANCH   3   7
BRANCH   1  17
ATOM     16  C   UNL     1       1.841   2.721  21.102  0.00  0.00    +0.000 C 
ATOM     17  C   UNL     1       1.923   2.802  19.555  0.00  0.00    +0.000 C 
ATOM     18  C   UNL     1       2.819   1.633  19.098  0.00  0.00    +0.000 C 
ATOM     19  C   UNL     1       0.480   2.582  19.046  0.00  0.00    +0.000 C 
ENDBRANCH   1  17
BRANCH   5  20
ATOM     20  C   UNL     1       2.071   7.940  19.432  0.00  0.00    +0.000 C 
ATOM     21  O   UNL     1       1.818   8.166  20.608  0.00  0.00    +0.000 OA
ATOM     22  N   UNL     1       1.901   8.864  18.420  0.00  0.00    +0.000 N 
ATOM     23  H   UNL     1       2.393   8.711  17.543  0.00  0.00    +0.000 HD
BRANCH  22  24
ATOM     24  C   UNL     1       1.446  10.215  18.686  0.00  0.00    +0.000 C 
BRANCH  24  25
ATOM     25  C   UNL     1      -0.031  10.353  18.410  0.00  0.00    +0.000 A 
ATOM     26  C   UNL     1      -0.817  11.231  19.172  0.00  0.00    +0.000 A 
ATOM     27  C   UNL     1      -2.186  11.359  18.927  0.00  0.00    +0.000 A 
ATOM     28  C   UNL     1      -2.789  10.601  17.919  0.00  0.00    +0.000 A 
ATOM     29  C   UNL     1      -2.021   9.722  17.163  0.00  0.00    +0.000 A 
ATOM     30  C   UNL     1      -0.651   9.593  17.406  0.00  0.00    +0.000 A 
ENDBRANCH  24  25
ENDBRANCH  22  24
ENDBRANCH   5  20
BRANCH   6  31
ATOM     31  O   UNL     1       1.145   5.414  20.535  0.00  0.00    +0.000 OA
ATOM     32  H   UNL     1       1.264   4.622  21.096  0.00  0.00    +0.000 HD
ENDBRANCH   6  31
TORSDOF 6
ENDMDL
MODEL 2
REMARK VINA RESULT:      -9.0      2.207      7.388
REMARK  Name = 
REMARK  9 active torsions:
REMARK  status: ('A' for Active; 'I' for Inactive)
REMARK    1  A    between atoms: C_1  and  C_2
REMARK    2  A    between atoms: C_2  and  C_3
REMARK    3  A    between atoms: C_2  and  C_4
REMARK    4  A    between atoms: C_2  and  C_5
REMARK    5  A    between atoms: C_7  and  N_8
REMARK    6  A    between atoms: C_17  and  C_18
REMARK    7  A    between atoms: N_20  and  C_21
REMARK    8  A    between atoms: C_21  and  C_22
REMARK    9  A    between atoms: C_28  and  O_29
REMARK                            x       y       z     vdW  Elec       q    Type
REMARK                         _______ _______ _______ _____ _____    ______ ____
ROOT
ATOM      1  C   UNL     1       2.632   4.567  19.094  0.00  0.00    +0.000 A 
ATOM      2  C   UNL     1       2.108   5.737  19.683  0.00  0.00    +0.000 A 
ATOM      3  C   UNL     1       2.411   7.021  19.208  0.00  0.00    +0.000 A 
ATOM      4  C   UNL     1       3.321   7.168  18.160  0.00  0.00    +0.000 A 
ATOM      5  C   UNL     1       3.933   6.036  17.605  0.00  0.00    +0.000 A 
ATOM      6  C   UNL     1       3.544   4.750  18.032  0.00  0.00    +0.000 A 
ENDROOT
BRANCH   3   7
ATOM      7  N   UNL     1       1.756   8.142  19.784  0.00  0.00    +0.000 N 
ATOM      8  C   UNL     1       1.245   8.041  21.144  0.00  0.00    +0.000 C 
ATOM      9  C   UNL     1       1.439   9.359  21.869  0.00  0.00    +0.000 C 
ATOM     10  C   UNL     1       0.817  10.462  21.062  0.00  0.00    +0.000 C 
ATOM     11  O   UNL     1       0.402  11.500  21.570  0.00  0.00    +0.000 OA
ATOM     12  N   UNL     1       0.843  10.289  19.706  0.00  0.00    +0.000 N 
ATOM     13  C   UNL     1       1.486   9.281  19.030  0.00  0.00    +0.000 C 
ATOM     14  O   UNL     1       1.771   9.435  17.845  0.00  0.00    +0.000 OA
ATOM     15  H   UNL     1       0.578  11.089  19.149  0.00  0.00    +0.000 HD
ENDBRANCH   3   7
BRANCH   1  17
ATOM     16  C   UNL     1       1.189   3.217  20.770  0.00  0.00    +0.000 C 
ATOM     17  C   UNL     1       2.210   3.168  19.603  0.00  0.00    +0.000 C 
ATOM     18  C   UNL     1       3.445   2.407  20.128  0.00  0.00    +0.000 C 
ATOM     19  C   UNL     1       1.529   2.347  18.483  0.00  0.00    +0.000 C 
ENDBRANCH   1  17
BRANCH   5  20
ATOM     20  C   UNL     1       4.987   6.250  16.566  0.00  0.00    +0.000 C 
ATOM     21  O   UNL     1       4.876   7.157  15.752  0.00  0.00    +0.000 OA
ATOM     22  N   UNL     1       6.055   5.374  16.598  0.00  0.00    +0.000 N 
ATOM     23  H   UNL     1       6.221   4.851  17.453  0.00  0.00    +0.000 HD
BRANCH  22  24
ATOM     24  C   UNL     1       7.172   5.498  15.681  0.00  0.00    +0.000 C 
BRANCH  24  25
ATOM     25  C   UNL     1       6.872   4.819  14.367  0.00  0.00    +0.000 A 
ATOM     26  C   UNL     1       7.678   5.057  13.245  0.00  0.00    +0.000 A 
ATOM     27  C   UNL     1       7.402   4.438  12.023  0.00  0.00    +0.000 A 
ATOM     28  C   UNL     1       6.307   3.578  11.908  0.00  0.00    +0.000 A 
ATOM     29  C   UNL     1       5.495   3.341  13.013  0.00  0.00    +0.000 A 
ATOM     30  C   UNL     1       5.771   3.959  14.236  0.00  0.00    +0.000 A 
ENDBRANCH  24  25
ENDBRANCH  22  24
ENDBRANCH   5  20
BRANCH   6  31
ATOM     31  O   UNL     1       4.028   3.633  17.398  0.00  0.00    +0.000 OA
ATOM     32  H   UNL     1       3.430   3.396  16.662  0.00  0.00    +0.000 HD
ENDBRANCH   6  31
TORSDOF 6
ENDMDL
MODEL 3
REMARK VINA RESULT:      -9.0      1.829      2.312
REMARK  Name = 
REMARK  9 active torsions:
REMARK  status: ('A' for Active; 'I' for Inactive)
REMARK    1  A    between atoms: C_1  and  C_2
REMARK    2  A    between atoms: C_2  and  C_3
REMARK    3  A    between atoms: C_2  and  C_4
REMARK    4  A    between atoms: C_2  and  C_5
REMARK    5  A    between atoms: C_7  and  N_8
REMARK    6  A    between atoms: C_17  and  C_18
REMARK    7  A    between atoms: N_20  and  C_21
REMARK    8  A    between atoms: C_21  and  C_22
REMARK    9  A    between atoms: C_28  and  O_29
REMARK                            x       y       z     vdW  Elec       q    Type
REMARK                         _______ _______ _______ _____ _____    ______ ____
ROOT
ATOM      1  C   UNL     1       2.899   4.827  19.130  0.00  0.00    +0.000 A 
ATOM      2  C   UNL     1       3.882   4.605  18.143  0.00  0.00    +0.000 A 
ATOM      3  C   UNL     1       4.354   5.625  17.304  0.00  0.00    +0.000 A 
ATOM      4  C   UNL     1       3.786   6.897  17.385  0.00  0.00    +0.000 A 
ATOM      5  C   UNL     1       2.744   7.138  18.291  0.00  0.00    +0.000 A 
ATOM      6  C   UNL     1       2.351   6.127  19.190  0.00  0.00    +0.000 A 
ENDROOT
BRANCH   3   7
ATOM      7  N   UNL     1       5.424   5.345  16.412  0.00  0.00    +0.000 N 
ATOM      8  C   UNL     1       5.365   4.144  15.591  0.00  0.00    +0.000 C 
ATOM      9  C   UNL     1       5.949   4.426  14.219  0.00  0.00    +0.000 C 
ATOM     10  C   UNL     1       7.331   4.991  14.379  0.00  0.00    +0.000 C 
ATOM     11  O   UNL     1       8.197   4.874  13.516  0.00  0.00    +0.000 OA
ATOM     12  N   UNL     1       7.535   5.746  15.502  0.00  0.00    +0.000 N 
ATOM     13  C   UNL     1       6.575   6.128  16.407  0.00  0.00    +0.000 C 
ATOM     14  O   UNL     1       6.782   7.098  17.132  0.00  0.00    +0.000 OA
ATOM     15  H   UNL     1       8.402   6.263  15.539  0.00  0.00    +0.000 HD
ENDBRANCH   3   7
BRANCH   1  17
ATOM     16  C   UNL     1       2.281   4.154  21.554  0.00  0.00    +0.000 C 
ATOM     17  C   UNL     1       2.465   3.690  20.085  0.00  0.00    +0.000 C 
ATOM     18  C   UNL     1       3.537   2.581  20.102  0.00  0.00    +0.000 C 
ATOM     19  C   UNL     1       1.104   3.092  19.660  0.00  0.00    +0.000 C 
ENDBRANCH   1  17
BRANCH   5  20
ATOM     20  C   UNL     1       2.088   8.482  18.260  0.00  0.00    +0.000 C 
ATOM     21  O   UNL     1       1.971   9.087  17.202  0.00  0.00    +0.000 OA
ATOM     22  N   UNL     1       1.643   8.967  19.474  0.00  0.00    +0.000 N 
ATOM     23  H   UNL     1       1.513   8.306  20.236  0.00  0.00    +0.000 HD
BRANCH  22  24
ATOM     24  C   UNL     1       0.945  10.233  19.582  0.00  0.00    +0.000 C 
BRANCH  24  25
ATOM     25  C   UNL     1       0.230  10.346  20.906  0.00  0.00    +0.000 A 
ATOM     26  C   UNL     1       0.334   9.323  21.859  0.00  0.00    +0.000 A 
ATOM     27  C   UNL     1      -0.330   9.418  23.085  0.00  0.00    +0.000 A 
ATOM     28  C   UNL     1      -1.116  10.538  23.368  0.00  0.00    +0.000 A 
ATOM     29  C   UNL     1      -1.232  11.556  22.427  0.00  0.00    +0.000 A 
ATOM     30  C   UNL     1      -0.568  11.463  21.201  0.00  0.00    +0.000 A 
ENDBRANCH  24  25
ENDBRANCH  22  24
ENDBRANCH   5  20
BRANCH   6  31
ATOM     31  O   UNL     1       1.434   6.395  20.176  0.00  0.00    +0.000 OA
ATOM     32  H   UNL     1       0.883   7.155  19.906  0.00  0.00    +0.000 HD
ENDBRANCH   6  31
TORSDOF 6
ENDMDL
MODEL 4
REMARK VINA RESULT:      -8.9      1.760      7.475
REMARK  Name = 
REMARK  9 active torsions:
REMARK  status: ('A' for Active; 'I' for Inactive)
REMARK    1  A    between atoms: C_1  and  C_2
REMARK    2  A    between atoms: C_2  and  C_3
REMARK    3  A    between atoms: C_2  and  C_4
REMARK    4  A    between atoms: C_2  and  C_5
REMARK    5  A    between atoms: C_7  and  N_8
REMARK    6  A    between atoms: C_17  and  C_18
REMARK    7  A    between atoms: N_20  and  C_21
REMARK    8  A    between atoms: C_21  and  C_22
REMARK    9  A    between atoms: C_28  and  O_29
REMARK                            x       y       z     vdW  Elec       q    Type
REMARK                         _______ _______ _______ _____ _____    ______ ____
ROOT
ATOM      1  C   UNL     1       2.624   4.752  18.950  0.00  0.00    +0.000 A 
ATOM      2  C   UNL     1       2.061   5.981  19.352  0.00  0.00    +0.000 A 
ATOM      3  C   UNL     1       2.400   7.200  18.745  0.00  0.00    +0.000 A 
ATOM      4  C   UNL     1       3.384   7.223  17.757  0.00  0.00    +0.000 A 
ATOM      5  C   UNL     1       4.033   6.036  17.390  0.00  0.00    +0.000 A 
ATOM      6  C   UNL     1       3.611   4.810  17.943  0.00  0.00    +0.000 A 
ENDROOT
BRANCH   3   7
ATOM      7  N   UNL     1       1.707   8.378  19.131  0.00  0.00    +0.000 N 
ATOM      8  C   UNL     1       1.525   9.444  18.155  0.00  0.00    +0.000 C 
ATOM      9  C   UNL     1       0.162  10.084  18.336  0.00  0.00    +0.000 C 
ATOM     10  C   UNL     1       0.012  10.528  19.762  0.00  0.00    +0.000 C 
ATOM     11  O   UNL     1      -0.724  11.454  20.092  0.00  0.00    +0.000 OA
ATOM     12  N   UNL     1       0.662   9.763  20.691  0.00  0.00    +0.000 N 
ATOM     13  C   UNL     1       1.317   8.580  20.452  0.00  0.00    +0.000 C 
ATOM     14  O   UNL     1       1.515   7.802  21.381  0.00  0.00    +0.000 OA
ATOM     15  H   UNL     1       0.438   9.952  21.658  0.00  0.00    +0.000 HD
ENDBRANCH   3   7
BRANCH   1  17
ATOM     16  C   UNL     1       1.515   2.439  18.586  0.00  0.00    +0.000 C 
ATOM     17  C   UNL     1       2.163   3.422  19.595  0.00  0.00    +0.000 C 
ATOM     18  C   UNL     1       1.103   3.705  20.680  0.00  0.00    +0.000 C 
ATOM     19  C   UNL     1       3.355   2.660  20.218  0.00  0.00    +0.000 C 
ENDBRANCH   1  17
BRANCH   5  20
ATOM     20  C   UNL     1       5.160   6.128  16.412  0.00  0.00    +0.000 C 
ATOM     21  O   UNL     1       5.158   6.996  15.549  0.00  0.00    +0.000 OA
ATOM     22  N   UNL     1       6.166   5.192  16.556  0.00  0.00    +0.000 N 
ATOM     23  H   UNL     1       6.244   4.706  17.446  0.00  0.00    +0.000 HD
BRANCH  22  24
ATOM     24  C   UNL     1       7.342   5.197  15.709  0.00  0.00    +0.000 C 
BRANCH  24  25
ATOM     25  C   UNL     1       7.015   4.688  14.326  0.00  0.00    +0.000 A 
ATOM     26  C   UNL     1       5.997   3.742  14.140  0.00  0.00    +0.000 A 
ATOM     27  C   UNL     1       5.694   3.261  12.863  0.00  0.00    +0.000 A 
ATOM     28  C   UNL     1       6.414   3.717  11.756  0.00  0.00    +0.000 A 
ATOM     29  C   UNL     1       7.432   4.649  11.931  0.00  0.00    +0.000 A 
ATOM     30  C   UNL     1       7.736   5.132  13.206  0.00  0.00    +0.000 A 
ENDBRANCH  24  25
ENDBRANCH  22  24
ENDBRANCH   5  20
BRANCH   6  31
ATOM     31  O   UNL     1       4.138   3.627  17.487  0.00  0.00    +0.000 OA
ATOM     32  H   UNL     1       4.808   3.816  16.801  0.00  0.00    +0.000 HD
ENDBRANCH   6  31
TORSDOF 6
ENDMDL
MODEL 5
REMARK VINA RESULT:      -8.9      1.754      7.423
REMARK  Name = 
REMARK  9 active torsions:
REMARK  status: ('A' for Active; 'I' for Inactive)
REMARK    1  A    between atoms: C_1  and  C_2
REMARK    2  A    between atoms: C_2  and  C_3
REMARK    3  A    between atoms: C_2  and  C_4
REMARK    4  A    between atoms: C_2  and  C_5
REMARK    5  A    between atoms: C_7  and  N_8
REMARK    6  A    between atoms: C_17  and  C_18
REMARK    7  A    between atoms: N_20  and  C_21
REMARK    8  A    between atoms: C_21  and  C_22
REMARK    9  A    between atoms: C_28  and  O_29
REMARK                            x       y       z     vdW  Elec       q    Type
REMARK                         _______ _______ _______ _____ _____    ______ ____
ROOT
ATOM      1  C   UNL     1       2.599   4.799  18.923  0.00  0.00    +0.000 A 
ATOM      2  C   UNL     1       2.035   6.030  19.317  0.00  0.00    +0.000 A 
ATOM      3  C   UNL     1       2.383   7.248  18.714  0.00  0.00    +0.000 A 
ATOM      4  C   UNL     1       3.377   7.268  17.735  0.00  0.00    +0.000 A 
ATOM      5  C   UNL     1       4.027   6.079  17.376  0.00  0.00    +0.000 A 
ATOM      6  C   UNL     1       3.596   4.854  17.925  0.00  0.00    +0.000 A 
ENDROOT
BRANCH   3   7
ATOM      7  N   UNL     1       1.689   8.428  19.091  0.00  0.00    +0.000 N 
ATOM      8  C   UNL     1       1.462   9.465  18.094  0.00  0.00    +0.000 C 
ATOM      9  C   UNL     1       0.098  10.094  18.304  0.00  0.00    +0.000 C 
ATOM     10  C   UNL     1      -0.010  10.575  19.722  0.00  0.00    +0.000 C 
ATOM     11  O   UNL     1      -0.746  11.501  20.052  0.00  0.00    +0.000 OA
ATOM     12  N   UNL     1       0.679   9.843  20.649  0.00  0.00    +0.000 N 
ATOM     13  C   UNL     1       1.340   8.661  20.419  0.00  0.00    +0.000 C 
ATOM     14  O   UNL     1       1.579   7.910  21.361  0.00  0.00    +0.000 OA
ATOM     15  H   UNL     1       0.485  10.054  21.618  0.00  0.00    +0.000 HD
ENDBRANCH   3   7
BRANCH   1  17
ATOM     16  C   UNL     1       1.143   3.671  20.744  0.00  0.00    +0.000 C 
ATOM     17  C   UNL     1       2.128   3.472  19.563  0.00  0.00    +0.000 C 
ATOM     18  C   UNL     1       3.341   2.702  20.125  0.00  0.00    +0.000 C 
ATOM     19  C   UNL     1       1.381   2.589  18.537  0.00  0.00    +0.000 C 
ENDBRANCH   1  17
BRANCH   5  20
ATOM     20  C   UNL     1       5.164   6.168  16.410  0.00  0.00    +0.000 C 
ATOM     21  O   UNL     1       5.180   7.044  15.555  0.00  0.00    +0.000 OA
ATOM     22  N   UNL     1       6.158   5.219  16.554  0.00  0.00    +0.000 N 
ATOM     23  H   UNL     1       6.223   4.723  17.440  0.00  0.00    +0.000 HD
BRANCH  22  24
ATOM     24  C   UNL     1       7.342   5.219  15.718  0.00  0.00    +0.000 C 
BRANCH  24  25
ATOM     25  C   UNL     1       7.029   4.701  14.336  0.00  0.00    +0.000 A 
ATOM     26  C   UNL     1       7.759   5.152  13.226  0.00  0.00    +0.000 A 
ATOM     27  C   UNL     1       7.469   4.682  11.942  0.00  0.00    +0.000 A 
ATOM     28  C   UNL     1       6.437   3.760  11.753  0.00  0.00    +0.000 A 
ATOM     29  C   UNL     1       5.702   3.312  12.845  0.00  0.00    +0.000 A 
ATOM     30  C   UNL     1       5.990   3.780  14.129  0.00  0.00    +0.000 A 
ENDBRANCH  24  25
ENDBRANCH  22  24
ENDBRANCH   5  20
BRANCH   6  31
ATOM     31  O   UNL     1       4.125   3.670  17.475  0.00  0.00    +0.000 OA
ATOM     32  H   UNL     1       3.522   2.938  17.711  0.00  0.00    +0.000 HD
ENDBRANCH   6  31
TORSDOF 6
ENDMDL
MODEL 6
REMARK VINA RESULT:      -8.8      1.806      7.267
REMARK  Name = 
REMARK  9 active torsions:
REMARK  status: ('A' for Active; 'I' for Inactive)
REMARK    1  A    between atoms: C_1  and  C_2
REMARK    2  A    between atoms: C_2  and  C_3
REMARK    3  A    between atoms: C_2  and  C_4
REMARK    4  A    between atoms: C_2  and  C_5
REMARK    5  A    between atoms: C_7  and  N_8
REMARK    6  A    between atoms: C_17  and  C_18
REMARK    7  A    between atoms: N_20  and  C_21
REMARK    8  A    between atoms: C_21  and  C_22
REMARK    9  A    between atoms: C_28  and  O_29
REMARK                            x       y       z     vdW  Elec       q    Type
REMARK                         _______ _______ _______ _____ _____    ______ ____
ROOT
ATOM      1  C   UNL     1       2.695   4.172  19.562  0.00  0.00    +0.000 A 
ATOM      2  C   UNL     1       2.184   5.483  19.666  0.00  0.00    +0.000 A 
ATOM      3  C   UNL     1       2.796   6.583  19.046  0.00  0.00    +0.000 A 
ATOM      4  C   UNL     1       3.996   6.402  18.359  0.00  0.00    +0.000 A 
ATOM      5  C   UNL     1       4.585   5.131  18.307  0.00  0.00    +0.000 A 
ATOM      6  C   UNL     1       3.907   4.023  18.853  0.00  0.00    +0.000 A 
ENDROOT
BRANCH   3   7
ATOM      7  N   UNL     1       2.159   7.851  19.106  0.00  0.00    +0.000 N 
ATOM      8  C   UNL     1       2.263   8.750  17.966  0.00  0.00    +0.000 C 
ATOM      9  C   UNL     1       0.957   9.497  17.774  0.00  0.00    +0.000 C 
ATOM     10  C   UNL     1       0.587  10.180  19.059  0.00  0.00    +0.000 C 
ATOM     11  O   UNL     1      -0.106  11.193  19.095  0.00  0.00    +0.000 OA
ATOM     12  N   UNL     1       0.977   9.539  20.203  0.00  0.00    +0.000 N 
ATOM     13  C   UNL     1       1.550   8.292  20.278  0.00  0.00    +0.000 C 
ATOM     14  O   UNL     1       1.498   7.667  21.334  0.00  0.00    +0.000 OA
ATOM     15  H   UNL     1       0.597   9.898  21.067  0.00  0.00    +0.000 HD
ENDBRANCH   3   7
BRANCH   1  17
ATOM     16  C   UNL     1       1.942   1.707  19.307  0.00  0.00    +0.000 C 
ATOM     17  C   UNL     1       1.944   2.977  20.197  0.00  0.00    +0.000 C 
ATOM     18  C   UNL     1       0.467   3.353  20.434  0.00  0.00    +0.000 C 
ATOM     19  C   UNL     1       2.595   2.554  21.533  0.00  0.00    +0.000 C 
ENDBRANCH   1  17
BRANCH   5  20
ATOM     20  C   UNL     1       5.928   5.009  17.661  0.00  0.00    +0.000 C 
ATOM     21  O   UNL     1       6.853   4.473  18.258  0.00  0.00    +0.000 OA
ATOM     22  N   UNL     1       6.038   5.530  16.386  0.00  0.00    +0.000 N 
ATOM     23  H   UNL     1       5.183   5.688  15.858  0.00  0.00    +0.000 HD
BRANCH  22  24
ATOM     24  C   UNL     1       7.267   5.434  15.624  0.00  0.00    +0.000 C 
BRANCH  24  25
ATOM     25  C   UNL     1       7.014   4.846  14.258  0.00  0.00    +0.000 A 
ATOM     26  C   UNL     1       5.998   3.898  14.070  0.00  0.00    +0.000 A 
ATOM     27  C   UNL     1       5.762   3.344  12.809  0.00  0.00    +0.000 A 
ATOM     28  C   UNL     1       6.549   3.727  11.720  0.00  0.00    +0.000 A 
ATOM     29  C   UNL     1       7.565   4.660  11.897  0.00  0.00    +0.000 A 
ATOM     30  C   UNL     1       7.801   5.216  13.156  0.00  0.00    +0.000 A 
ENDBRANCH  24  25
ENDBRANCH  22  24
ENDBRANCH   5  20
BRANCH   6  31
ATOM     31  O   UNL     1       4.402   2.754  18.682  0.00  0.00    +0.000 OA
ATOM     32  H   UNL     1       3.780   2.237  18.134  0.00  0.00    +0.000 HD
ENDBRANCH   6  31
TORSDOF 6
ENDMDL
MODEL 7
REMARK VINA RESULT:      -8.8      1.810      7.225
REMARK  Name = 
REMARK  9 active torsions:
REMARK  status: ('A' for Active; 'I' for Inactive)
REMARK    1  A    between atoms: C_1  and  C_2
REMARK    2  A    between atoms: C_2  and  C_3
REMARK    3  A    between atoms: C_2  and  C_4
REMARK    4  A    between atoms: C_2  and  C_5
REMARK    5  A    between atoms: C_7  and  N_8
REMARK    6  A    between atoms: C_17  and  C_18
REMARK    7  A    between atoms: N_20  and  C_21
REMARK    8  A    between atoms: C_21  and  C_22
REMARK    9  A    between atoms: C_28  and  O_29
REMARK                            x       y       z     vdW  Elec       q    Type
REMARK                         _______ _______ _______ _____ _____    ______ ____
ROOT
ATOM      1  C   UNL     1       2.729   4.179  19.559  0.00  0.00    +0.000 A 
ATOM      2  C   UNL     1       2.206   5.486  19.654  0.00  0.00    +0.000 A 
ATOM      3  C   UNL     1       2.816   6.589  19.038  0.00  0.00    +0.000 A 
ATOM      4  C   UNL     1       4.026   6.417  18.365  0.00  0.00    +0.000 A 
ATOM      5  C   UNL     1       4.626   5.151  18.323  0.00  0.00    +0.000 A 
ATOM      6  C   UNL     1       3.951   4.039  18.866  0.00  0.00    +0.000 A 
ENDROOT
BRANCH   3   7
ATOM      7  N   UNL     1       2.167   7.852  19.087  0.00  0.00    +0.000 N 
ATOM      8  C   UNL     1       2.253   8.737  17.934  0.00  0.00    +0.000 C 
ATOM      9  C   UNL     1       0.939   9.469  17.744  0.00  0.00    +0.000 C 
ATOM     10  C   UNL     1       0.574  10.166  19.024  0.00  0.00    +0.000 C 
ATOM     11  O   UNL     1      -0.129  11.172  19.052  0.00  0.00    +0.000 OA
ATOM     12  N   UNL     1       0.980   9.543  20.172  0.00  0.00    +0.000 N 
ATOM     13  C   UNL     1       1.565   8.303  20.258  0.00  0.00    +0.000 C 
ATOM     14  O   UNL     1       1.527   7.691  21.322  0.00  0.00    +0.000 OA
ATOM     15  H   UNL     1       0.603   9.910  21.035  0.00  0.00    +0.000 HD
ENDBRANCH   3   7
BRANCH   1  17
ATOM     16  C   UNL     1       2.634   2.466  21.500  0.00  0.00    +0.000 C 
ATOM     17  C   UNL     1       1.982   2.980  20.190  0.00  0.00    +0.000 C 
ATOM     18  C   UNL     1       1.972   1.792  19.205  0.00  0.00    +0.000 C 
ATOM     19  C   UNL     1       0.530   3.359  20.563  0.00  0.00    +0.000 C 
ENDBRANCH   1  17
BRANCH   5  20
ATOM     20  C   UNL     1       5.977   5.038  17.693  0.00  0.00    +0.000 C 
ATOM     21  O   UNL     1       6.917   4.579  18.328  0.00  0.00    +0.000 OA
ATOM     22  N   UNL     1       6.075   5.477  16.387  0.00  0.00    +0.000 N 
ATOM     23  H   UNL     1       5.219   5.568  15.846  0.00  0.00    +0.000 HD
BRANCH  22  24
ATOM     24  C   UNL     1       7.313   5.379  15.639  0.00  0.00    +0.000 C 
BRANCH  24  25
ATOM     25  C   UNL     1       7.070   4.814  14.261  0.00  0.00    +0.000 A 
ATOM     26  C   UNL     1       7.818   5.268  13.165  0.00  0.00    +0.000 A 
ATOM     27  C   UNL     1       7.593   4.754  11.885  0.00  0.00    +0.000 A 
ATOM     28  C   UNL     1       6.609   3.782  11.686  0.00  0.00    +0.000 A 
ATOM     29  C   UNL     1       5.856   3.330  12.765  0.00  0.00    +0.000 A 
ATOM     30  C   UNL     1       6.081   3.842  14.045  0.00  0.00    +0.000 A 
ENDBRANCH  24  25
ENDBRANCH  22  24
ENDBRANCH   5  20
BRANCH   6  31
ATOM     31  O   UNL     1       4.459   2.773  18.704  0.00  0.00    +0.000 OA
ATOM     32  H   UNL     1       5.174   2.796  18.039  0.00  0.00    +0.000 HD
ENDBRANCH   6  31
TORSDOF 6
ENDMDL
MODEL 8
REMARK VINA RESULT:      -8.6      1.971      7.508
REMARK  Name = 
REMARK  9 active torsions:
REMARK  status: ('A' for Active; 'I' for Inactive)
REMARK    1  A    between atoms: C_1  and  C_2
REMARK    2  A    between atoms: C_2  and  C_3
REMARK    3  A    between atoms: C_2  and  C_4
REMARK    4  A    between atoms: C_2  and  C_5
REMARK    5  A    between atoms: C_7  and  N_8
REMARK    6  A    between atoms: C_17  and  C_18
REMARK    7  A    between atoms: N_20  and  C_21
REMARK    8  A    between atoms: C_21  and  C_22
REMARK    9  A    between atoms: C_28  and  O_29
REMARK                            x       y       z     vdW  Elec       q    Type
REMARK                         _______ _______ _______ _____ _____    ______ ____
ROOT
ATOM      1  C   UNL     1       2.888   4.530  18.822  0.00  0.00    +0.000 A 
ATOM      2  C   UNL     1       2.316   5.770  19.173  0.00  0.00    +0.000 A 
ATOM      3  C   UNL     1       2.696   6.976  18.565  0.00  0.00    +0.000 A 
ATOM      4  C   UNL     1       3.729   6.976  17.627  0.00  0.00    +0.000 A 
ATOM      5  C   UNL     1       4.386   5.778  17.315  0.00  0.00    +0.000 A 
ATOM      6  C   UNL     1       3.926   4.564  17.865  0.00  0.00    +0.000 A 
ENDROOT
BRANCH   3   7
ATOM      7  N   UNL     1       1.994   8.166  18.895  0.00  0.00    +0.000 N 
ATOM      8  C   UNL     1       1.870   9.216  17.893  0.00  0.00    +0.000 C 
ATOM      9  C   UNL     1       0.505   9.869  17.993  0.00  0.00    +0.000 C 
ATOM     10  C   UNL     1       0.286  10.339  19.402  0.00  0.00    +0.000 C 
ATOM     11  O   UNL     1      -0.459  11.276  19.679  0.00  0.00    +0.000 OA
ATOM     12  N   UNL     1       0.881   9.585  20.376  0.00  0.00    +0.000 N 
ATOM     13  C   UNL     1       1.538   8.393  20.190  0.00  0.00    +0.000 C 
ATOM     14  O   UNL     1       1.682   7.630  21.141  0.00  0.00    +0.000 OA
ATOM     15  H   UNL     1       0.610   9.792  21.327  0.00  0.00    +0.000 HD
ENDBRANCH   3   7
BRANCH   1  17
ATOM     16  C   UNL     1       3.465   2.485  20.303  0.00  0.00    +0.000 C 
ATOM     17  C   UNL     1       2.385   3.216  19.464  0.00  0.00    +0.000 C 
ATOM     18  C   UNL     1       1.940   2.231  18.362  0.00  0.00    +0.000 C 
ATOM     19  C   UNL     1       1.208   3.480  20.431  0.00  0.00    +0.000 C 
ENDBRANCH   1  17
BRANCH   5  20
ATOM     20  C   UNL     1       5.562   5.845  16.394  0.00  0.00    +0.000 C 
ATOM     21  O   UNL     1       6.477   6.627  16.619  0.00  0.00    +0.000 OA
ATOM     22  N   UNL     1       5.535   4.986  15.312  0.00  0.00    +0.000 N 
ATOM     23  H   UNL     1       4.908   4.187  15.350  0.00  0.00    +0.000 HD
BRANCH  22  24
ATOM     24  C   UNL     1       6.634   4.911  14.369  0.00  0.00    +0.000 C 
BRANCH  24  25
ATOM     25  C   UNL     1       6.290   4.009  13.209  0.00  0.00    +0.000 A 
ATOM     26  C   UNL     1       4.951   3.757  12.878  0.00  0.00    +0.000 A 
ATOM     27  C   UNL     1       4.626   2.917  11.809  0.00  0.00    +0.000 A 
ATOM     28  C   UNL     1       5.640   2.312  11.063  0.00  0.00    +0.000 A 
ATOM     29  C   UNL     1       6.972   2.548  11.388  0.00  0.00    +0.000 A 
ATOM     30  C   UNL     1       7.299   3.389  12.455  0.00  0.00    +0.000 A 
ENDBRANCH  24  25
ENDBRANCH  22  24
ENDBRANCH   5  20
BRANCH   6  31
ATOM     31  O   UNL     1       4.466   3.370  17.456  0.00  0.00    +0.000 OA
ATOM     32  H   UNL     1       3.895   2.637  17.760  0.00  0.00    +0.000 HD
ENDBRANCH   6  31
TORSDOF 6
ENDMDL
MODEL 9
REMARK VINA RESULT:      -8.6      2.133      7.422
REMARK  Name = 
REMARK  9 active torsions:
REMARK  status: ('A' for Active; 'I' for Inactive)
REMARK    1  A    between atoms: C_1  and  C_2
REMARK    2  A    between atoms: C_2  and  C_3
REMARK    3  A    between atoms: C_2  and  C_4
REMARK    4  A    between atoms: C_2  and  C_5
REMARK    5  A    between atoms: C_7  and  N_8
REMARK    6  A    between atoms: C_17  and  C_18
REMARK    7  A    between atoms: N_20  and  C_21
REMARK    8  A    between atoms: C_21  and  C_22
REMARK    9  A    between atoms: C_28  and  O_29
REMARK                            x       y       z     vdW  Elec       q    Type
REMARK                         _______ _______ _______ _____ _____    ______ ____
ROOT
ATOM      1  C   UNL     1       2.857   4.461  19.461  0.00  0.00    +0.000 A 
ATOM      2  C   UNL     1       2.193   5.661  19.789  0.00  0.00    +0.000 A 
ATOM      3  C   UNL     1       2.595   6.907  19.287  0.00  0.00    +0.000 A 
ATOM      4  C   UNL     1       3.738   6.990  18.492  0.00  0.00    +0.000 A 
ATOM      5  C   UNL     1       4.479   5.833  18.215  0.00  0.00    +0.000 A 
ATOM      6  C   UNL     1       4.005   4.578  18.649  0.00  0.00    +0.000 A 
ENDROOT
BRANCH   3   7
ATOM      7  N   UNL     1       1.807   8.054  19.575  0.00  0.00    +0.000 N 
ATOM      8  C   UNL     1       1.133   8.144  20.863  0.00  0.00    +0.000 C 
ATOM      9  C   UNL     1       1.156   9.578  21.359  0.00  0.00    +0.000 C 
ATOM     10  C   UNL     1       0.578  10.474  20.302  0.00  0.00    +0.000 C 
ATOM     11  O   UNL     1       0.041  11.546  20.565  0.00  0.00    +0.000 OA
ATOM     12  N   UNL     1       0.787  10.075  19.010  0.00  0.00    +0.000 N 
ATOM     13  C   UNL     1       1.569   9.022  18.603  0.00  0.00    +0.000 C 
ATOM     14  O   UNL     1       1.993   8.996  17.451  0.00  0.00    +0.000 OA
ATOM     15  H   UNL     1       0.549  10.746  18.293  0.00  0.00    +0.000 HD
ENDBRANCH   3   7
BRANCH   1  17
ATOM     16  C   UNL     1       1.942   2.118  18.839  0.00  0.00    +0.000 C 
ATOM     17  C   UNL     1       2.331   3.099  19.975  0.00  0.00    +0.000 C 
ATOM     18  C   UNL     1       1.063   3.314  20.827  0.00  0.00    +0.000 C 
ATOM     19  C   UNL     1       3.403   2.366  20.814  0.00  0.00    +0.000 C 
ENDBRANCH   1  17
BRANCH   5  20
ATOM     20  C   UNL     1       5.760   5.987  17.458  0.00  0.00    +0.000 C 
ATOM     21  O   UNL     1       6.604   6.791  17.831  0.00  0.00    +0.000 OA
ATOM     22  N   UNL     1       5.907   5.180  16.346  0.00  0.00    +0.000 N 
ATOM     23  H   UNL     1       5.316   4.357  16.269  0.00  0.00    +0.000 HD
BRANCH  22  24
ATOM     24  C   UNL     1       7.119   5.191  15.550  0.00  0.00    +0.000 C 
BRANCH  24  25
ATOM     25  C   UNL     1       6.858   4.664  14.160  0.00  0.00    +0.000 A 
ATOM     26  C   UNL     1       5.790   3.786  13.922  0.00  0.00    +0.000 A 
ATOM     27  C   UNL     1       5.547   3.289  12.639  0.00  0.00    +0.000 A 
ATOM     28  C   UNL     1       6.378   3.658  11.578  0.00  0.00    +0.000 A 
ATOM     29  C   UNL     1       7.445   4.521  11.804  0.00  0.00    +0.000 A 
ATOM     30  C   UNL     1       7.689   5.020  13.086  0.00  0.00    +0.000 A 
ENDBRANCH  24  25
ENDBRANCH  22  24
ENDBRANCH   5  20
BRANCH   6  31
ATOM     31  O   UNL     1       4.643   3.425  18.261  0.00  0.00    +0.000 OA
ATOM     32  H   UNL     1       5.230   3.620  17.505  0.00  0.00    +0.000 HD
ENDBRANCH   6  31
TORSDOF 6
ENDMDL
