MODEL 1
REMARK VINA RESULT:      -8.5      0.000      0.000
REMARK  Name = 
REMARK  9 active torsions:
REMARK  status: ('A' for Active; 'I' for Inactive)
REMARK    1  A    between atoms: C_2  and  C_4
REMARK    2  A    between atoms: C_7  and  O_8
REMARK    3  A    between atoms: C_9  and  O_10
REMARK    4  A    between atoms: O_10  and  C_11
REMARK    5  A    between atoms: C_11  and  C_12
REMARK    6  A    between atoms: N_14  and  C_15
REMARK    7  A    between atoms: C_18  and  C_19
REMARK    8  A    between atoms: C_24  and  S_25
REMARK    9  A    between atoms: S_25  and  N_26
REMARK                            x       y       z     vdW  Elec       q    Type
REMARK                         _______ _______ _______ _____ _____    ______ ____
ROOT
ATOM      1  C   UNL     1       0.579  11.229  21.038  0.00  0.00    +0.000 C 
ATOM      2  O   UNL     1       1.759  11.572  21.064  0.00  0.00    +0.000 OA
ATOM      3  N   UNL     1       0.103  10.029  20.509  0.00  0.00    +0.000 N 
ATOM      4  H   UNL     1      -0.810  10.119  20.083  0.00  0.00    +0.000 HD
ENDROOT
BRANCH   3   5
ATOM      5  C   UNL     1       0.983   9.162  19.841  0.00  0.00    +0.000 A 
ATOM      6  C   UNL     1       1.540   8.083  20.515  0.00  0.00    +0.000 A 
ATOM      7  C   UNL     1       2.378   7.195  19.829  0.00  0.00    +0.000 A 
ATOM      8  C   UNL     1       2.673   7.350  18.455  0.00  0.00    +0.000 A 
ATOM      9  C   UNL     1       2.024   8.405  17.795  0.00  0.00    +0.000 A 
ATOM     10  C   UNL     1       1.214   9.322  18.480  0.00  0.00    +0.000 A 
BRANCH   8  11
ATOM     11  C   UNL     1       3.590   6.402  17.759  0.00  0.00    +0.000 A 
ATOM     12  C   UNL     1       4.802   6.930  17.238  0.00  0.00    +0.000 A 
ATOM     13  C   UNL     1       5.749   6.151  16.561  0.00  0.00    +0.000 A 
ATOM     14  C   UNL     1       5.539   4.792  16.410  0.00  0.00    +0.000 A 
ATOM     15  C   UNL     1       4.372   4.227  16.909  0.00  0.00    +0.000 A 
ATOM     16  C   UNL     1       3.385   5.018  17.552  0.00  0.00    +0.000 A 
BRANCH  16  17
ATOM     17  S   UNL     1       1.926   4.106  17.992  0.00  0.00    +0.000 S 
ATOM     18  O   UNL     1       1.850   4.026  19.428  0.00  0.00    +0.000 OA
ATOM     19  O   UNL     1       0.777   4.456  17.176  0.00  0.00    +0.000 OA
BRANCH  17  20
ATOM     20  N   UNL     1       2.284   2.550  17.455  0.00  0.00    +0.000 NA
ATOM     21  H   UNL     1       1.447   1.968  17.511  0.00  0.00    +0.000 HD
ATOM     22  H   UNL     1       2.659   2.631  16.507  0.00  0.00    +0.000 HD
ENDBRANCH  17  20
ENDBRANCH  16  17
ENDBRANCH   8  11
ENDBRANCH   3   5
BRANCH   1  23
ATOM     23  C   UNL     1      -0.532  12.112  21.601  0.00  0.00    +0.000 C 
BRANCH  23  24
ATOM     24  O   UNL     1      -1.453  12.343  20.543  0.00  0.00    +0.000 OA
BRANCH  24  29
ATOM     25  C   UNL     1      -4.284  12.862  22.731  0.00  0.00    +0.000 A 
ATOM     26  C   UNL     1      -5.372  12.867  21.858  0.00  0.00    +0.000 A 
ATOM     27  C   UNL     1      -5.166  12.717  20.486  0.00  0.00    +0.000 A 
ATOM     28  C   UNL     1      -3.872  12.542  19.986  0.00  0.00    +0.000 A 
ATOM     29  C   UNL     1      -2.772  12.526  20.853  0.00  0.00    +0.000 A 
ATOM     30  C   UNL     1      -2.989  12.697  22.228  0.00  0.00    +0.000 A 
BRANCH  25  32
ATOM     31  N   UNL     1      -4.092  14.058  24.804  0.00  0.00    +0.000 NA
ATOM     32  C   UNL     1      -4.528  13.006  24.192  0.00  0.00    +0.000 C 
ATOM     33  N   UNL     1      -5.187  12.033  24.886  0.00  0.00    +0.000 N 
ATOM     34  H   UNL     1      -4.369  14.030  25.785  0.00  0.00    +0.000 HD
ATOM     35  H   UNL     1      -5.042  12.027  25.889  0.00  0.00    +0.000 HD
ATOM     36  H   UNL     1      -5.134  11.098  24.495  0.00  0.00    +0.000 HD
ENDBRANCH  25  32
BRANCH  28  37
ATOM     37  O   UNL     1      -3.722  12.372  18.637  0.00  0.00    +0.000 OA
ATOM     38  H   UNL     1      -3.282  11.520  18.474  0.00  0.00    +0.000 HD
ENDBRANCH  28  37
ENDBRANCH  24  29
ENDBRANCH  23  24
ENDBRANCH   1  23
TORSDOF 9
ENDMDL
MODEL 2
REMARK VINA RESULT:      -8.5      2.181      3.215
REMARK  Name = 
REMARK  9 active torsions:
REMARK  status: ('A' for Active; 'I' for Inactive)
REMARK    1  A    between atoms: C_2  and  C_4
REMARK    2  A    between atoms: C_7  and  O_8
REMARK    3  A    between atoms: C_9  and  O_10
REMARK    4  A    between atoms: O_10  and  C_11
REMARK    5  A    between atoms: C_11  and  C_12
REMARK    6  A    between atoms: N_14  and  C_15
REMARK    7  A    between atoms: C_18  and  C_19
REMARK    8  A    between atoms: C_24  and  S_25
REMARK    9  A    between atoms: S_25  and  N_26
REMARK                            x       y       z     vdW  Elec       q    Type
REMARK                         _______ _______ _______ _____ _____    ______ ____
ROOT
ATOM      1  C   UNL     1       0.394  11.025  21.117  0.00  0.00    +0.000 C 
ATOM      2  O   UNL     1       1.557  11.417  21.155  0.00  0.00    +0.000 OA
ATOM      3  N   UNL     1      -0.027   9.815  20.564  0.00  0.00    +0.000 N 
ATOM      4  H   UNL     1      -0.942   9.873  20.133  0.00  0.00    +0.000 HD
ENDROOT
BRANCH   3   5
ATOM      5  C   UNL     1       0.893   8.998  19.886  0.00  0.00    +0.000 A 
ATOM      6  C   UNL     1       1.446   7.897  20.527  0.00  0.00    +0.000 A 
ATOM      7  C   UNL     1       2.325   7.060  19.829  0.00  0.00    +0.000 A 
ATOM      8  C   UNL     1       2.666   7.288  18.476  0.00  0.00    +0.000 A 
ATOM      9  C   UNL     1       2.019   8.363  17.845  0.00  0.00    +0.000 A 
ATOM     10  C   UNL     1       1.168   9.230  18.544  0.00  0.00    +0.000 A 
BRANCH   8  11
ATOM     11  C   UNL     1       3.625   6.393  17.767  0.00  0.00    +0.000 A 
ATOM     12  C   UNL     1       4.810   6.983  17.251  0.00  0.00    +0.000 A 
ATOM     13  C   UNL     1       5.792   6.258  16.565  0.00  0.00    +0.000 A 
ATOM     14  C   UNL     1       5.646   4.892  16.398  0.00  0.00    +0.000 A 
ATOM     15  C   UNL     1       4.508   4.266  16.892  0.00  0.00    +0.000 A 
ATOM     16  C   UNL     1       3.486   5.003  17.545  0.00  0.00    +0.000 A 
BRANCH  16  17
ATOM     17  S   UNL     1       2.072   4.018  17.976  0.00  0.00    +0.000 S 
ATOM     18  O   UNL     1       2.075   3.808  19.401  0.00  0.00    +0.000 OA
ATOM     19  O   UNL     1       0.873   4.409  17.256  0.00  0.00    +0.000 OA
BRANCH  17  20
ATOM     20  N   UNL     1       2.433   2.526  17.283  0.00  0.00    +0.000 NA
ATOM     21  H   UNL     1       1.784   1.820  17.632  0.00  0.00    +0.000 HD
ATOM     22  H   UNL     1       2.397   2.642  16.267  0.00  0.00    +0.000 HD
ENDBRANCH  17  20
ENDBRANCH  16  17
ENDBRANCH   8  11
ENDBRANCH   3   5
BRANCH   1  23
ATOM     23  C   UNL     1      -0.758  11.849  21.688  0.00  0.00    +0.000 C 
BRANCH  23  24
ATOM     24  O   UNL     1      -1.173  12.744  20.664  0.00  0.00    +0.000 OA
BRANCH  24  29
ATOM     25  C   UNL     1      -3.036  11.518  17.818  0.00  0.00    +0.000 A 
ATOM     26  C   UNL     1      -4.365  11.741  18.181  0.00  0.00    +0.000 A 
ATOM     27  C   UNL     1      -4.665  12.296  19.425  0.00  0.00    +0.000 A 
ATOM     28  C   UNL     1      -3.635  12.649  20.303  0.00  0.00    +0.000 A 
ATOM     29  C   UNL     1      -2.296  12.439  19.947  0.00  0.00    +0.000 A 
ATOM     30  C   UNL     1      -2.007  11.863  18.701  0.00  0.00    +0.000 A 
BRANCH  25  32
ATOM     31  N   UNL     1      -3.271  11.476  15.429  0.00  0.00    +0.000 NA
ATOM     32  C   UNL     1      -2.738  10.942  16.479  0.00  0.00    +0.000 C 
ATOM     33  N   UNL     1      -1.928   9.850  16.357  0.00  0.00    +0.000 N 
ATOM     34  H   UNL     1      -2.943  10.998  14.590  0.00  0.00    +0.000 HD
ATOM     35  H   UNL     1      -2.020   9.323  15.496  0.00  0.00    +0.000 HD
ATOM     36  H   UNL     1      -1.883   9.239  17.166  0.00  0.00    +0.000 HD
ENDBRANCH  25  32
BRANCH  28  37
ATOM     37  O   UNL     1      -3.976  13.215  21.500  0.00  0.00    +0.000 OA
ATOM     38  H   UNL     1      -4.169  14.158  21.360  0.00  0.00    +0.000 HD
ENDBRANCH  28  37
ENDBRANCH  24  29
ENDBRANCH  23  24
ENDBRANCH   1  23
TORSDOF 9
ENDMDL
MODEL 3
REMARK VINA RESULT:      -8.4      0.865      1.046
REMARK  Name = 
REMARK  9 active torsions:
REMARK  status: ('A' for Active; 'I' for Inactive)
REMARK    1  A    between atoms: C_2  and  C_4
REMARK    2  A    between atoms: C_7  and  O_8
REMARK    3  A    between atoms: C_9  and  O_10
REMARK    4  A    between atoms: O_10  and  C_11
REMARK    5  A    between atoms: C_11  and  C_12
REMARK    6  A    between atoms: N_14  and  C_15
REMARK    7  A    between atoms: C_18  and  C_19
REMARK    8  A    between atoms: C_24  and  S_25
REMARK    9  A    between atoms: S_25  and  N_26
REMARK                            x       y       z     vdW  Elec       q    Type
REMARK                         _______ _______ _______ _____ _____    ______ ____
ROOT
ATOM      1  C   UNL     1       0.713  10.100  21.708  0.00  0.00    +0.000 C 
ATOM      2  O   UNL     1       1.660   9.710  22.386  0.00  0.00    +0.000 OA
ATOM      3  N   UNL     1       0.400   9.643  20.427  0.00  0.00    +0.000 N 
ATOM      4  H   UNL     1       0.003  10.362  19.836  0.00  0.00    +0.000 HD
ENDROOT
BRANCH   3   5
ATOM      5  C   UNL     1       1.265   8.752  19.772  0.00  0.00    +0.000 A 
ATOM      6  C   UNL     1       1.663   7.580  20.402  0.00  0.00    +0.000 A 
ATOM      7  C   UNL     1       2.486   6.673  19.723  0.00  0.00    +0.000 A 
ATOM      8  C   UNL     1       2.925   6.903  18.398  0.00  0.00    +0.000 A 
ATOM      9  C   UNL     1       2.433   8.059  17.772  0.00  0.00    +0.000 A 
ATOM     10  C   UNL     1       1.640   8.992  18.455  0.00  0.00    +0.000 A 
BRANCH   8  11
ATOM     11  C   UNL     1       3.823   5.931  17.712  0.00  0.00    +0.000 A 
ATOM     12  C   UNL     1       5.014   6.442  17.129  0.00  0.00    +0.000 A 
ATOM     13  C   UNL     1       5.942   5.639  16.454  0.00  0.00    +0.000 A 
ATOM     14  C   UNL     1       5.735   4.274  16.366  0.00  0.00    +0.000 A 
ATOM     15  C   UNL     1       4.588   3.725  16.927  0.00  0.00    +0.000 A 
ATOM     16  C   UNL     1       3.619   4.539  17.569  0.00  0.00    +0.000 A 
BRANCH  16  17
ATOM     17  S   UNL     1       2.180   3.640  18.095  0.00  0.00    +0.000 S 
ATOM     18  O   UNL     1       2.258   3.441  19.520  0.00  0.00    +0.000 OA
ATOM     19  O   UNL     1       0.965   4.094  17.444  0.00  0.00    +0.000 OA
BRANCH  17  20
ATOM     20  N   UNL     1       2.413   2.124  17.398  0.00  0.00    +0.000 NA
ATOM     21  H   UNL     1       2.908   1.518  18.054  0.00  0.00    +0.000 HD
ATOM     22  H   UNL     1       1.494   1.765  17.129  0.00  0.00    +0.000 HD
ENDBRANCH  17  20
ENDBRANCH  16  17
ENDBRANCH   8  11
ENDBRANCH   3   5
BRANCH   1  23
ATOM     23  C   UNL     1      -0.257  11.167  22.211  0.00  0.00    +0.000 C 
BRANCH  23  24
ATOM     24  O   UNL     1      -1.117  11.488  21.125  0.00  0.00    +0.000 OA
BRANCH  24  29
ATOM     25  C   UNL     1      -3.697  12.983  23.170  0.00  0.00    +0.000 A 
ATOM     26  C   UNL     1      -4.493  13.659  22.244  0.00  0.00    +0.000 A 
ATOM     27  C   UNL     1      -4.155  13.644  20.891  0.00  0.00    +0.000 A 
ATOM     28  C   UNL     1      -3.030  12.936  20.457  0.00  0.00    +0.000 A 
ATOM     29  C   UNL     1      -2.228  12.246  21.375  0.00  0.00    +0.000 A 
ATOM     30  C   UNL     1      -2.566  12.283  22.735  0.00  0.00    +0.000 A 
BRANCH  25  32
ATOM     31  N   UNL     1      -4.780  12.016  25.082  0.00  0.00    +0.000 NA
ATOM     32  C   UNL     1      -4.087  12.998  24.606  0.00  0.00    +0.000 C 
ATOM     33  N   UNL     1      -3.735  14.042  25.411  0.00  0.00    +0.000 N 
ATOM     34  H   UNL     1      -4.933  12.149  26.082  0.00  0.00    +0.000 HD
ATOM     35  H   UNL     1      -4.283  14.155  26.257  0.00  0.00    +0.000 HD
ATOM     36  H   UNL     1      -3.584  14.930  24.943  0.00  0.00    +0.000 HD
ENDBRANCH  25  32
BRANCH  28  37
ATOM     37  O   UNL     1      -2.753  12.927  19.117  0.00  0.00    +0.000 OA
ATOM     38  H   UNL     1      -2.788  13.839  18.782  0.00  0.00    +0.000 HD
ENDBRANCH  28  37
ENDBRANCH  24  29
ENDBRANCH  23  24
ENDBRANCH   1  23
TORSDOF 9
ENDMDL
MODEL 4
REMARK VINA RESULT:      -8.3      2.410      3.296
REMARK  Name = 
REMARK  9 active torsions:
REMARK  status: ('A' for Active; 'I' for Inactive)
REMARK    1  A    between atoms: C_2  and  C_4
REMARK    2  A    between atoms: C_7  and  O_8
REMARK    3  A    between atoms: C_9  and  O_10
REMARK    4  A    between atoms: O_10  and  C_11
REMARK    5  A    between atoms: C_11  and  C_12
REMARK    6  A    between atoms: N_14  and  C_15
REMARK    7  A    between atoms: C_18  and  C_19
REMARK    8  A    between atoms: C_24  and  S_25
REMARK    9  A    between atoms: S_25  and  N_26
REMARK                            x       y       z     vdW  Elec       q    Type
REMARK                         _______ _______ _______ _____ _____    ______ ____
ROOT
ATOM      1  C   UNL     1      -0.095  10.589  19.927  0.00  0.00    +0.000 C 
ATOM      2  O   UNL     1      -0.997   9.984  19.352  0.00  0.00    +0.000 OA
ATOM      3  N   UNL     1       1.203  10.112  20.109  0.00  0.00    +0.000 N 
ATOM      4  H   UNL     1       1.618  10.414  20.982  0.00  0.00    +0.000 HD
ENDROOT
BRANCH   3   5
ATOM      5  C   UNL     1       1.526   8.799  19.726  0.00  0.00    +0.000 A 
ATOM      6  C   UNL     1       1.933   8.536  18.425  0.00  0.00    +0.000 A 
ATOM      7  C   UNL     1       2.300   7.233  18.064  0.00  0.00    +0.000 A 
ATOM      8  C   UNL     1       2.282   6.164  18.989  0.00  0.00    +0.000 A 
ATOM      9  C   UNL     1       1.942   6.492  20.312  0.00  0.00    +0.000 A 
ATOM     10  C   UNL     1       1.537   7.784  20.675  0.00  0.00    +0.000 A 
BRANCH   8  11
ATOM     11  C   UNL     1       2.652   4.783  18.568  0.00  0.00    +0.000 A 
ATOM     12  C   UNL     1       1.608   3.822  18.486  0.00  0.00    +0.000 A 
ATOM     13  C   UNL     1       1.819   2.491  18.106  0.00  0.00    +0.000 A 
ATOM     14  C   UNL     1       3.089   2.071  17.751  0.00  0.00    +0.000 A 
ATOM     15  C   UNL     1       4.142   2.975  17.807  0.00  0.00    +0.000 A 
ATOM     16  C   UNL     1       3.945   4.312  18.239  0.00  0.00    +0.000 A 
BRANCH  16  17
ATOM     17  S   UNL     1       5.452   5.247  18.352  0.00  0.00    +0.000 S 
ATOM     18  O   UNL     1       5.464   6.227  17.297  0.00  0.00    +0.000 OA
ATOM     19  O   UNL     1       5.805   5.580  19.720  0.00  0.00    +0.000 OA
BRANCH  17  20
ATOM     20  N   UNL     1       6.626   4.109  17.948  0.00  0.00    +0.000 NA
ATOM     21  H   UNL     1       7.184   4.455  17.167  0.00  0.00    +0.000 HD
ATOM     22  H   UNL     1       7.178   3.925  18.789  0.00  0.00    +0.000 HD
ENDBRANCH  17  20
ENDBRANCH  16  17
ENDBRANCH   8  11
ENDBRANCH   3   5
BRANCH   1  23
ATOM     23  C   UNL     1      -0.306  11.978  20.526  0.00  0.00    +0.000 C 
BRANCH  23  24
ATOM     24  O   UNL     1      -0.440  11.806  21.931  0.00  0.00    +0.000 OA
BRANCH  24  29
ATOM     25  C   UNL     1      -3.246  13.221  23.719  0.00  0.00    +0.000 A 
ATOM     26  C   UNL     1      -2.799  14.496  24.067  0.00  0.00    +0.000 A 
ATOM     27  C   UNL     1      -1.510  14.902  23.720  0.00  0.00    +0.000 A 
ATOM     28  C   UNL     1      -0.671  14.040  23.006  0.00  0.00    +0.000 A 
ATOM     29  C   UNL     1      -1.112  12.761  22.644  0.00  0.00    +0.000 A 
ATOM     30  C   UNL     1      -2.402  12.356  23.014  0.00  0.00    +0.000 A 
BRANCH  25  32
ATOM     31  N   UNL     1      -4.811  12.007  25.077  0.00  0.00    +0.000 NA
ATOM     32  C   UNL     1      -4.631  12.815  24.084  0.00  0.00    +0.000 C 
ATOM     33  N   UNL     1      -5.700  13.272  23.369  0.00  0.00    +0.000 N 
ATOM     34  H   UNL     1      -5.808  11.856  25.227  0.00  0.00    +0.000 HD
ATOM     35  H   UNL     1      -6.552  12.728  23.449  0.00  0.00    +0.000 HD
ATOM     36  H   UNL     1      -5.510  13.531  22.406  0.00  0.00    +0.000 HD
ENDBRANCH  25  32
BRANCH  28  37
ATOM     37  O   UNL     1       0.574  14.492  22.665  0.00  0.00    +0.000 OA
ATOM     38  H   UNL     1       1.215  14.183  23.328  0.00  0.00    +0.000 HD
ENDBRANCH  28  37
ENDBRANCH  24  29
ENDBRANCH  23  24
ENDBRANCH   1  23
TORSDOF 9
ENDMDL
MODEL 5
REMARK VINA RESULT:      -8.3      0.261      1.061
REMARK  Name = 
REMARK  9 active torsions:
REMARK  status: ('A' for Active; 'I' for Inactive)
REMARK    1  A    between atoms: C_2  and  C_4
REMARK    2  A    between atoms: C_7  and  O_8
REMARK    3  A    between atoms: C_9  and  O_10
REMARK    4  A    between atoms: O_10  and  C_11
REMARK    5  A    between atoms: C_11  and  C_12
REMARK    6  A    between atoms: N_14  and  C_15
REMARK    7  A    between atoms: C_18  and  C_19
REMARK    8  A    between atoms: C_24  and  S_25
REMARK    9  A    between atoms: S_25  and  N_26
REMARK                            x       y       z     vdW  Elec       q    Type
REMARK                         _______ _______ _______ _____ _____    ______ ____
ROOT
ATOM      1  C   UNL     1       0.384  11.245  20.785  0.00  0.00    +0.000 C 
ATOM      2  O   UNL     1       1.575  11.526  20.898  0.00  0.00    +0.000 OA
ATOM      3  N   UNL     1      -0.114  10.070  20.221  0.00  0.00    +0.000 N 
ATOM      4  H   UNL     1      -0.988  10.206  19.729  0.00  0.00    +0.000 HD
ENDROOT
BRANCH   3   5
ATOM      5  C   UNL     1       0.766   9.155  19.619  0.00  0.00    +0.000 A 
ATOM      6  C   UNL     1       1.119   9.307  18.285  0.00  0.00    +0.000 A 
ATOM      7  C   UNL     1       2.035   8.419  17.706  0.00  0.00    +0.000 A 
ATOM      8  C   UNL     1       2.630   7.368  18.440  0.00  0.00    +0.000 A 
ATOM      9  C   UNL     1       2.307   7.303  19.805  0.00  0.00    +0.000 A 
ATOM     10  C   UNL     1       1.363   8.162  20.386  0.00  0.00    +0.000 A 
BRANCH   8  11
ATOM     11  C   UNL     1       3.581   6.423  17.788  0.00  0.00    +0.000 A 
ATOM     12  C   UNL     1       4.800   6.961  17.293  0.00  0.00    +0.000 A 
ATOM     13  C   UNL     1       5.778   6.185  16.658  0.00  0.00    +0.000 A 
ATOM     14  C   UNL     1       5.594   4.821  16.525  0.00  0.00    +0.000 A 
ATOM     15  C   UNL     1       4.421   4.246  17.001  0.00  0.00    +0.000 A 
ATOM     16  C   UNL     1       3.404   5.033  17.600  0.00  0.00    +0.000 A 
BRANCH  16  17
ATOM     17  S   UNL     1       1.947   4.105  18.015  0.00  0.00    +0.000 S 
ATOM     18  O   UNL     1       1.833   4.045  19.450  0.00  0.00    +0.000 OA
ATOM     19  O   UNL     1       0.816   4.425  17.163  0.00  0.00    +0.000 OA
BRANCH  17  20
ATOM     20  N   UNL     1       2.342   2.547  17.512  0.00  0.00    +0.000 NA
ATOM     21  H   UNL     1       3.255   2.555  17.057  0.00  0.00    +0.000 HD
ATOM     22  H   UNL     1       2.304   1.940  18.334  0.00  0.00    +0.000 HD
ENDBRANCH  17  20
ENDBRANCH  16  17
ENDBRANCH   8  11
ENDBRANCH   3   5
BRANCH   1  23
ATOM     23  C   UNL     1      -0.718  12.186  21.265  0.00  0.00    +0.000 C 
BRANCH  23  24
ATOM     24  O   UNL     1      -1.792  12.071  20.340  0.00  0.00    +0.000 OA
BRANCH  24  29
ATOM     25  C   UNL     1      -4.360  12.941  22.732  0.00  0.00    +0.000 A 
ATOM     26  C   UNL     1      -5.492  13.126  21.939  0.00  0.00    +0.000 A 
ATOM     27  C   UNL     1      -5.405  12.981  20.554  0.00  0.00    +0.000 A 
ATOM     28  C   UNL     1      -4.188  12.633  19.960  0.00  0.00    +0.000 A 
ATOM     29  C   UNL     1      -3.046  12.436  20.747  0.00  0.00    +0.000 A 
ATOM     30  C   UNL     1      -3.141  12.602  22.136  0.00  0.00    +0.000 A 
BRANCH  25  32
ATOM     31  N   UNL     1      -4.654  12.025  24.932  0.00  0.00    +0.000 NA
ATOM     32  C   UNL     1      -4.480  13.082  24.209  0.00  0.00    +0.000 C 
ATOM     33  N   UNL     1      -4.427  14.313  24.797  0.00  0.00    +0.000 N 
ATOM     34  H   UNL     1      -4.677  12.278  25.920  0.00  0.00    +0.000 HD
ATOM     35  H   UNL     1      -4.826  14.379  25.726  0.00  0.00    +0.000 HD
ATOM     36  H   UNL     1      -4.707  15.095  24.213  0.00  0.00    +0.000 HD
ENDBRANCH  25  32
BRANCH  28  37
ATOM     37  O   UNL     1      -4.157  12.476  18.602  0.00  0.00    +0.000 OA
ATOM     38  H   UNL     1      -4.257  11.532  18.391  0.00  0.00    +0.000 HD
ENDBRANCH  28  37
ENDBRANCH  24  29
ENDBRANCH  23  24
ENDBRANCH   1  23
TORSDOF 9
ENDMDL
MODEL 6
REMARK VINA RESULT:      -8.2      2.060      2.608
REMARK  Name = 
REMARK  9 active torsions:
REMARK  status: ('A' for Active; 'I' for Inactive)
REMARK    1  A    between atoms: C_2  and  C_4
REMARK    2  A    between atoms: C_7  and  O_8
REMARK    3  A    between atoms: C_9  and  O_10
REMARK    4  A    between atoms: O_10  and  C_11
REMARK    5  A    between atoms: C_11  and  C_12
REMARK    6  A    between atoms: N_14  and  C_15
REMARK    7  A    between atoms: C_18  and  C_19
REMARK    8  A    between atoms: C_24  and  S_25
REMARK    9  A    between atoms: S_25  and  N_26
REMARK                            x       y       z     vdW  Elec       q    Type
REMARK                         _______ _______ _______ _____ _____    ______ ____
ROOT
ATOM      1  C   UNL     1       0.052  10.786  19.252  0.00  0.00    +0.000 C 
ATOM      2  O   UNL     1      -0.716  10.191  18.501  0.00  0.00    +0.000 OA
ATOM      3  N   UNL     1       1.276  10.292  19.704  0.00  0.00    +0.000 N 
ATOM      4  H   UNL     1       1.502  10.592  20.645  0.00  0.00    +0.000 HD
ENDROOT
BRANCH   3   5
ATOM      5  C   UNL     1       1.655   8.974  19.399  0.00  0.00    +0.000 A 
ATOM      6  C   UNL     1       1.579   7.987  20.373  0.00  0.00    +0.000 A 
ATOM      7  C   UNL     1       1.912   6.666  20.047  0.00  0.00    +0.000 A 
ATOM      8  C   UNL     1       2.316   6.292  18.745  0.00  0.00    +0.000 A 
ATOM      9  C   UNL     1       2.299   7.306  17.774  0.00  0.00    +0.000 A 
ATOM     10  C   UNL     1       2.005   8.638  18.097  0.00  0.00    +0.000 A 
BRANCH   8  11
ATOM     11  C   UNL     1       2.689   4.882  18.436  0.00  0.00    +0.000 A 
ATOM     12  C   UNL     1       1.636   3.932  18.349  0.00  0.00    +0.000 A 
ATOM     13  C   UNL     1       1.849   2.576  18.068  0.00  0.00    +0.000 A 
ATOM     14  C   UNL     1       3.131   2.118  17.821  0.00  0.00    +0.000 A 
ATOM     15  C   UNL     1       4.194   3.011  17.886  0.00  0.00    +0.000 A 
ATOM     16  C   UNL     1       3.992   4.375  18.220  0.00  0.00    +0.000 A 
BRANCH  16  17
ATOM     17  S   UNL     1       5.504   5.296  18.369  0.00  0.00    +0.000 S 
ATOM     18  O   UNL     1       5.550   6.277  17.314  0.00  0.00    +0.000 OA
ATOM     19  O   UNL     1       5.827   5.627  19.745  0.00  0.00    +0.000 OA
BRANCH  17  20
ATOM     20  N   UNL     1       6.677   4.148  17.993  0.00  0.00    +0.000 NA
ATOM     21  H   UNL     1       6.914   4.212  17.002  0.00  0.00    +0.000 HD
ATOM     22  H   UNL     1       7.475   4.310  18.611  0.00  0.00    +0.000 HD
ENDBRANCH  17  20
ENDBRANCH  16  17
ENDBRANCH   8  11
ENDBRANCH   3   5
BRANCH   1  23
ATOM     23  C   UNL     1      -0.261  12.180  19.792  0.00  0.00    +0.000 C 
BRANCH  23  24
ATOM     24  O   UNL     1      -0.815  12.005  21.089  0.00  0.00    +0.000 OA
BRANCH  24  29
ATOM     25  C   UNL     1      -3.757  12.795  23.039  0.00  0.00    +0.000 A 
ATOM     26  C   UNL     1      -4.747  12.971  22.074  0.00  0.00    +0.000 A 
ATOM     27  C   UNL     1      -4.433  12.848  20.720  0.00  0.00    +0.000 A 
ATOM     28  C   UNL     1      -3.128  12.530  20.329  0.00  0.00    +0.000 A 
ATOM     29  C   UNL     1      -2.126  12.342  21.290  0.00  0.00    +0.000 A 
ATOM     30  C   UNL     1      -2.450  12.486  22.647  0.00  0.00    +0.000 A 
BRANCH  25  32
ATOM     31  N   UNL     1      -4.891  12.022  25.009  0.00  0.00    +0.000 NA
ATOM     32  C   UNL     1      -4.119  12.912  24.478  0.00  0.00    +0.000 C 
ATOM     33  N   UNL     1      -3.659  13.956  25.228  0.00  0.00    +0.000 N 
ATOM     34  H   UNL     1      -5.015  12.215  26.003  0.00  0.00    +0.000 HD
ATOM     35  H   UNL     1      -4.180  14.158  26.074  0.00  0.00    +0.000 HD
ATOM     36  H   UNL     1      -3.434  14.803  24.716  0.00  0.00    +0.000 HD
ENDBRANCH  25  32
BRANCH  28  37
ATOM     37  O   UNL     1      -2.873  12.394  18.992  0.00  0.00    +0.000 OA
ATOM     38  H   UNL     1      -3.435  11.685  18.634  0.00  0.00    +0.000 HD
ENDBRANCH  28  37
ENDBRANCH  24  29
ENDBRANCH  23  24
ENDBRANCH   1  23
TORSDOF 9
ENDMDL
MODEL 7
REMARK VINA RESULT:      -8.2      2.579      3.254
REMARK  Name = 
REMARK  9 active torsions:
REMARK  status: ('A' for Active; 'I' for Inactive)
REMARK    1  A    between atoms: C_2  and  C_4
REMARK    2  A    between atoms: C_7  and  O_8
REMARK    3  A    between atoms: C_9  and  O_10
REMARK    4  A    between atoms: O_10  and  C_11
REMARK    5  A    between atoms: C_11  and  C_12
REMARK    6  A    between atoms: N_14  and  C_15
REMARK    7  A    between atoms: C_18  and  C_19
REMARK    8  A    between atoms: C_24  and  S_25
REMARK    9  A    between atoms: S_25  and  N_26
REMARK                            x       y       z     vdW  Elec       q    Type
REMARK                         _______ _______ _______ _____ _____    ______ ____
ROOT
ATOM      1  C   UNL     1       0.763   9.244  22.436  0.00  0.00    +0.000 C 
ATOM      2  O   UNL     1       1.960   9.434  22.636  0.00  0.00    +0.000 OA
ATOM      3  N   UNL     1       0.236   8.390  21.467  0.00  0.00    +0.000 N 
ATOM      4  H   UNL     1      -0.635   8.724  21.075  0.00  0.00    +0.000 HD
ENDROOT
BRANCH   3   5
ATOM      5  C   UNL     1       1.093   7.761  20.548  0.00  0.00    +0.000 A 
ATOM      6  C   UNL     1       1.502   8.438  19.406  0.00  0.00    +0.000 A 
ATOM      7  C   UNL     1       2.395   7.822  18.520  0.00  0.00    +0.000 A 
ATOM      8  C   UNL     1       2.911   6.526  18.752  0.00  0.00    +0.000 A 
ATOM      9  C   UNL     1       2.534   5.914  19.958  0.00  0.00    +0.000 A 
ATOM     10  C   UNL     1       1.612   6.504  20.833  0.00  0.00    +0.000 A 
BRANCH   8  11
ATOM     11  C   UNL     1       3.839   5.888  17.775  0.00  0.00    +0.000 A 
ATOM     12  C   UNL     1       4.523   6.742  16.869  0.00  0.00    +0.000 A 
ATOM     13  C   UNL     1       5.420   6.272  15.901  0.00  0.00    +0.000 A 
ATOM     14  C   UNL     1       5.703   4.920  15.825  0.00  0.00    +0.000 A 
ATOM     15  C   UNL     1       5.065   4.044  16.696  0.00  0.00    +0.000 A 
ATOM     16  C   UNL     1       4.118   4.507  17.645  0.00  0.00    +0.000 A 
BRANCH  16  17
ATOM     17  S   UNL     1       3.339   3.199  18.560  0.00  0.00    +0.000 S 
ATOM     18  O   UNL     1       3.897   3.171  19.888  0.00  0.00    +0.000 OA
ATOM     19  O   UNL     1       1.909   3.120  18.322  0.00  0.00    +0.000 OA
BRANCH  17  20
ATOM     20  N   UNL     1       3.906   1.815  17.785  0.00  0.00    +0.000 NA
ATOM     21  H   UNL     1       4.804   2.014  17.342  0.00  0.00    +0.000 HD
ATOM     22  H   UNL     1       3.955   1.070  18.484  0.00  0.00    +0.000 HD
ENDBRANCH  17  20
ENDBRANCH  16  17
ENDBRANCH   8  11
ENDBRANCH   3   5
BRANCH   1  23
ATOM     23  C   UNL     1      -0.316   9.949  23.256  0.00  0.00    +0.000 C 
BRANCH  23  24
ATOM     24  O   UNL     1      -0.300  11.317  22.870  0.00  0.00    +0.000 OA
BRANCH  24  29
ATOM     25  C   UNL     1      -1.840  12.260  19.738  0.00  0.00    +0.000 A 
ATOM     26  C   UNL     1      -3.098  12.725  20.123  0.00  0.00    +0.000 A 
ATOM     27  C   UNL     1      -3.467  12.706  21.468  0.00  0.00    +0.000 A 
ATOM     28  C   UNL     1      -2.571  12.240  22.435  0.00  0.00    +0.000 A 
ATOM     29  C   UNL     1      -1.302  11.779  22.062  0.00  0.00    +0.000 A 
ATOM     30  C   UNL     1      -0.948  11.785  20.706  0.00  0.00    +0.000 A 
BRANCH  25  32
ATOM     31  N   UNL     1      -0.281  12.722  17.972  0.00  0.00    +0.000 NA
ATOM     32  C   UNL     1      -1.460  12.306  18.300  0.00  0.00    +0.000 C 
ATOM     33  N   UNL     1      -2.349  11.934  17.334  0.00  0.00    +0.000 N 
ATOM     34  H   UNL     1      -0.158  12.658  16.961  0.00  0.00    +0.000 HD
ATOM     35  H   UNL     1      -2.163  12.282  16.400  0.00  0.00    +0.000 HD
ATOM     36  H   UNL     1      -3.331  12.024  17.577  0.00  0.00    +0.000 HD
ENDBRANCH  25  32
BRANCH  28  37
ATOM     37  O   UNL     1      -2.967  12.266  23.744  0.00  0.00    +0.000 OA
ATOM     38  H   UNL     1      -2.178  12.283  24.312  0.00  0.00    +0.000 HD
ENDBRANCH  28  37
ENDBRANCH  24  29
ENDBRANCH  23  24
ENDBRANCH   1  23
TORSDOF 9
ENDMDL
MODEL 8
REMARK VINA RESULT:      -8.2      1.600      2.157
REMARK  Name = 
REMARK  9 active torsions:
REMARK  status: ('A' for Active; 'I' for Inactive)
REMARK    1  A    between atoms: C_2  and  C_4
REMARK    2  A    between atoms: C_7  and  O_8
REMARK    3  A    between atoms: C_9  and  O_10
REMARK    4  A    between atoms: O_10  and  C_11
REMARK    5  A    between atoms: C_11  and  C_12
REMARK    6  A    between atoms: N_14  and  C_15
REMARK    7  A    between atoms: C_18  and  C_19
REMARK    8  A    between atoms: C_24  and  S_25
REMARK    9  A    between atoms: S_25  and  N_26
REMARK                            x       y       z     vdW  Elec       q    Type
REMARK                         _______ _______ _______ _____ _____    ______ ____
ROOT
ATOM      1  C   UNL     1       0.383  11.160  20.521  0.00  0.00    +0.000 C 
ATOM      2  O   UNL     1       1.473  11.676  20.289  0.00  0.00    +0.000 OA
ATOM      3  N   UNL     1       0.070   9.817  20.310  0.00  0.00    +0.000 N 
ATOM      4  H   UNL     1      -0.892   9.673  20.030  0.00  0.00    +0.000 HD
ENDROOT
BRANCH   3   5
ATOM      5  C   UNL     1       0.999   8.972  19.680  0.00  0.00    +0.000 A 
ATOM      6  C   UNL     1       1.563   7.915  20.382  0.00  0.00    +0.000 A 
ATOM      7  C   UNL     1       2.452   7.049  19.732  0.00  0.00    +0.000 A 
ATOM      8  C   UNL     1       2.792   7.205  18.369  0.00  0.00    +0.000 A 
ATOM      9  C   UNL     1       2.136   8.237  17.678  0.00  0.00    +0.000 A 
ATOM     10  C   UNL     1       1.275   9.132  18.327  0.00  0.00    +0.000 A 
BRANCH   8  11
ATOM     11  C   UNL     1       3.762   6.282  17.713  0.00  0.00    +0.000 A 
ATOM     12  C   UNL     1       4.942   6.855  17.166  0.00  0.00    +0.000 A 
ATOM     13  C   UNL     1       5.932   6.103  16.522  0.00  0.00    +0.000 A 
ATOM     14  C   UNL     1       5.801   4.729  16.431  0.00  0.00    +0.000 A 
ATOM     15  C   UNL     1       4.668   4.120  16.958  0.00  0.00    +0.000 A 
ATOM     16  C   UNL     1       3.638   4.881  17.568  0.00  0.00    +0.000 A 
BRANCH  16  17
ATOM     17  S   UNL     1       2.233   3.906  18.052  0.00  0.00    +0.000 S 
ATOM     18  O   UNL     1       2.245   3.764  19.486  0.00  0.00    +0.000 OA
ATOM     19  O   UNL     1       1.029   4.254  17.321  0.00  0.00    +0.000 OA
BRANCH  17  20
ATOM     20  N   UNL     1       2.603   2.386  17.428  0.00  0.00    +0.000 NA
ATOM     21  H   UNL     1       2.746   1.727  18.195  0.00  0.00    +0.000 HD
ATOM     22  H   UNL     1       1.842   2.118  16.801  0.00  0.00    +0.000 HD
ENDBRANCH  17  20
ENDBRANCH  16  17
ENDBRANCH   8  11
ENDBRANCH   3   5
BRANCH   1  23
ATOM     23  C   UNL     1      -0.789  11.961  21.085  0.00  0.00    +0.000 C 
BRANCH  23  24
ATOM     24  O   UNL     1      -0.456  12.292  22.426  0.00  0.00    +0.000 OA
BRANCH  24  29
ATOM     25  C   UNL     1      -3.398  13.588  24.081  0.00  0.00    +0.000 A 
ATOM     26  C   UNL     1      -3.053  14.909  24.367  0.00  0.00    +0.000 A 
ATOM     27  C   UNL     1      -1.790  15.390  24.024  0.00  0.00    +0.000 A 
ATOM     28  C   UNL     1      -0.874  14.557  23.375  0.00  0.00    +0.000 A 
ATOM     29  C   UNL     1      -1.212  13.231  23.074  0.00  0.00    +0.000 A 
ATOM     30  C   UNL     1      -2.478  12.752  23.440  0.00  0.00    +0.000 A 
BRANCH  25  32
ATOM     31  N   UNL     1      -4.888  11.934  24.980  0.00  0.00    +0.000 NA
ATOM     32  C   UNL     1      -4.758  13.101  24.439  0.00  0.00    +0.000 C 
ATOM     33  N   UNL     1      -5.860  13.865  24.185  0.00  0.00    +0.000 N 
ATOM     34  H   UNL     1      -5.868  11.760  25.203  0.00  0.00    +0.000 HD
ATOM     35  H   UNL     1      -6.744  13.370  24.147  0.00  0.00    +0.000 HD
ATOM     36  H   UNL     1      -5.771  14.530  23.424  0.00  0.00    +0.000 HD
ENDBRANCH  25  32
BRANCH  28  37
ATOM     37  O   UNL     1       0.343  15.080  23.034  0.00  0.00    +0.000 OA
ATOM     38  H   UNL     1       1.043  14.480  23.343  0.00  0.00    +0.000 HD
ENDBRANCH  28  37
ENDBRANCH  24  29
ENDBRANCH  23  24
ENDBRANCH   1  23
TORSDOF 9
ENDMDL
MODEL 9
REMARK VINA RESULT:      -8.1      0.929      1.097
REMARK  Name = 
REMARK  9 active torsions:
REMARK  status: ('A' for Active; 'I' for Inactive)
REMARK    1  A    between atoms: C_2  and  C_4
REMARK    2  A    between atoms: C_7  and  O_8
REMARK    3  A    between atoms: C_9  and  O_10
REMARK    4  A    between atoms: O_10  and  C_11
REMARK    5  A    between atoms: C_11  and  C_12
REMARK    6  A    between atoms: N_14  and  C_15
REMARK    7  A    between atoms: C_18  and  C_19
REMARK    8  A    between atoms: C_24  and  S_25
REMARK    9  A    between atoms: S_25  and  N_26
REMARK                            x       y       z     vdW  Elec       q    Type
REMARK                         _______ _______ _______ _____ _____    ______ ____
ROOT
ATOM      1  C   UNL     1      -0.417  10.345  19.965  0.00  0.00    +0.000 C 
ATOM      2  O   UNL     1      -0.820  10.136  18.823  0.00  0.00    +0.000 OA
ATOM      3  N   UNL     1       0.757   9.824  20.510  0.00  0.00    +0.000 N 
ATOM      4  H   UNL     1       0.681   9.626  21.499  0.00  0.00    +0.000 HD
ENDROOT
BRANCH   3   5
ATOM      5  C   UNL     1       1.516   8.895  19.779  0.00  0.00    +0.000 A 
ATOM      6  C   UNL     1       1.861   7.678  20.351  0.00  0.00    +0.000 A 
ATOM      7  C   UNL     1       2.576   6.737  19.598  0.00  0.00    +0.000 A 
ATOM      8  C   UNL     1       2.954   6.979  18.257  0.00  0.00    +0.000 A 
ATOM      9  C   UNL     1       2.514   8.187  17.695  0.00  0.00    +0.000 A 
ATOM     10  C   UNL     1       1.832   9.152  18.450  0.00  0.00    +0.000 A 
BRANCH   8  11
ATOM     11  C   UNL     1       3.738   5.968  17.491  0.00  0.00    +0.000 A 
ATOM     12  C   UNL     1       4.883   6.427  16.786  0.00  0.00    +0.000 A 
ATOM     13  C   UNL     1       5.704   5.585  16.026  0.00  0.00    +0.000 A 
ATOM     14  C   UNL     1       5.435   4.229  15.972  0.00  0.00    +0.000 A 
ATOM     15  C   UNL     1       4.330   3.729  16.651  0.00  0.00    +0.000 A 
ATOM     16  C   UNL     1       3.465   4.585  17.382  0.00  0.00    +0.000 A 
BRANCH  16  17
ATOM     17  S   UNL     1       2.053   3.747  18.060  0.00  0.00    +0.000 S 
ATOM     18  O   UNL     1       2.199   3.684  19.492  0.00  0.00    +0.000 OA
ATOM     19  O   UNL     1       0.807   4.144  17.428  0.00  0.00    +0.000 OA
BRANCH  17  20
ATOM     20  N   UNL     1       2.250   2.171  17.499  0.00  0.00    +0.000 NA
ATOM     21  H   UNL     1       2.530   1.565  18.272  0.00  0.00    +0.000 HD
ATOM     22  H   UNL     1       1.371   1.888  17.061  0.00  0.00    +0.000 HD
ENDBRANCH  17  20
ENDBRANCH  16  17
ENDBRANCH   8  11
ENDBRANCH   3   5
BRANCH   1  23
ATOM     23  C   UNL     1      -1.187  11.226  20.946  0.00  0.00    +0.000 C 
BRANCH  23  24
ATOM     24  O   UNL     1      -2.047  12.053  20.173  0.00  0.00    +0.000 OA
BRANCH  24  29
ATOM     25  C   UNL     1      -4.345  12.897  22.834  0.00  0.00    +0.000 A 
ATOM     26  C   UNL     1      -5.542  13.143  22.162  0.00  0.00    +0.000 A 
ATOM     27  C   UNL     1      -5.593  13.052  20.771  0.00  0.00    +0.000 A 
ATOM     28  C   UNL     1      -4.450  12.695  20.049  0.00  0.00    +0.000 A 
ATOM     29  C   UNL     1      -3.244  12.436  20.713  0.00  0.00    +0.000 A 
ATOM     30  C   UNL     1      -3.199  12.548  22.110  0.00  0.00    +0.000 A 
BRANCH  25  32
ATOM     31  N   UNL     1      -4.843  12.028  25.016  0.00  0.00    +0.000 NA
ATOM     32  C   UNL     1      -4.318  12.982  24.320  0.00  0.00    +0.000 C 
ATOM     33  N   UNL     1      -3.763  14.061  24.944  0.00  0.00    +0.000 N 
ATOM     34  H   UNL     1      -4.712  12.209  26.011  0.00  0.00    +0.000 HD
ATOM     35  H   UNL     1      -4.054  14.217  25.903  0.00  0.00    +0.000 HD
ATOM     36  H   UNL     1      -3.754  14.925  24.411  0.00  0.00    +0.000 HD
ENDBRANCH  25  32
BRANCH  28  37
ATOM     37  O   UNL     1      -4.554  12.592  18.689  0.00  0.00    +0.000 OA
ATOM     38  H   UNL     1      -4.732  13.473  18.318  0.00  0.00    +0.000 HD
ENDBRANCH  28  37
ENDBRANCH  24  29
ENDBRANCH  23  24
ENDBRANCH   1  23
TORSDOF 9
ENDMDL
