MODEL 1
REMARK VINA RESULT:      -8.7      0.000      0.000
REMARK  Name = 
REMARK  4 active torsions:
REMARK  status: ('A' for Active; 'I' for Inactive)
REMARK    1  A    between atoms: C_10  and  C_11
REMARK    2  A    between atoms: C_16  and  C_17
REMARK    3  A    between atoms: C_17  and  C_18
REMARK    4  A    between atoms: C_18  and  C_20
REMARK                            x       y       z     vdW  Elec       q    Type
REMARK                         _______ _______ _______ _____ _____    ______ ____
ROOT
ATOM      1  C   UNL     1       3.015   8.123  17.890  0.00  0.00    +0.000 C 
ATOM      2  C   UNL     1       2.857   6.978  18.573  0.00  0.00    +0.000 C 
ATOM      3  C   UNL     1       2.190   7.031  19.929  0.00  0.00    +0.000 C 
ATOM      4  C   UNL     1       1.695   5.697  20.522  0.00  0.00    +0.000 C 
ATOM      5  C   UNL     1       2.657   4.467  20.274  0.00  0.00    +0.000 C 
ATOM      6  C   UNL     1       3.030   4.365  18.855  0.00  0.00    +0.000 C 
ATOM      7  C   UNL     1       4.377   3.453  19.022  0.00  0.00    +0.000 C 
ATOM      8  C   UNL     1       4.532   2.360  20.171  0.00  0.00    +0.000 C 
ATOM      9  C   UNL     1       3.394   2.318  21.246  0.00  0.00    +0.000 C 
ATOM     10  C   UNL     1       2.216   2.854  20.483  0.00  0.00    +0.000 C 
ATOM     11  C   UNL     1       2.133   1.648  19.290  0.00  0.00    +0.000 C 
ATOM     12  C   UNL     1       0.759   3.049  20.624  0.00  0.00    +0.000 C 
ATOM     13  O   UNL     1       0.512   3.636  19.249  0.00  0.00    +0.000 OA
ATOM     14  C   UNL     1       1.518   3.974  18.337  0.00  0.00    +0.000 C 
ATOM     15  O   UNL     1       1.190   3.995  17.156  0.00  0.00    +0.000 OA
ATOM     16  C   UNL     1       3.555   5.689  18.174  0.00  0.00    +0.000 C 
ENDROOT
BRANCH  16  17
ATOM     17  C   UNL     1       4.025   5.496  16.692  0.00  0.00    +0.000 C 
BRANCH  17  18
ATOM     18  C   UNL     1       5.443   5.922  16.312  0.00  0.00    +0.000 C 
ATOM     19  O   UNL     1       5.636   6.503  15.245  0.00  0.00    +0.000 OA
BRANCH  18  20
ATOM     20  C   UNL     1       6.537   5.657  17.248  0.00  0.00    +0.000 A 
ATOM     21  C   UNL     1       7.045   6.414  18.349  0.00  0.00    +0.000 A 
ATOM     22  C   UNL     1       8.055   5.663  18.913  0.00  0.00    +0.000 A 
ATOM     23  O   UNL     1       8.201   4.491  18.253  0.00  0.00    +0.000 OA
ATOM     24  C   UNL     1       7.286   4.489  17.251  0.00  0.00    +0.000 A 
ENDBRANCH  18  20
ENDBRANCH  17  18
ENDBRANCH  16  17
TORSDOF 3
ENDMDL
MODEL 2
REMARK VINA RESULT:      -8.2      0.963      1.075
REMARK  Name = 
REMARK  4 active torsions:
REMARK  status: ('A' for Active; 'I' for Inactive)
REMARK    1  A    between atoms: C_10  and  C_11
REMARK    2  A    between atoms: C_16  and  C_17
REMARK    3  A    between atoms: C_17  and  C_18
REMARK    4  A    between atoms: C_18  and  C_20
REMARK                            x       y       z     vdW  Elec       q    Type
REMARK                         _______ _______ _______ _____ _____    ______ ____
ROOT
ATOM      1  C   UNL     1       3.798   7.756  17.247  0.00  0.00    +0.000 C 
ATOM      2  C   UNL     1       3.442   6.736  18.042  0.00  0.00    +0.000 C 
ATOM      3  C   UNL     1       2.622   7.034  19.278  0.00  0.00    +0.000 C 
ATOM      4  C   UNL     1       1.925   5.844  19.964  0.00  0.00    +0.000 C 
ATOM      5  C   UNL     1       2.779   4.514  20.008  0.00  0.00    +0.000 C 
ATOM      6  C   UNL     1       3.311   4.183  18.678  0.00  0.00    +0.000 C 
ATOM      7  C   UNL     1       4.528   3.193  19.140  0.00  0.00    +0.000 C 
ATOM      8  C   UNL     1       4.429   2.263  20.430  0.00  0.00    +0.000 C 
ATOM      9  C   UNL     1       3.169   2.468  21.338  0.00  0.00    +0.000 C 
ATOM     10  C   UNL     1       2.154   2.990  20.361  0.00  0.00    +0.000 C 
ATOM     11  C   UNL     1       2.095   1.640  19.331  0.00  0.00    +0.000 C 
ATOM     12  C   UNL     1       0.718   3.325  20.277  0.00  0.00    +0.000 C 
ATOM     13  O   UNL     1       0.703   3.732  18.818  0.00  0.00    +0.000 OA
ATOM     14  C   UNL     1       1.842   3.853  18.014  0.00  0.00    +0.000 C 
ATOM     15  O   UNL     1       1.664   3.736  16.807  0.00  0.00    +0.000 OA
ATOM     16  C   UNL     1       4.048   5.349  17.910  0.00  0.00    +0.000 C 
ENDROOT
BRANCH  16  17
ATOM     17  C   UNL     1       4.673   4.912  16.542  0.00  0.00    +0.000 C 
BRANCH  17  18
ATOM     18  C   UNL     1       6.159   5.174  16.298  0.00  0.00    +0.000 C 
ATOM     19  O   UNL     1       6.652   4.905  15.203  0.00  0.00    +0.000 OA
BRANCH  18  20
ATOM     20  C   UNL     1       6.957   5.775  17.369  0.00  0.00    +0.000 A 
ATOM     21  C   UNL     1       7.500   5.222  18.570  0.00  0.00    +0.000 A 
ATOM     22  C   UNL     1       8.210   6.232  19.185  0.00  0.00    +0.000 A 
ATOM     23  O   UNL     1       8.158   7.365  18.448  0.00  0.00    +0.000 OA
ATOM     24  C   UNL     1       7.404   7.089  17.355  0.00  0.00    +0.000 A 
ENDBRANCH  18  20
ENDBRANCH  17  18
ENDBRANCH  16  17
TORSDOF 3
ENDMDL
MODEL 3
REMARK VINA RESULT:      -8.1      2.037      2.784
REMARK  Name = 
REMARK  4 active torsions:
REMARK  status: ('A' for Active; 'I' for Inactive)
REMARK    1  A    between atoms: C_10  and  C_11
REMARK    2  A    between atoms: C_16  and  C_17
REMARK    3  A    between atoms: C_17  and  C_18
REMARK    4  A    between atoms: C_18  and  C_20
REMARK                            x       y       z     vdW  Elec       q    Type
REMARK                         _______ _______ _______ _____ _____    ______ ____
ROOT
ATOM      1  C   UNL     1       4.882   6.920  16.334  0.00  0.00    +0.000 C 
ATOM      2  C   UNL     1       4.286   6.180  17.282  0.00  0.00    +0.000 C 
ATOM      3  C   UNL     1       3.456   6.883  18.333  0.00  0.00    +0.000 C 
ATOM      4  C   UNL     1       2.501   6.013  19.173  0.00  0.00    +0.000 C 
ATOM      5  C   UNL     1       3.083   4.602  19.584  0.00  0.00    +0.000 C 
ATOM      6  C   UNL     1       3.631   3.895  18.417  0.00  0.00    +0.000 C 
ATOM      7  C   UNL     1       4.604   2.842  19.203  0.00  0.00    +0.000 C 
ATOM      8  C   UNL     1       4.243   2.255  20.640  0.00  0.00    +0.000 C 
ATOM      9  C   UNL     1       2.987   2.870  21.345  0.00  0.00    +0.000 C 
ATOM     10  C   UNL     1       2.157   3.325  20.177  0.00  0.00    +0.000 C 
ATOM     11  C   UNL     1       1.914   1.808  19.451  0.00  0.00    +0.000 C 
ATOM     12  C   UNL     1       0.820   3.872  19.872  0.00  0.00    +0.000 C 
ATOM     13  O   UNL     1       0.981   3.938  18.367  0.00  0.00    +0.000 OA
ATOM     14  C   UNL     1       2.174   3.680  17.683  0.00  0.00    +0.000 C 
ATOM     15  O   UNL     1       2.060   3.327  16.514  0.00  0.00    +0.000 OA
ATOM     16  C   UNL     1       4.626   4.716  17.507  0.00  0.00    +0.000 C 
ENDROOT
BRANCH  16  17
ATOM     17  C   UNL     1       5.248   3.884  16.335  0.00  0.00    +0.000 C 
BRANCH  17  18
ATOM     18  C   UNL     1       6.604   4.309  15.774  0.00  0.00    +0.000 C 
ATOM     19  O   UNL     1       7.528   4.563  16.545  0.00  0.00    +0.000 OA
BRANCH  18  20
ATOM     20  C   UNL     1       6.781   4.372  14.322  0.00  0.00    +0.000 A 
ATOM     21  C   UNL     1       7.663   5.150  13.508  0.00  0.00    +0.000 A 
ATOM     22  C   UNL     1       7.436   4.767  12.202  0.00  0.00    +0.000 A 
ATOM     23  O   UNL     1       6.490   3.802  12.147  0.00  0.00    +0.000 OA
ATOM     24  C   UNL     1       6.097   3.565  13.424  0.00  0.00    +0.000 A 
ENDBRANCH  18  20
ENDBRANCH  17  18
ENDBRANCH  16  17
TORSDOF 3
ENDMDL
MODEL 4
REMARK VINA RESULT:      -7.9      1.937      5.611
REMARK  Name = 
REMARK  4 active torsions:
REMARK  status: ('A' for Active; 'I' for Inactive)
REMARK    1  A    between atoms: C_10  and  C_11
REMARK    2  A    between atoms: C_16  and  C_17
REMARK    3  A    between atoms: C_17  and  C_18
REMARK    4  A    between atoms: C_18  and  C_20
REMARK                            x       y       z     vdW  Elec       q    Type
REMARK                         _______ _______ _______ _____ _____    ______ ____
ROOT
ATOM      1  C   UNL     1       1.325   4.024  17.427  0.00  0.00    +0.000 C 
ATOM      2  C   UNL     1       2.653   4.201  17.367  0.00  0.00    +0.000 C 
ATOM      3  C   UNL     1       3.479   3.220  16.563  0.00  0.00    +0.000 C 
ATOM      4  C   UNL     1       4.919   3.637  16.208  0.00  0.00    +0.000 C 
ATOM      5  C   UNL     1       5.687   4.404  17.358  0.00  0.00    +0.000 C 
ATOM      6  C   UNL     1       4.878   5.513  17.886  0.00  0.00    +0.000 C 
ATOM      7  C   UNL     1       5.629   5.699  19.327  0.00  0.00    +0.000 C 
ATOM      8  C   UNL     1       7.187   5.426  19.520  0.00  0.00    +0.000 C 
ATOM      9  C   UNL     1       7.938   4.802  18.295  0.00  0.00    +0.000 C 
ATOM     10  C   UNL     1       7.109   5.279  17.136  0.00  0.00    +0.000 C 
ATOM     11  C   UNL     1       7.333   6.949  17.352  0.00  0.00    +0.000 C 
ATOM     12  C   UNL     1       7.117   5.299  15.660  0.00  0.00    +0.000 C 
ATOM     13  O   UNL     1       5.825   6.068  15.473  0.00  0.00    +0.000 OA
ATOM     14  C   UNL     1       4.947   6.409  16.508  0.00  0.00    +0.000 C 
ATOM     15  O   UNL     1       4.223   7.378  16.303  0.00  0.00    +0.000 OA
ATOM     16  C   UNL     1       3.389   5.166  18.282  0.00  0.00    +0.000 C 
ENDROOT
BRANCH  16  17
ATOM     17  C   UNL     1       2.608   6.362  18.923  0.00  0.00    +0.000 C 
BRANCH  17  18
ATOM     18  C   UNL     1       1.947   6.158  20.286  0.00  0.00    +0.000 C 
ATOM     19  O   UNL     1       1.506   7.130  20.898  0.00  0.00    +0.000 OA
BRANCH  18  20
ATOM     20  C   UNL     1       1.823   4.799  20.816  0.00  0.00    +0.000 A 
ATOM     21  C   UNL     1       0.860   3.771  20.570  0.00  0.00    +0.000 A 
ATOM     22  C   UNL     1       1.259   2.672  21.303  0.00  0.00    +0.000 A 
ATOM     23  O   UNL     1       2.403   2.939  21.973  0.00  0.00    +0.000 OA
ATOM     24  C   UNL     1       2.742   4.219  21.679  0.00  0.00    +0.000 A 
ENDBRANCH  18  20
ENDBRANCH  17  18
ENDBRANCH  16  17
TORSDOF 3
ENDMDL
MODEL 5
REMARK VINA RESULT:      -7.8      1.426      2.154
REMARK  Name = 
REMARK  4 active torsions:
REMARK  status: ('A' for Active; 'I' for Inactive)
REMARK    1  A    between atoms: C_10  and  C_11
REMARK    2  A    between atoms: C_16  and  C_17
REMARK    3  A    between atoms: C_17  and  C_18
REMARK    4  A    between atoms: C_18  and  C_20
REMARK                            x       y       z     vdW  Elec       q    Type
REMARK                         _______ _______ _______ _____ _____    ______ ____
ROOT
ATOM      1  C   UNL     1       3.077   8.087  17.817  0.00  0.00    +0.000 C 
ATOM      2  C   UNL     1       2.916   6.954  18.518  0.00  0.00    +0.000 C 
ATOM      3  C   UNL     1       2.270   7.034  19.884  0.00  0.00    +0.000 C 
ATOM      4  C   UNL     1       1.768   5.715  20.502  0.00  0.00    +0.000 C 
ATOM      5  C   UNL     1       2.711   4.469  20.257  0.00  0.00    +0.000 C 
ATOM      6  C   UNL     1       3.060   4.343  18.834  0.00  0.00    +0.000 C 
ATOM      7  C   UNL     1       4.399   3.417  18.992  0.00  0.00    +0.000 C 
ATOM      8  C   UNL     1       4.558   2.338  20.154  0.00  0.00    +0.000 C 
ATOM      9  C   UNL     1       3.437   2.325  21.247  0.00  0.00    +0.000 C 
ATOM     10  C   UNL     1       2.253   2.865  20.496  0.00  0.00    +0.000 C 
ATOM     11  C   UNL     1       2.137   1.644  19.321  0.00  0.00    +0.000 C 
ATOM     12  C   UNL     1       0.801   3.081  20.656  0.00  0.00    +0.000 C 
ATOM     13  O   UNL     1       0.540   3.651  19.277  0.00  0.00    +0.000 OA
ATOM     14  C   UNL     1       1.535   3.964  18.345  0.00  0.00    +0.000 C 
ATOM     15  O   UNL     1       1.189   3.973  17.169  0.00  0.00    +0.000 OA
ATOM     16  C   UNL     1       3.591   5.650  18.126  0.00  0.00    +0.000 C 
ENDROOT
BRANCH  16  17
ATOM     17  C   UNL     1       4.035   5.432  16.640  0.00  0.00    +0.000 C 
BRANCH  17  18
ATOM     18  C   UNL     1       5.524   5.493  16.304  0.00  0.00    +0.000 C 
ATOM     19  O   UNL     1       6.307   6.006  17.103  0.00  0.00    +0.000 OA
BRANCH  18  20
ATOM     20  C   UNL     1       5.991   4.905  15.047  0.00  0.00    +0.000 A 
ATOM     21  C   UNL     1       5.398   3.939  14.175  0.00  0.00    +0.000 A 
ATOM     22  C   UNL     1       6.257   3.791  13.106  0.00  0.00    +0.000 A 
ATOM     23  O   UNL     1       7.330   4.602  13.243  0.00  0.00    +0.000 OA
ATOM     24  C   UNL     1       7.168   5.273  14.411  0.00  0.00    +0.000 A 
ENDBRANCH  18  20
ENDBRANCH  17  18
ENDBRANCH  16  17
TORSDOF 3
ENDMDL
MODEL 6
REMARK VINA RESULT:      -7.7      1.230      1.642
REMARK  Name = 
REMARK  4 active torsions:
REMARK  status: ('A' for Active; 'I' for Inactive)
REMARK    1  A    between atoms: C_10  and  C_11
REMARK    2  A    between atoms: C_16  and  C_17
REMARK    3  A    between atoms: C_17  and  C_18
REMARK    4  A    between atoms: C_18  and  C_20
REMARK                            x       y       z     vdW  Elec       q    Type
REMARK                         _______ _______ _______ _____ _____    ______ ____
ROOT
ATOM      1  C   UNL     1       2.159   8.458  18.883  0.00  0.00    +0.000 C 
ATOM      2  C   UNL     1       2.260   7.182  19.285  0.00  0.00    +0.000 C 
ATOM      3  C   UNL     1       1.636   6.787  20.605  0.00  0.00    +0.000 C 
ATOM      4  C   UNL     1       1.443   5.281  20.869  0.00  0.00    +0.000 C 
ATOM      5  C   UNL     1       2.629   4.365  20.367  0.00  0.00    +0.000 C 
ATOM      6  C   UNL     1       2.973   4.666  18.969  0.00  0.00    +0.000 C 
ATOM      7  C   UNL     1       4.484   4.039  18.949  0.00  0.00    +0.000 C 
ATOM      8  C   UNL     1       4.894   2.770  19.822  0.00  0.00    +0.000 C 
ATOM      9  C   UNL     1       3.820   2.252  20.838  0.00  0.00    +0.000 C 
ATOM     10  C   UNL     1       2.535   2.691  20.196  0.00  0.00    +0.000 C 
ATOM     11  C   UNL     1       2.667   1.796  18.758  0.00  0.00    +0.000 C 
ATOM     12  C   UNL     1       1.074   2.544  20.350  0.00  0.00    +0.000 C 
ATOM     13  O   UNL     1       0.671   3.363  19.140  0.00  0.00    +0.000 OA
ATOM     14  C   UNL     1       1.559   4.099  18.347  0.00  0.00    +0.000 C 
ATOM     15  O   UNL     1       1.199   4.318  17.196  0.00  0.00    +0.000 OA
ATOM     16  C   UNL     1       3.196   6.189  18.616  0.00  0.00    +0.000 C 
ENDROOT
BRANCH  16  17
ATOM     17  C   UNL     1       3.651   6.438  17.138  0.00  0.00    +0.000 C 
BRANCH  17  18
ATOM     18  C   UNL     1       5.128   6.717  16.864  0.00  0.00    +0.000 C 
ATOM     19  O   UNL     1       5.648   7.735  17.318  0.00  0.00    +0.000 OA
BRANCH  18  20
ATOM     20  C   UNL     1       5.902   5.742  16.093  0.00  0.00    +0.000 A 
ATOM     21  C   UNL     1       5.611   5.054  14.873  0.00  0.00    +0.000 A 
ATOM     22  C   UNL     1       6.721   4.290  14.576  0.00  0.00    +0.000 A 
ATOM     23  O   UNL     1       7.681   4.464  15.513  0.00  0.00    +0.000 OA
ATOM     24  C   UNL     1       7.187   5.338  16.425  0.00  0.00    +0.000 A 
ENDBRANCH  18  20
ENDBRANCH  17  18
ENDBRANCH  16  17
TORSDOF 3
ENDMDL
MODEL 7
REMARK VINA RESULT:      -7.7      2.321      4.841
REMARK  Name = 
REMARK  4 active torsions:
REMARK  status: ('A' for Active; 'I' for Inactive)
REMARK    1  A    between atoms: C_10  and  C_11
REMARK    2  A    between atoms: C_16  and  C_17
REMARK    3  A    between atoms: C_17  and  C_18
REMARK    4  A    between atoms: C_18  and  C_20
REMARK                            x       y       z     vdW  Elec       q    Type
REMARK                         _______ _______ _______ _____ _____    ______ ____
ROOT
ATOM      1  C   UNL     1       5.141   6.734  15.809  0.00  0.00    +0.000 C 
ATOM      2  C   UNL     1       4.609   5.705  16.486  0.00  0.00    +0.000 C 
ATOM      3  C   UNL     1       4.760   4.310  15.920  0.00  0.00    +0.000 C 
ATOM      4  C   UNL     1       4.474   3.131  16.869  0.00  0.00    +0.000 C 
ATOM      5  C   UNL     1       3.248   3.349  17.844  0.00  0.00    +0.000 C 
ATOM      6  C   UNL     1       3.351   4.640  18.541  0.00  0.00    +0.000 C 
ATOM      7  C   UNL     1       1.781   4.814  18.966  0.00  0.00    +0.000 C 
ATOM      8  C   UNL     1       0.847   3.570  19.311  0.00  0.00    +0.000 C 
ATOM      9  C   UNL     1       1.459   2.151  19.056  0.00  0.00    +0.000 C 
ATOM     10  C   UNL     1       2.932   2.408  19.205  0.00  0.00    +0.000 C 
ATOM     11  C   UNL     1       2.924   2.916  20.826  0.00  0.00    +0.000 C 
ATOM     12  C   UNL     1       4.217   1.683  19.264  0.00  0.00    +0.000 C 
ATOM     13  O   UNL     1       5.107   2.890  19.479  0.00  0.00    +0.000 OA
ATOM     14  C   UNL     1       4.671   4.218  19.429  0.00  0.00    +0.000 C 
ATOM     15  O   UNL     1       5.348   5.032  20.048  0.00  0.00    +0.000 OA
ATOM     16  C   UNL     1       3.636   5.902  17.637  0.00  0.00    +0.000 C 
ENDROOT
BRANCH  16  17
ATOM     17  C   UNL     1       3.642   7.257  18.423  0.00  0.00    +0.000 C 
BRANCH  17  18
ATOM     18  C   UNL     1       2.480   8.228  18.217  0.00  0.00    +0.000 C 
ATOM     19  O   UNL     1       2.249   8.670  17.092  0.00  0.00    +0.000 OA
BRANCH  18  20
ATOM     20  C   UNL     1       1.642   8.584  19.364  0.00  0.00    +0.000 A 
ATOM     21  C   UNL     1       1.528   8.007  20.668  0.00  0.00    +0.000 A 
ATOM     22  C   UNL     1       0.619   8.778  21.362  0.00  0.00    +0.000 A 
ATOM     23  O   UNL     1       0.173   9.796  20.591  0.00  0.00    +0.000 OA
ATOM     24  C   UNL     1       0.790   9.678  19.389  0.00  0.00    +0.000 A 
ENDBRANCH  18  20
ENDBRANCH  17  18
ENDBRANCH  16  17
TORSDOF 3
ENDMDL
MODEL 8
REMARK VINA RESULT:      -7.5      1.798      3.315
REMARK  Name = 
REMARK  4 active torsions:
REMARK  status: ('A' for Active; 'I' for Inactive)
REMARK    1  A    between atoms: C_10  and  C_11
REMARK    2  A    between atoms: C_16  and  C_17
REMARK    3  A    between atoms: C_17  and  C_18
REMARK    4  A    between atoms: C_18  and  C_20
REMARK                            x       y       z     vdW  Elec       q    Type
REMARK                         _______ _______ _______ _____ _____    ______ ____
ROOT
ATOM      1  C   UNL     1       5.773   3.790  15.959  0.00  0.00    +0.000 C 
ATOM      2  C   UNL     1       4.717   3.834  16.785  0.00  0.00    +0.000 C 
ATOM      3  C   UNL     1       3.340   3.582  16.213  0.00  0.00    +0.000 C 
ATOM      4  C   UNL     1       2.208   3.277  17.213  0.00  0.00    +0.000 C 
ATOM      5  C   UNL     1       2.255   4.129  18.544  0.00  0.00    +0.000 C 
ATOM      6  C   UNL     1       3.592   4.081  19.154  0.00  0.00    +0.000 C 
ATOM      7  C   UNL     1       3.484   5.421  20.086  0.00  0.00    +0.000 C 
ATOM      8  C   UNL     1       2.110   5.898  20.739  0.00  0.00    +0.000 C 
ATOM      9  C   UNL     1       0.826   5.114  20.303  0.00  0.00    +0.000 C 
ATOM     10  C   UNL     1       1.384   3.767  19.940  0.00  0.00    +0.000 C 
ATOM     11  C   UNL     1       2.009   3.348  21.463  0.00  0.00    +0.000 C 
ATOM     12  C   UNL     1       0.936   2.411  19.564  0.00  0.00    +0.000 C 
ATOM     13  O   UNL     1       2.310   1.781  19.453  0.00  0.00    +0.000 OA
ATOM     14  C   UNL     1       3.516   2.484  19.544  0.00  0.00    +0.000 C 
ATOM     15  O   UNL     1       4.495   1.833  19.889  0.00  0.00    +0.000 OA
ATOM     16  C   UNL     1       4.809   4.390  18.196  0.00  0.00    +0.000 C 
ENDROOT
BRANCH  16  17
ATOM     17  C   UNL     1       6.197   4.417  18.922  0.00  0.00    +0.000 C 
BRANCH  17  18
ATOM     18  C   UNL     1       7.402   4.989  18.177  0.00  0.00    +0.000 C 
ATOM     19  O   UNL     1       8.265   4.227  17.742  0.00  0.00    +0.000 OA
BRANCH  18  20
ATOM     20  C   UNL     1       7.483   6.436  17.967  0.00  0.00    +0.000 A 
ATOM     21  C   UNL     1       8.326   7.432  18.553  0.00  0.00    +0.000 A 
ATOM     22  C   UNL     1       8.003   8.628  17.947  0.00  0.00    +0.000 A 
ATOM     23  O   UNL     1       7.035   8.446  17.021  0.00  0.00    +0.000 OA
ATOM     24  C   UNL     1       6.724   7.126  17.034  0.00  0.00    +0.000 A 
ENDBRANCH  18  20
ENDBRANCH  17  18
ENDBRANCH  16  17
TORSDOF 3
ENDMDL
MODEL 9
REMARK VINA RESULT:      -7.5      2.316      5.906
REMARK  Name = 
REMARK  4 active torsions:
REMARK  status: ('A' for Active; 'I' for Inactive)
REMARK    1  A    between atoms: C_10  and  C_11
REMARK    2  A    between atoms: C_16  and  C_17
REMARK    3  A    between atoms: C_17  and  C_18
REMARK    4  A    between atoms: C_18  and  C_20
REMARK                            x       y       z     vdW  Elec       q    Type
REMARK                         _______ _______ _______ _____ _____    ______ ____
ROOT
ATOM      1  C   UNL     1       1.260   4.399  17.670  0.00  0.00    +0.000 C 
ATOM      2  C   UNL     1       2.596   4.446  17.562  0.00  0.00    +0.000 C 
ATOM      3  C   UNL     1       3.311   3.281  16.914  0.00  0.00    +0.000 C 
ATOM      4  C   UNL     1       4.771   3.507  16.475  0.00  0.00    +0.000 C 
ATOM      5  C   UNL     1       5.634   4.376  17.475  0.00  0.00    +0.000 C 
ATOM      6  C   UNL     1       4.938   5.622  17.829  0.00  0.00    +0.000 C 
ATOM      7  C   UNL     1       5.744   5.968  19.210  0.00  0.00    +0.000 C 
ATOM      8  C   UNL     1       7.278   5.592  19.420  0.00  0.00    +0.000 C 
ATOM      9  C   UNL     1       7.938   4.718  18.301  0.00  0.00    +0.000 C 
ATOM     10  C   UNL     1       7.119   5.075  17.093  0.00  0.00    +0.000 C 
ATOM     11  C   UNL     1       7.490   6.732  17.034  0.00  0.00    +0.000 C 
ATOM     12  C   UNL     1       7.085   4.860  15.633  0.00  0.00    +0.000 C 
ATOM     13  O   UNL     1       5.858   5.699  15.344  0.00  0.00    +0.000 OA
ATOM     14  C   UNL     1       5.042   6.278  16.323  0.00  0.00    +0.000 C 
ATOM     15  O   UNL     1       4.398   7.261  15.976  0.00  0.00    +0.000 OA
ATOM     16  C   UNL     1       3.438   5.475  18.298  0.00  0.00    +0.000 C 
ENDROOT
BRANCH  16  17
ATOM     17  C   UNL     1       2.780   6.823  18.750  0.00  0.00    +0.000 C 
BRANCH  17  18
ATOM     18  C   UNL     1       2.056   6.869  20.096  0.00  0.00    +0.000 C 
ATOM     19  O   UNL     1       1.990   5.852  20.785  0.00  0.00    +0.000 OA
BRANCH  18  20
ATOM     20  C   UNL     1       1.487   8.139  20.550  0.00  0.00    +0.000 A 
ATOM     21  C   UNL     1       1.190   8.629  21.860  0.00  0.00    +0.000 A 
ATOM     22  C   UNL     1       0.712   9.913  21.703  0.00  0.00    +0.000 A 
ATOM     23  O   UNL     1       0.704  10.260  20.396  0.00  0.00    +0.000 OA
ATOM     24  C   UNL     1       1.171   9.192  19.703  0.00  0.00    +0.000 A 
ENDBRANCH  18  20
ENDBRANCH  17  18
ENDBRANCH  16  17
TORSDOF 3
ENDMDL
