MODEL 1
REMARK VINA RESULT:      -8.1      0.000      0.000
REMARK  Name = 
REMARK  8 active torsions:
REMARK  status: ('A' for Active; 'I' for Inactive)
REMARK    1  A    between atoms: C_1  and  C_2
REMARK    2  A    between atoms: C_2  and  C_3
REMARK    3  A    between atoms: C_4  and  O_5
REMARK    4  A    between atoms: O_5  and  C_6
REMARK    5  A    between atoms: C_8  and  C_9
REMARK    6  A    between atoms: C_11  and  C_12
REMARK    7  A    between atoms: N_14  and  C_15
REMARK    8  A    between atoms: C_15  and  C_16
REMARK                            x       y       z     vdW  Elec       q    Type
REMARK                         _______ _______ _______ _____ _____    ______ ____
ROOT
ATOM      1  C   UNL     1       2.100   4.053  19.468  0.00  0.00    +0.000 A 
ATOM      2  C   UNL     1       2.898   5.081  19.093  0.00  0.00    +0.000 A 
ATOM      3  N   UNL     1       3.510   5.099  17.835  0.00  0.00    +0.000 N 
ATOM      4  C   UNL     1       3.400   4.038  16.950  0.00  0.00    +0.000 A 
ATOM      5  O   UNL     1       3.941   3.980  15.849  0.00  0.00    +0.000 OA
ATOM      6  N   UNL     1       2.640   2.989  17.364  0.00  0.00    +0.000 N 
ATOM      7  C   UNL     1       2.101   2.851  18.598  0.00  0.00    +0.000 A 
ATOM      8  O   UNL     1       1.655   1.772  18.976  0.00  0.00    +0.000 OA
ATOM      9  H   UNL     1       2.641   2.176  16.769  0.00  0.00    +0.000 HD
ENDROOT
BRANCH   1  11
ATOM     10  C   UNL     1       2.011   3.262  21.886  0.00  0.00    +0.000 C 
ATOM     11  C   UNL     1       1.279   3.932  20.728  0.00  0.00    +0.000 C 
ENDBRANCH   1  11
BRANCH   2  12
ATOM     12  O   UNL     1       3.106   6.221  19.877  0.00  0.00    +0.000 OA
BRANCH  12  13
ATOM     13  C   UNL     1       2.217   7.284  19.842  0.00  0.00    +0.000 A 
ATOM     14  C   UNL     1       2.063   8.159  18.761  0.00  0.00    +0.000 A 
ATOM     15  C   UNL     1       1.261   9.300  18.872  0.00  0.00    +0.000 A 
ATOM     16  C   UNL     1       1.206  10.303  17.757  0.00  0.00    +0.000 C 
ATOM     17  C   UNL     1       0.501   9.491  20.030  0.00  0.00    +0.000 A 
ATOM     18  C   UNL     1       0.557   8.569  21.082  0.00  0.00    +0.000 A 
ATOM     19  C   UNL     1      -0.348   8.721  22.270  0.00  0.00    +0.000 C 
ATOM     20  C   UNL     1       1.446   7.485  20.994  0.00  0.00    +0.000 A 
ENDBRANCH  12  13
ENDBRANCH   2  12
BRANCH   3  21
ATOM     21  C   UNL     1       4.274   6.265  17.368  0.00  0.00    +0.000 C 
BRANCH  21  22
ATOM     22  C   UNL     1       5.690   6.309  17.895  0.00  0.00    +0.000 A 
ATOM     23  C   UNL     1       6.133   5.394  18.863  0.00  0.00    +0.000 A 
ATOM     24  C   UNL     1       7.420   5.488  19.397  0.00  0.00    +0.000 A 
ATOM     25  C   UNL     1       8.287   6.478  18.947  0.00  0.00    +0.000 A 
ATOM     26  C   UNL     1       7.881   7.355  17.944  0.00  0.00    +0.000 A 
ATOM     27  C   UNL     1       6.592   7.269  17.417  0.00  0.00    +0.000 A 
ENDBRANCH  21  22
ENDBRANCH   3  21
TORSDOF 5
ENDMDL
MODEL 2
REMARK VINA RESULT:      -8.1      2.101      3.149
REMARK  Name = 
REMARK  8 active torsions:
REMARK  status: ('A' for Active; 'I' for Inactive)
REMARK    1  A    between atoms: C_1  and  C_2
REMARK    2  A    between atoms: C_2  and  C_3
REMARK    3  A    between atoms: C_4  and  O_5
REMARK    4  A    between atoms: O_5  and  C_6
REMARK    5  A    between atoms: C_8  and  C_9
REMARK    6  A    between atoms: C_11  and  C_12
REMARK    7  A    between atoms: N_14  and  C_15
REMARK    8  A    between atoms: C_15  and  C_16
REMARK                            x       y       z     vdW  Elec       q    Type
REMARK                         _______ _______ _______ _____ _____    ______ ____
ROOT
ATOM      1  C   UNL     1       2.753   3.967  19.412  0.00  0.00    +0.000 A 
ATOM      2  C   UNL     1       3.254   4.969  18.650  0.00  0.00    +0.000 A 
ATOM      3  N   UNL     1       4.621   5.039  18.357  0.00  0.00    +0.000 N 
ATOM      4  C   UNL     1       5.534   4.145  18.893  0.00  0.00    +0.000 A 
ATOM      5  O   UNL     1       6.746   4.176  18.700  0.00  0.00    +0.000 OA
ATOM      6  N   UNL     1       5.022   3.178  19.699  0.00  0.00    +0.000 N 
ATOM      7  C   UNL     1       3.734   3.101  20.112  0.00  0.00    +0.000 A 
ATOM      8  O   UNL     1       3.410   2.363  21.036  0.00  0.00    +0.000 OA
ATOM      9  H   UNL     1       5.691   2.590  20.171  0.00  0.00    +0.000 HD
ENDROOT
BRANCH   1  11
ATOM     10  C   UNL     1       0.699   2.558  18.888  0.00  0.00    +0.000 C 
ATOM     11  C   UNL     1       1.306   3.679  19.725  0.00  0.00    +0.000 C 
ENDBRANCH   1  11
BRANCH   2  12
ATOM     12  O   UNL     1       2.459   5.944  18.040  0.00  0.00    +0.000 OA
BRANCH  12  13
ATOM     13  C   UNL     1       2.146   7.124  18.697  0.00  0.00    +0.000 A 
ATOM     14  C   UNL     1       1.787   7.214  20.047  0.00  0.00    +0.000 A 
ATOM     15  C   UNL     1       1.331   8.421  20.588  0.00  0.00    +0.000 A 
ATOM     16  C   UNL     1       0.822   8.479  21.998  0.00  0.00    +0.000 C 
ATOM     17  C   UNL     1       1.365   9.578  19.803  0.00  0.00    +0.000 A 
ATOM     18  C   UNL     1       1.824   9.531  18.481  0.00  0.00    +0.000 A 
ATOM     19  C   UNL     1       1.966  10.796  17.685  0.00  0.00    +0.000 C 
ATOM     20  C   UNL     1       2.180   8.291  17.924  0.00  0.00    +0.000 A 
ENDBRANCH  12  13
ENDBRANCH   2  12
BRANCH   3  21
ATOM     21  C   UNL     1       5.156   6.047  17.430  0.00  0.00    +0.000 C 
BRANCH  21  22
ATOM     22  C   UNL     1       5.644   5.465  16.123  0.00  0.00    +0.000 A 
ATOM     23  C   UNL     1       4.805   4.670  15.324  0.00  0.00    +0.000 A 
ATOM     24  C   UNL     1       5.285   4.078  14.155  0.00  0.00    +0.000 A 
ATOM     25  C   UNL     1       6.600   4.296  13.756  0.00  0.00    +0.000 A 
ATOM     26  C   UNL     1       7.426   5.130  14.507  0.00  0.00    +0.000 A 
ATOM     27  C   UNL     1       6.950   5.715  15.681  0.00  0.00    +0.000 A 
ENDBRANCH  21  22
ENDBRANCH   3  21
TORSDOF 5
ENDMDL
MODEL 3
REMARK VINA RESULT:      -8.0      1.860      6.045
REMARK  Name = 
REMARK  8 active torsions:
REMARK  status: ('A' for Active; 'I' for Inactive)
REMARK    1  A    between atoms: C_1  and  C_2
REMARK    2  A    between atoms: C_2  and  C_3
REMARK    3  A    between atoms: C_4  and  O_5
REMARK    4  A    between atoms: O_5  and  C_6
REMARK    5  A    between atoms: C_8  and  C_9
REMARK    6  A    between atoms: C_11  and  C_12
REMARK    7  A    between atoms: N_14  and  C_15
REMARK    8  A    between atoms: C_15  and  C_16
REMARK                            x       y       z     vdW  Elec       q    Type
REMARK                         _______ _______ _______ _____ _____    ______ ____
ROOT
ATOM      1  C   UNL     1       2.143   3.998  18.358  0.00  0.00    +0.000 A 
ATOM      2  C   UNL     1       2.516   5.301  18.360  0.00  0.00    +0.000 A 
ATOM      3  N   UNL     1       2.208   6.139  19.438  0.00  0.00    +0.000 N 
ATOM      4  C   UNL     1       1.442   5.706  20.509  0.00  0.00    +0.000 A 
ATOM      5  O   UNL     1       1.111   6.402  21.465  0.00  0.00    +0.000 OA
ATOM      6  N   UNL     1       1.029   4.411  20.466  0.00  0.00    +0.000 N 
ATOM      7  C   UNL     1       1.198   3.569  19.418  0.00  0.00    +0.000 A 
ATOM      8  O   UNL     1       0.576   2.514  19.350  0.00  0.00    +0.000 OA
ATOM      9  H   UNL     1       0.390   4.123  21.189  0.00  0.00    +0.000 HD
ENDROOT
BRANCH   1  11
ATOM     10  C   UNL     1       3.610   2.000  17.778  0.00  0.00    +0.000 C 
ATOM     11  C   UNL     1       2.490   2.939  17.341  0.00  0.00    +0.000 C 
ENDBRANCH   1  11
BRANCH   2  12
ATOM     12  O   UNL     1       3.291   5.882  17.351  0.00  0.00    +0.000 OA
BRANCH  12  13
ATOM     13  C   UNL     1       4.638   5.582  17.222  0.00  0.00    +0.000 A 
ATOM     14  C   UNL     1       5.571   5.642  18.263  0.00  0.00    +0.000 A 
ATOM     15  C   UNL     1       6.937   5.480  18.010  0.00  0.00    +0.000 A 
ATOM     16  C   UNL     1       7.943   5.677  19.106  0.00  0.00    +0.000 C 
ATOM     17  C   UNL     1       7.357   5.120  16.725  0.00  0.00    +0.000 A 
ATOM     18  C   UNL     1       6.427   4.948  15.693  0.00  0.00    +0.000 A 
ATOM     19  C   UNL     1       6.874   4.450  14.349  0.00  0.00    +0.000 C 
ATOM     20  C   UNL     1       5.071   5.216  15.942  0.00  0.00    +0.000 A 
ENDBRANCH  12  13
ENDBRANCH   2  12
BRANCH   3  21
ATOM     21  C   UNL     1       2.715   7.516  19.509  0.00  0.00    +0.000 C 
BRANCH  21  22
ATOM     22  C   UNL     1       1.660   8.563  19.234  0.00  0.00    +0.000 A 
ATOM     23  C   UNL     1       1.040   9.262  20.283  0.00  0.00    +0.000 A 
ATOM     24  C   UNL     1       0.016  10.174  20.024  0.00  0.00    +0.000 A 
ATOM     25  C   UNL     1      -0.380  10.421  18.714  0.00  0.00    +0.000 A 
ATOM     26  C   UNL     1       0.267   9.779  17.660  0.00  0.00    +0.000 A 
ATOM     27  C   UNL     1       1.285   8.859  17.917  0.00  0.00    +0.000 A 
ENDBRANCH  21  22
ENDBRANCH   3  21
TORSDOF 5
ENDMDL
MODEL 4
REMARK VINA RESULT:      -8.0      1.862      5.918
REMARK  Name = 
REMARK  8 active torsions:
REMARK  status: ('A' for Active; 'I' for Inactive)
REMARK    1  A    between atoms: C_1  and  C_2
REMARK    2  A    between atoms: C_2  and  C_3
REMARK    3  A    between atoms: C_4  and  O_5
REMARK    4  A    between atoms: O_5  and  C_6
REMARK    5  A    between atoms: C_8  and  C_9
REMARK    6  A    between atoms: C_11  and  C_12
REMARK    7  A    between atoms: N_14  and  C_15
REMARK    8  A    between atoms: C_15  and  C_16
REMARK                            x       y       z     vdW  Elec       q    Type
REMARK                         _______ _______ _______ _____ _____    ______ ____
ROOT
ATOM      1  C   UNL     1       2.211   4.178  18.351  0.00  0.00    +0.000 A 
ATOM      2  C   UNL     1       2.525   5.495  18.360  0.00  0.00    +0.000 A 
ATOM      3  N   UNL     1       2.214   6.306  19.457  0.00  0.00    +0.000 N 
ATOM      4  C   UNL     1       1.504   5.826  20.546  0.00  0.00    +0.000 A 
ATOM      5  O   UNL     1       1.173   6.495  21.521  0.00  0.00    +0.000 OA
ATOM      6  N   UNL     1       1.148   4.515  20.499  0.00  0.00    +0.000 N 
ATOM      7  C   UNL     1       1.320   3.694  19.436  0.00  0.00    +0.000 A 
ATOM      8  O   UNL     1       0.745   2.612  19.373  0.00  0.00    +0.000 OA
ATOM      9  H   UNL     1       0.546   4.189  21.238  0.00  0.00    +0.000 HD
ENDROOT
BRANCH   1  11
ATOM     10  C   UNL     1       3.702   2.211  17.727  0.00  0.00    +0.000 C 
ATOM     11  C   UNL     1       2.572   3.147  17.311  0.00  0.00    +0.000 C 
ENDBRANCH   1  11
BRANCH   2  12
ATOM     12  O   UNL     1       3.240   6.123  17.334  0.00  0.00    +0.000 OA
BRANCH  12  13
ATOM     13  C   UNL     1       4.551   5.768  17.056  0.00  0.00    +0.000 A 
ATOM     14  C   UNL     1       5.005   5.310  15.815  0.00  0.00    +0.000 A 
ATOM     15  C   UNL     1       6.308   4.821  15.666  0.00  0.00    +0.000 A 
ATOM     16  C   UNL     1       6.748   4.208  14.368  0.00  0.00    +0.000 C 
ATOM     17  C   UNL     1       7.202   4.920  16.737  0.00  0.00    +0.000 A 
ATOM     18  C   UNL     1       6.797   5.476  17.955  0.00  0.00    +0.000 A 
ATOM     19  C   UNL     1       7.794   5.684  19.060  0.00  0.00    +0.000 C 
ATOM     20  C   UNL     1       5.457   5.866  18.118  0.00  0.00    +0.000 A 
ENDBRANCH  12  13
ENDBRANCH   2  12
BRANCH   3  21
ATOM     21  C   UNL     1       2.661   7.704  19.531  0.00  0.00    +0.000 C 
BRANCH  21  22
ATOM     22  C   UNL     1       1.560   8.705  19.266  0.00  0.00    +0.000 A 
ATOM     23  C   UNL     1       0.914   9.369  20.321  0.00  0.00    +0.000 A 
ATOM     24  C   UNL     1      -0.151  10.237  20.071  0.00  0.00    +0.000 A 
ATOM     25  C   UNL     1      -0.562  10.473  18.764  0.00  0.00    +0.000 A 
ATOM     26  C   UNL     1       0.109   9.867  17.703  0.00  0.00    +0.000 A 
ATOM     27  C   UNL     1       1.167   8.991  17.952  0.00  0.00    +0.000 A 
ENDBRANCH  21  22
ENDBRANCH   3  21
TORSDOF 5
ENDMDL
MODEL 5
REMARK VINA RESULT:      -7.7      2.169      2.780
REMARK  Name = 
REMARK  8 active torsions:
REMARK  status: ('A' for Active; 'I' for Inactive)
REMARK    1  A    between atoms: C_1  and  C_2
REMARK    2  A    between atoms: C_2  and  C_3
REMARK    3  A    between atoms: C_4  and  O_5
REMARK    4  A    between atoms: O_5  and  C_6
REMARK    5  A    between atoms: C_8  and  C_9
REMARK    6  A    between atoms: C_11  and  C_12
REMARK    7  A    between atoms: N_14  and  C_15
REMARK    8  A    between atoms: C_15  and  C_16
REMARK                            x       y       z     vdW  Elec       q    Type
REMARK                         _______ _______ _______ _____ _____    ______ ____
ROOT
ATOM      1  C   UNL     1       2.827   3.952  19.258  0.00  0.00    +0.000 A 
ATOM      2  C   UNL     1       3.325   4.937  18.473  0.00  0.00    +0.000 A 
ATOM      3  N   UNL     1       4.699   5.042  18.229  0.00  0.00    +0.000 N 
ATOM      4  C   UNL     1       5.619   4.204  18.839  0.00  0.00    +0.000 A 
ATOM      5  O   UNL     1       6.836   4.269  18.691  0.00  0.00    +0.000 OA
ATOM      6  N   UNL     1       5.108   3.256  19.667  0.00  0.00    +0.000 N 
ATOM      7  C   UNL     1       3.808   3.152  20.034  0.00  0.00    +0.000 A 
ATOM      8  O   UNL     1       3.472   2.444  20.977  0.00  0.00    +0.000 OA
ATOM      9  H   UNL     1       5.777   2.713  20.190  0.00  0.00    +0.000 HD
ENDROOT
BRANCH   1  11
ATOM     10  C   UNL     1       0.830   2.482  18.686  0.00  0.00    +0.000 C 
ATOM     11  C   UNL     1       1.379   3.627  19.529  0.00  0.00    +0.000 C 
ENDBRANCH   1  11
BRANCH   2  12
ATOM     12  O   UNL     1       2.523   5.857  17.790  0.00  0.00    +0.000 OA
BRANCH  12  13
ATOM     13  C   UNL     1       2.168   7.065  18.371  0.00  0.00    +0.000 A 
ATOM     14  C   UNL     1       2.162   8.296  17.707  0.00  0.00    +0.000 A 
ATOM     15  C   UNL     1       1.947   9.487  18.410  0.00  0.00    +0.000 A 
ATOM     16  C   UNL     1       2.074  10.813  17.718  0.00  0.00    +0.000 C 
ATOM     17  C   UNL     1       1.600   9.429  19.764  0.00  0.00    +0.000 A 
ATOM     18  C   UNL     1       1.494   8.198  20.421  0.00  0.00    +0.000 A 
ATOM     19  C   UNL     1       1.010   8.139  21.841  0.00  0.00    +0.000 C 
ATOM     20  C   UNL     1       1.815   7.020  19.725  0.00  0.00    +0.000 A 
ENDBRANCH  12  13
ENDBRANCH   2  12
BRANCH   3  21
ATOM     21  C   UNL     1       5.237   6.026  17.279  0.00  0.00    +0.000 C 
BRANCH  21  22
ATOM     22  C   UNL     1       5.697   5.417  15.975  0.00  0.00    +0.000 A 
ATOM     23  C   UNL     1       4.836   4.620  15.203  0.00  0.00    +0.000 A 
ATOM     24  C   UNL     1       5.292   4.001  14.036  0.00  0.00    +0.000 A 
ATOM     25  C   UNL     1       6.602   4.197  13.614  0.00  0.00    +0.000 A 
ATOM     26  C   UNL     1       7.450   5.033  14.338  0.00  0.00    +0.000 A 
ATOM     27  C   UNL     1       6.999   5.644  15.509  0.00  0.00    +0.000 A 
ENDBRANCH  21  22
ENDBRANCH   3  21
TORSDOF 5
ENDMDL
MODEL 6
REMARK VINA RESULT:      -7.7      2.122      6.326
REMARK  Name = 
REMARK  8 active torsions:
REMARK  status: ('A' for Active; 'I' for Inactive)
REMARK    1  A    between atoms: C_1  and  C_2
REMARK    2  A    between atoms: C_2  and  C_3
REMARK    3  A    between atoms: C_4  and  O_5
REMARK    4  A    between atoms: O_5  and  C_6
REMARK    5  A    between atoms: C_8  and  C_9
REMARK    6  A    between atoms: C_11  and  C_12
REMARK    7  A    between atoms: N_14  and  C_15
REMARK    8  A    between atoms: C_15  and  C_16
REMARK                            x       y       z     vdW  Elec       q    Type
REMARK                         _______ _______ _______ _____ _____    ______ ____
ROOT
ATOM      1  C   UNL     1       2.648   5.418  19.078  0.00  0.00    +0.000 A 
ATOM      2  C   UNL     1       2.689   6.617  18.449  0.00  0.00    +0.000 A 
ATOM      3  N   UNL     1       2.304   7.791  19.105  0.00  0.00    +0.000 N 
ATOM      4  C   UNL     1       1.787   7.777  20.391  0.00  0.00    +0.000 A 
ATOM      5  O   UNL     1       1.401   8.769  21.005  0.00  0.00    +0.000 OA
ATOM      6  N   UNL     1       1.701   6.560  20.989  0.00  0.00    +0.000 N 
ATOM      7  C   UNL     1       1.955   5.372  20.390  0.00  0.00    +0.000 A 
ATOM      8  O   UNL     1       1.607   4.316  20.908  0.00  0.00    +0.000 OA
ATOM      9  H   UNL     1       1.233   6.533  21.881  0.00  0.00    +0.000 HD
ENDROOT
BRANCH   1  11
ATOM     10  C   UNL     1       4.499   3.671  19.094  0.00  0.00    +0.000 C 
ATOM     11  C   UNL     1       3.131   4.085  18.562  0.00  0.00    +0.000 C 
ENDBRANCH   1  11
BRANCH   2  12
ATOM     12  O   UNL     1       3.185   6.789  17.153  0.00  0.00    +0.000 OA
BRANCH  12  13
ATOM     13  C   UNL     1       4.489   6.442  16.834  0.00  0.00    +0.000 A 
ATOM     14  C   UNL     1       4.849   5.546  15.821  0.00  0.00    +0.000 A 
ATOM     15  C   UNL     1       6.177   5.129  15.674  0.00  0.00    +0.000 A 
ATOM     16  C   UNL     1       6.535   4.069  14.674  0.00  0.00    +0.000 C 
ATOM     17  C   UNL     1       7.171   5.720  16.461  0.00  0.00    +0.000 A 
ATOM     18  C   UNL     1       6.844   6.700  17.406  0.00  0.00    +0.000 A 
ATOM     19  C   UNL     1       7.929   7.410  18.164  0.00  0.00    +0.000 C 
ATOM     20  C   UNL     1       5.494   7.030  17.611  0.00  0.00    +0.000 A 
ENDBRANCH  12  13
ENDBRANCH   2  12
BRANCH   3  21
ATOM     21  C   UNL     1       2.464   9.110  18.477  0.00  0.00    +0.000 C 
BRANCH  21  22
ATOM     22  C   UNL     1       1.169   9.877  18.345  0.00  0.00    +0.000 A 
ATOM     23  C   UNL     1       1.051  11.191  18.827  0.00  0.00    +0.000 A 
ATOM     24  C   UNL     1      -0.170  11.866  18.766  0.00  0.00    +0.000 A 
ATOM     25  C   UNL     1      -1.278  11.247  18.196  0.00  0.00    +0.000 A 
ATOM     26  C   UNL     1      -1.160   9.966  17.661  0.00  0.00    +0.000 A 
ATOM     27  C   UNL     1       0.057   9.286  17.730  0.00  0.00    +0.000 A 
ENDBRANCH  21  22
ENDBRANCH   3  21
TORSDOF 5
ENDMDL
MODEL 7
REMARK VINA RESULT:      -7.7      2.094      6.322
REMARK  Name = 
REMARK  8 active torsions:
REMARK  status: ('A' for Active; 'I' for Inactive)
REMARK    1  A    between atoms: C_1  and  C_2
REMARK    2  A    between atoms: C_2  and  C_3
REMARK    3  A    between atoms: C_4  and  O_5
REMARK    4  A    between atoms: O_5  and  C_6
REMARK    5  A    between atoms: C_8  and  C_9
REMARK    6  A    between atoms: C_11  and  C_12
REMARK    7  A    between atoms: N_14  and  C_15
REMARK    8  A    between atoms: C_15  and  C_16
REMARK                            x       y       z     vdW  Elec       q    Type
REMARK                         _______ _______ _______ _____ _____    ______ ____
ROOT
ATOM      1  C   UNL     1       2.664   5.429  19.095  0.00  0.00    +0.000 A 
ATOM      2  C   UNL     1       2.682   6.626  18.462  0.00  0.00    +0.000 A 
ATOM      3  N   UNL     1       2.284   7.796  19.117  0.00  0.00    +0.000 N 
ATOM      4  C   UNL     1       1.777   7.780  20.406  0.00  0.00    +0.000 A 
ATOM      5  O   UNL     1       1.380   8.767  21.020  0.00  0.00    +0.000 OA
ATOM      6  N   UNL     1       1.714   6.563  21.010  0.00  0.00    +0.000 N 
ATOM      7  C   UNL     1       1.983   5.377  20.413  0.00  0.00    +0.000 A 
ATOM      8  O   UNL     1       1.655   4.317  20.937  0.00  0.00    +0.000 OA
ATOM      9  H   UNL     1       1.253   6.532  21.905  0.00  0.00    +0.000 HD
ENDROOT
BRANCH   1  11
ATOM     10  C   UNL     1       2.239   3.440  17.564  0.00  0.00    +0.000 C 
ATOM     11  C   UNL     1       3.164   4.102  18.580  0.00  0.00    +0.000 C 
ENDBRANCH   1  11
BRANCH   2  12
ATOM     12  O   UNL     1       3.165   6.801  17.161  0.00  0.00    +0.000 OA
BRANCH  12  13
ATOM     13  C   UNL     1       4.472   6.475  16.834  0.00  0.00    +0.000 A 
ATOM     14  C   UNL     1       4.840   5.552  15.849  0.00  0.00    +0.000 A 
ATOM     15  C   UNL     1       6.176   5.163  15.695  0.00  0.00    +0.000 A 
ATOM     16  C   UNL     1       6.546   4.076  14.729  0.00  0.00    +0.000 C 
ATOM     17  C   UNL     1       7.166   5.807  16.444  0.00  0.00    +0.000 A 
ATOM     18  C   UNL     1       6.829   6.812  17.358  0.00  0.00    +0.000 A 
ATOM     19  C   UNL     1       7.906   7.577  18.072  0.00  0.00    +0.000 C 
ATOM     20  C   UNL     1       5.474   7.116  17.573  0.00  0.00    +0.000 A 
ENDBRANCH  12  13
ENDBRANCH   2  12
BRANCH   3  21
ATOM     21  C   UNL     1       2.419   9.116  18.483  0.00  0.00    +0.000 C 
BRANCH  21  22
ATOM     22  C   UNL     1       1.115   9.874  18.384  0.00  0.00    +0.000 A 
ATOM     23  C   UNL     1      -0.011   9.303  17.769  0.00  0.00    +0.000 A 
ATOM     24  C   UNL     1      -1.189  10.038  17.618  0.00  0.00    +0.000 A 
ATOM     25  C   UNL     1      -1.264  11.338  18.105  0.00  0.00    +0.000 A 
ATOM     26  C   UNL     1      -0.174  11.896  18.770  0.00  0.00    +0.000 A 
ATOM     27  C   UNL     1       1.008  11.167  18.914  0.00  0.00    +0.000 A 
ENDBRANCH  21  22
ENDBRANCH   3  21
TORSDOF 5
ENDMDL
MODEL 8
REMARK VINA RESULT:      -7.6      2.073      6.380
REMARK  Name = 
REMARK  8 active torsions:
REMARK  status: ('A' for Active; 'I' for Inactive)
REMARK    1  A    between atoms: C_1  and  C_2
REMARK    2  A    between atoms: C_2  and  C_3
REMARK    3  A    between atoms: C_4  and  O_5
REMARK    4  A    between atoms: O_5  and  C_6
REMARK    5  A    between atoms: C_8  and  C_9
REMARK    6  A    between atoms: C_11  and  C_12
REMARK    7  A    between atoms: N_14  and  C_15
REMARK    8  A    between atoms: C_15  and  C_16
REMARK                            x       y       z     vdW  Elec       q    Type
REMARK                         _______ _______ _______ _____ _____    ______ ____
ROOT
ATOM      1  C   UNL     1       2.546   5.337  19.246  0.00  0.00    +0.000 A 
ATOM      2  C   UNL     1       2.622   6.508  18.570  0.00  0.00    +0.000 A 
ATOM      3  N   UNL     1       2.238   7.714  19.168  0.00  0.00    +0.000 N 
ATOM      4  C   UNL     1       1.687   7.760  20.438  0.00  0.00    +0.000 A 
ATOM      5  O   UNL     1       1.300   8.781  21.002  0.00  0.00    +0.000 OA
ATOM      6  N   UNL     1       1.567   6.569  21.083  0.00  0.00    +0.000 N 
ATOM      7  C   UNL     1       1.819   5.355  20.540  0.00  0.00    +0.000 A 
ATOM      8  O   UNL     1       1.441   4.325  21.090  0.00  0.00    +0.000 OA
ATOM      9  H   UNL     1       1.075   6.586  21.962  0.00  0.00    +0.000 HD
ENDROOT
BRANCH   1  11
ATOM     10  C   UNL     1       2.128   3.318  17.753  0.00  0.00    +0.000 C 
ATOM     11  C   UNL     1       3.022   3.977  18.797  0.00  0.00    +0.000 C 
ENDBRANCH   1  11
BRANCH   2  12
ATOM     12  O   UNL     1       3.155   6.621  17.282  0.00  0.00    +0.000 OA
BRANCH  12  13
ATOM     13  C   UNL     1       4.502   6.397  17.043  0.00  0.00    +0.000 A 
ATOM     14  C   UNL     1       5.547   7.055  17.700  0.00  0.00    +0.000 A 
ATOM     15  C   UNL     1       6.873   6.886  17.284  0.00  0.00    +0.000 A 
ATOM     16  C   UNL     1       7.974   7.694  17.905  0.00  0.00    +0.000 C 
ATOM     17  C   UNL     1       7.163   5.945  16.291  0.00  0.00    +0.000 A 
ATOM     18  C   UNL     1       6.141   5.197  15.696  0.00  0.00    +0.000 A 
ATOM     19  C   UNL     1       6.473   4.109  14.715  0.00  0.00    +0.000 C 
ATOM     20  C   UNL     1       4.807   5.455  16.053  0.00  0.00    +0.000 A 
ENDBRANCH  12  13
ENDBRANCH   2  12
BRANCH   3  21
ATOM     21  C   UNL     1       2.435   9.004  18.491  0.00  0.00    +0.000 C 
BRANCH  21  22
ATOM     22  C   UNL     1       1.165   9.812  18.352  0.00  0.00    +0.000 A 
ATOM     23  C   UNL     1       1.080  11.121  18.854  0.00  0.00    +0.000 A 
ATOM     24  C   UNL     1      -0.118  11.834  18.786  0.00  0.00    +0.000 A 
ATOM     25  C   UNL     1      -1.235  11.259  18.190  0.00  0.00    +0.000 A 
ATOM     26  C   UNL     1      -1.148   9.984  17.634  0.00  0.00    +0.000 A 
ATOM     27  C   UNL     1       0.046   9.266  17.710  0.00  0.00    +0.000 A 
ENDBRANCH  21  22
ENDBRANCH   3  21
TORSDOF 5
ENDMDL
MODEL 9
REMARK VINA RESULT:      -7.6      0.124      1.692
REMARK  Name = 
REMARK  8 active torsions:
REMARK  status: ('A' for Active; 'I' for Inactive)
REMARK    1  A    between atoms: C_1  and  C_2
REMARK    2  A    between atoms: C_2  and  C_3
REMARK    3  A    between atoms: C_4  and  O_5
REMARK    4  A    between atoms: O_5  and  C_6
REMARK    5  A    between atoms: C_8  and  C_9
REMARK    6  A    between atoms: C_11  and  C_12
REMARK    7  A    between atoms: N_14  and  C_15
REMARK    8  A    between atoms: C_15  and  C_16
REMARK                            x       y       z     vdW  Elec       q    Type
REMARK                         _______ _______ _______ _____ _____    ______ ____
ROOT
ATOM      1  C   UNL     1       2.064   4.156  19.443  0.00  0.00    +0.000 A 
ATOM      2  C   UNL     1       2.904   5.145  19.055  0.00  0.00    +0.000 A 
ATOM      3  N   UNL     1       3.493   5.138  17.786  0.00  0.00    +0.000 N 
ATOM      4  C   UNL     1       3.314   4.087  16.900  0.00  0.00    +0.000 A 
ATOM      5  O   UNL     1       3.830   4.008  15.788  0.00  0.00    +0.000 OA
ATOM      6  N   UNL     1       2.512   3.075  17.325  0.00  0.00    +0.000 N 
ATOM      7  C   UNL     1       1.990   2.958  18.569  0.00  0.00    +0.000 A 
ATOM      8  O   UNL     1       1.499   1.901  18.952  0.00  0.00    +0.000 OA
ATOM      9  H   UNL     1       2.462   2.265  16.728  0.00  0.00    +0.000 HD
ENDROOT
BRANCH   1  11
ATOM     10  C   UNL     1       1.975   3.343  21.853  0.00  0.00    +0.000 C 
ATOM     11  C   UNL     1       1.262   4.069  20.718  0.00  0.00    +0.000 C 
ENDBRANCH   1  11
BRANCH   2  12
ATOM     12  O   UNL     1       3.182   6.270  19.839  0.00  0.00    +0.000 OA
BRANCH  12  13
ATOM     13  C   UNL     1       2.266   7.304  19.956  0.00  0.00    +0.000 A 
ATOM     14  C   UNL     1       1.458   7.528  21.077  0.00  0.00    +0.000 A 
ATOM     15  C   UNL     1       0.448   8.496  21.048  0.00  0.00    +0.000 A 
ATOM     16  C   UNL     1      -0.500   8.641  22.202  0.00  0.00    +0.000 C 
ATOM     17  C   UNL     1       0.337   9.336  19.935  0.00  0.00    +0.000 A 
ATOM     18  C   UNL     1       1.207   9.198  18.847  0.00  0.00    +0.000 A 
ATOM     19  C   UNL     1       1.156  10.177  17.710  0.00  0.00    +0.000 C 
ATOM     20  C   UNL     1       2.148   8.155  18.851  0.00  0.00    +0.000 A 
ENDBRANCH  12  13
ENDBRANCH   2  12
BRANCH   3  21
ATOM     21  C   UNL     1       4.303   6.268  17.308  0.00  0.00    +0.000 C 
BRANCH  21  22
ATOM     22  C   UNL     1       5.706   6.285  17.872  0.00  0.00    +0.000 A 
ATOM     23  C   UNL     1       6.113   5.346  18.834  0.00  0.00    +0.000 A 
ATOM     24  C   UNL     1       7.386   5.414  19.402  0.00  0.00    +0.000 A 
ATOM     25  C   UNL     1       8.276   6.402  18.993  0.00  0.00    +0.000 A 
ATOM     26  C   UNL     1       7.907   7.303  17.997  0.00  0.00    +0.000 A 
ATOM     27  C   UNL     1       6.631   7.242  17.435  0.00  0.00    +0.000 A 
ENDBRANCH  21  22
ENDBRANCH   3  21
TORSDOF 5
ENDMDL
