MODEL 1
REMARK VINA RESULT:      -6.0      0.000      0.000
REMARK  Name = 
REMARK  10 active torsions:
REMARK  status: ('A' for Active; 'I' for Inactive)
REMARK    1  A    between atoms: C_1  and  O_2
REMARK    2  A    between atoms: O_2  and  C_3
REMARK    3  A    between atoms: C_3  and  C_5
REMARK    4  A    between atoms: C_5  and  C_6
REMARK    5  A    between atoms: C_5  and  N_7
REMARK    6  A    between atoms: N_7  and  C_17
REMARK    7  A    between atoms: C_8  and  C_10
REMARK    8  A    between atoms: C_10  and  C_11
REMARK    9  A    between atoms: C_18  and  C_19
REMARK   10  A    between atoms: C_23  and  C_24
REMARK                            x       y       z     vdW  Elec       q    Type
REMARK                         _______ _______ _______ _____ _____    ______ ____
ROOT
ATOM      1  N   UNL     1      -1.294  12.539  20.356  0.00  0.00    +0.000 N 
ATOM      2  C   UNL     1      -2.598  12.379  19.860  0.00  0.00    +0.000 C 
ATOM      3  O   UNL     1      -3.595  12.441  20.585  0.00  0.00    +0.000 OA
ENDROOT
BRANCH   1   4
ATOM      4  C   UNL     1      -0.136  12.508  19.497  0.00  0.00    +0.000 A 
ATOM      5  C   UNL     1       0.548  11.287  19.249  0.00  0.00    +0.000 A 
ATOM      6  C   UNL     1       0.053   9.936  19.693  0.00  0.00    +0.000 C 
ATOM      7  C   UNL     1       1.793  11.308  18.595  0.00  0.00    +0.000 A 
ATOM      8  C   UNL     1       2.331  12.495  18.116  0.00  0.00    +0.000 A 
ATOM      9  C   UNL     1       1.627  13.679  18.276  0.00  0.00    +0.000 A 
ATOM     10  C   UNL     1       0.405  13.710  18.973  0.00  0.00    +0.000 A 
ATOM     11  C   UNL     1      -0.198  15.070  19.183  0.00  0.00    +0.000 C 
ENDBRANCH   1   4
BRANCH   1  12
ATOM     12  C   UNL     1      -1.030  12.826  21.805  0.00  0.00    +0.000 C 
ATOM     13  C   UNL     1      -1.805  14.022  22.379  0.00  0.00    +0.000 C 
BRANCH  12  14
ATOM     14  C   UNL     1      -1.193  11.702  22.838  0.00  0.00    +0.000 C 
ATOM     15  O   UNL     1      -2.264  11.493  23.402  0.00  0.00    +0.000 OA
BRANCH  14  17
ATOM     16  C   UNL     1      -0.292   9.562  23.303  0.00  0.00    +0.000 C 
ATOM     17  O   UNL     1      -0.081  10.948  23.012  0.00  0.00    +0.000 OA
ENDBRANCH  14  17
ENDBRANCH  12  14
ENDBRANCH   1  12
BRANCH   2  18
ATOM     18  C   UNL     1      -2.796  12.144  18.352  0.00  0.00    +0.000 C 
BRANCH  18  19
ATOM     19  C   UNL     1      -3.729  10.982  17.972  0.00  0.00    +0.000 C 
ATOM     20  C   UNL     1      -4.479  11.301  16.657  0.00  0.00    +0.000 C 
ATOM     21  C   UNL     1      -3.575  11.276  15.418  0.00  0.00    +0.000 C 
ATOM     22  C   UNL     1      -2.784   9.981  15.313  0.00  0.00    +0.000 C 
ATOM     23  C   UNL     1      -2.051   9.640  16.608  0.00  0.00    +0.000 C 
ATOM     24  C   UNL     1      -2.981   9.651  17.818  0.00  0.00    +0.000 C 
ENDBRANCH  18  19
ENDBRANCH   2  18
TORSDOF 6
ENDMDL
MODEL 2
REMARK VINA RESULT:      -5.9      1.212      2.579
REMARK  Name = 
REMARK  10 active torsions:
REMARK  status: ('A' for Active; 'I' for Inactive)
REMARK    1  A    between atoms: C_1  and  O_2
REMARK    2  A    between atoms: O_2  and  C_3
REMARK    3  A    between atoms: C_3  and  C_5
REMARK    4  A    between atoms: C_5  and  C_6
REMARK    5  A    between atoms: C_5  and  N_7
REMARK    6  A    between atoms: N_7  and  C_17
REMARK    7  A    between atoms: C_8  and  C_10
REMARK    8  A    between atoms: C_10  and  C_11
REMARK    9  A    between atoms: C_18  and  C_19
REMARK   10  A    between atoms: C_23  and  C_24
REMARK                            x       y       z     vdW  Elec       q    Type
REMARK                         _______ _______ _______ _____ _____    ______ ____
ROOT
ATOM      1  N   UNL     1      -0.387  12.163  20.294  0.00  0.00    +0.000 N 
ATOM      2  C   UNL     1      -1.582  12.575  19.682  0.00  0.00    +0.000 C 
ATOM      3  O   UNL     1      -2.374  13.347  20.228  0.00  0.00    +0.000 OA
ENDROOT
BRANCH   1   4
ATOM      4  C   UNL     1       0.555  11.293  19.634  0.00  0.00    +0.000 A 
ATOM      5  C   UNL     1       1.440  11.802  18.646  0.00  0.00    +0.000 A 
ATOM      6  C   UNL     1       1.601  13.265  18.328  0.00  0.00    +0.000 C 
ATOM      7  C   UNL     1       2.193  10.910  17.860  0.00  0.00    +0.000 A 
ATOM      8  C   UNL     1       2.145   9.542  18.086  0.00  0.00    +0.000 A 
ATOM      9  C   UNL     1       1.350   9.043  19.108  0.00  0.00    +0.000 A 
ATOM     10  C   UNL     1       0.540   9.896  19.880  0.00  0.00    +0.000 A 
ATOM     11  C   UNL     1      -0.364   9.223  20.874  0.00  0.00    +0.000 C 
ENDBRANCH   1   4
BRANCH   1  12
ATOM     12  C   UNL     1       0.019  12.663  21.650  0.00  0.00    +0.000 C 
ATOM     13  C   UNL     1       0.421  14.146  21.698  0.00  0.00    +0.000 C 
BRANCH  12  14
ATOM     14  C   UNL     1      -0.925  12.459  22.843  0.00  0.00    +0.000 C 
ATOM     15  O   UNL     1      -1.062  11.361  23.378  0.00  0.00    +0.000 OA
BRANCH  14  17
ATOM     16  C   UNL     1      -2.894  13.473  23.679  0.00  0.00    +0.000 C 
ATOM     17  O   UNL     1      -1.527  13.594  23.270  0.00  0.00    +0.000 OA
ENDBRANCH  14  17
ENDBRANCH  12  14
ENDBRANCH   1  12
BRANCH   2  18
ATOM     18  C   UNL     1      -1.905  12.065  18.267  0.00  0.00    +0.000 C 
BRANCH  18  19
ATOM     19  C   UNL     1      -2.631  10.711  18.192  0.00  0.00    +0.000 C 
ATOM     20  C   UNL     1      -4.156  10.925  18.047  0.00  0.00    +0.000 C 
ATOM     21  C   UNL     1      -4.567  11.474  16.676  0.00  0.00    +0.000 C 
ATOM     22  C   UNL     1      -4.006  10.642  15.533  0.00  0.00    +0.000 C 
ATOM     23  C   UNL     1      -2.505  10.405  15.668  0.00  0.00    +0.000 C 
ATOM     24  C   UNL     1      -2.130   9.837  17.034  0.00  0.00    +0.000 C 
ENDBRANCH  18  19
ENDBRANCH   2  18
TORSDOF 6
ENDMDL
MODEL 3
REMARK VINA RESULT:      -5.7      7.017      9.652
REMARK  Name = 
REMARK  10 active torsions:
REMARK  status: ('A' for Active; 'I' for Inactive)
REMARK    1  A    between atoms: C_1  and  O_2
REMARK    2  A    between atoms: O_2  and  C_3
REMARK    3  A    between atoms: C_3  and  C_5
REMARK    4  A    between atoms: C_5  and  C_6
REMARK    5  A    between atoms: C_5  and  N_7
REMARK    6  A    between atoms: N_7  and  C_17
REMARK    7  A    between atoms: C_8  and  C_10
REMARK    8  A    between atoms: C_10  and  C_11
REMARK    9  A    between atoms: C_18  and  C_19
REMARK   10  A    between atoms: C_23  and  C_24
REMARK                            x       y       z     vdW  Elec       q    Type
REMARK                         _______ _______ _______ _____ _____    ______ ____
ROOT
ATOM      1  N   UNL     1       3.386   4.848  18.704  0.00  0.00    +0.000 N 
ATOM      2  C   UNL     1       4.682   4.406  19.018  0.00  0.00    +0.000 C 
ATOM      3  O   UNL     1       5.012   3.219  18.948  0.00  0.00    +0.000 OA
ENDROOT
BRANCH   1   4
ATOM      4  C   UNL     1       3.018   6.242  18.747  0.00  0.00    +0.000 A 
ATOM      5  C   UNL     1       2.237   6.751  19.819  0.00  0.00    +0.000 A 
ATOM      6  C   UNL     1       1.881   5.964  21.052  0.00  0.00    +0.000 C 
ATOM      7  C   UNL     1       1.703   8.050  19.736  0.00  0.00    +0.000 A 
ATOM      8  C   UNL     1       1.991   8.874  18.657  0.00  0.00    +0.000 A 
ATOM      9  C   UNL     1       2.826   8.416  17.648  0.00  0.00    +0.000 A 
ATOM     10  C   UNL     1       3.335   7.104  17.666  0.00  0.00    +0.000 A 
ATOM     11  C   UNL     1       4.127   6.690  16.458  0.00  0.00    +0.000 C 
ENDBRANCH   1   4
BRANCH   1  12
ATOM     12  C   UNL     1       2.322   3.901  18.233  0.00  0.00    +0.000 C 
ATOM     13  C   UNL     1       2.724   3.016  17.042  0.00  0.00    +0.000 C 
BRANCH  12  14
ATOM     14  C   UNL     1       1.658   2.951  19.240  0.00  0.00    +0.000 C 
ATOM     15  O   UNL     1       0.606   2.370  18.984  0.00  0.00    +0.000 OA
BRANCH  14  17
ATOM     16  C   UNL     1       1.604   2.521  21.567  0.00  0.00    +0.000 C 
ATOM     17  O   UNL     1       2.365   2.778  20.382  0.00  0.00    +0.000 OA
ENDBRANCH  14  17
ENDBRANCH  12  14
ENDBRANCH   1  12
BRANCH   2  18
ATOM     18  C   UNL     1       5.738   5.443  19.440  0.00  0.00    +0.000 C 
BRANCH  18  19
ATOM     19  C   UNL     1       7.180   5.149  18.994  0.00  0.00    +0.000 C 
ATOM     20  C   UNL     1       7.201   4.652  17.530  0.00  0.00    +0.000 C 
ATOM     21  C   UNL     1       6.871   5.747  16.508  0.00  0.00    +0.000 C 
ATOM     22  C   UNL     1       7.738   6.983  16.693  0.00  0.00    +0.000 C 
ATOM     23  C   UNL     1       7.745   7.478  18.137  0.00  0.00    +0.000 C 
ATOM     24  C   UNL     1       8.099   6.371  19.126  0.00  0.00    +0.000 C 
ENDBRANCH  18  19
ENDBRANCH   2  18
TORSDOF 6
ENDMDL
MODEL 4
REMARK VINA RESULT:      -5.7      2.159      3.897
REMARK  Name = 
REMARK  10 active torsions:
REMARK  status: ('A' for Active; 'I' for Inactive)
REMARK    1  A    between atoms: C_1  and  O_2
REMARK    2  A    between atoms: O_2  and  C_3
REMARK    3  A    between atoms: C_3  and  C_5
REMARK    4  A    between atoms: C_5  and  C_6
REMARK    5  A    between atoms: C_5  and  N_7
REMARK    6  A    between atoms: N_7  and  C_17
REMARK    7  A    between atoms: C_8  and  C_10
REMARK    8  A    between atoms: C_10  and  C_11
REMARK    9  A    between atoms: C_18  and  C_19
REMARK   10  A    between atoms: C_23  and  C_24
REMARK                            x       y       z     vdW  Elec       q    Type
REMARK                         _______ _______ _______ _____ _____    ______ ____
ROOT
ATOM      1  N   UNL     1       0.338  12.009  19.781  0.00  0.00    +0.000 N 
ATOM      2  C   UNL     1      -0.690  12.362  18.892  0.00  0.00    +0.000 C 
ATOM      3  O   UNL     1      -0.529  13.181  17.984  0.00  0.00    +0.000 OA
ENDROOT
BRANCH   1   4
ATOM      4  C   UNL     1       0.156  11.020  20.814  0.00  0.00    +0.000 A 
ATOM      5  C   UNL     1       0.475   9.656  20.574  0.00  0.00    +0.000 A 
ATOM      6  C   UNL     1       1.169   9.156  19.336  0.00  0.00    +0.000 C 
ATOM      7  C   UNL     1       0.087   8.677  21.507  0.00  0.00    +0.000 A 
ATOM      8  C   UNL     1      -0.533   9.028  22.698  0.00  0.00    +0.000 A 
ATOM      9  C   UNL     1      -0.767  10.365  22.980  0.00  0.00    +0.000 A 
ATOM     10  C   UNL     1      -0.446  11.371  22.050  0.00  0.00    +0.000 A 
ATOM     11  C   UNL     1      -0.859  12.767  22.422  0.00  0.00    +0.000 C 
ENDBRANCH   1   4
BRANCH   1  12
ATOM     12  C   UNL     1       1.717  12.590  19.663  0.00  0.00    +0.000 C 
ATOM     13  C   UNL     1       2.326  12.529  18.254  0.00  0.00    +0.000 C 
BRANCH  12  14
ATOM     14  C   UNL     1       1.977  14.020  20.158  0.00  0.00    +0.000 C 
ATOM     15  O   UNL     1       1.895  14.989  19.407  0.00  0.00    +0.000 OA
BRANCH  14  17
ATOM     16  C   UNL     1       2.064  15.393  22.085  0.00  0.00    +0.000 C 
ATOM     17  O   UNL     1       2.240  14.105  21.483  0.00  0.00    +0.000 OA
ENDBRANCH  14  17
ENDBRANCH  12  14
ENDBRANCH   1  12
BRANCH   2  18
ATOM     18  C   UNL     1      -2.063  11.682  19.039  0.00  0.00    +0.000 C 
BRANCH  18  19
ATOM     19  C   UNL     1      -2.218  10.327  18.329  0.00  0.00    +0.000 C 
ATOM     20  C   UNL     1      -3.699   9.878  18.342  0.00  0.00    +0.000 C 
ATOM     21  C   UNL     1      -4.598  10.714  17.424  0.00  0.00    +0.000 C 
ATOM     22  C   UNL     1      -4.050  10.798  16.007  0.00  0.00    +0.000 C 
ATOM     23  C   UNL     1      -2.584  11.223  15.975  0.00  0.00    +0.000 C 
ATOM     24  C   UNL     1      -1.712  10.357  16.881  0.00  0.00    +0.000 C 
ENDBRANCH  18  19
ENDBRANCH   2  18
TORSDOF 6
ENDMDL
MODEL 5
REMARK VINA RESULT:      -5.7      8.617     10.950
REMARK  Name = 
REMARK  10 active torsions:
REMARK  status: ('A' for Active; 'I' for Inactive)
REMARK    1  A    between atoms: C_1  and  O_2
REMARK    2  A    between atoms: O_2  and  C_3
REMARK    3  A    between atoms: C_3  and  C_5
REMARK    4  A    between atoms: C_5  and  C_6
REMARK    5  A    between atoms: C_5  and  N_7
REMARK    6  A    between atoms: N_7  and  C_17
REMARK    7  A    between atoms: C_8  and  C_10
REMARK    8  A    between atoms: C_10  and  C_11
REMARK    9  A    between atoms: C_18  and  C_19
REMARK   10  A    between atoms: C_23  and  C_24
REMARK                            x       y       z     vdW  Elec       q    Type
REMARK                         _______ _______ _______ _____ _____    ______ ____
ROOT
ATOM      1  N   UNL     1       6.205   5.303  17.553  0.00  0.00    +0.000 N 
ATOM      2  C   UNL     1       6.799   4.550  16.527  0.00  0.00    +0.000 C 
ATOM      3  O   UNL     1       8.018   4.528  16.342  0.00  0.00    +0.000 OA
ENDROOT
BRANCH   1   4
ATOM      4  C   UNL     1       4.783   5.291  17.791  0.00  0.00    +0.000 A 
ATOM      5  C   UNL     1       3.961   6.349  17.316  0.00  0.00    +0.000 A 
ATOM      6  C   UNL     1       4.441   7.448  16.406  0.00  0.00    +0.000 C 
ATOM      7  C   UNL     1       2.623   6.436  17.742  0.00  0.00    +0.000 A 
ATOM      8  C   UNL     1       2.067   5.461  18.558  0.00  0.00    +0.000 A 
ATOM      9  C   UNL     1       2.838   4.377  18.954  0.00  0.00    +0.000 A 
ATOM     10  C   UNL     1       4.195   4.281  18.596  0.00  0.00    +0.000 A 
ATOM     11  C   UNL     1       4.951   3.125  19.186  0.00  0.00    +0.000 C 
ENDBRANCH   1   4
BRANCH   1  12
ATOM     12  C   UNL     1       7.026   6.112  18.514  0.00  0.00    +0.000 C 
ATOM     13  C   UNL     1       8.027   5.301  19.351  0.00  0.00    +0.000 C 
BRANCH  12  14
ATOM     14  C   UNL     1       7.814   7.324  17.998  0.00  0.00    +0.000 C 
ATOM     15  O   UNL     1       7.693   7.731  16.845  0.00  0.00    +0.000 OA
BRANCH  14  17
ATOM     16  C   UNL     1       8.827   9.320  18.770  0.00  0.00    +0.000 C 
ATOM     17  O   UNL     1       8.588   7.918  18.937  0.00  0.00    +0.000 OA
ENDBRANCH  14  17
ENDBRANCH  12  14
ENDBRANCH   1  12
BRANCH   2  18
ATOM     18  C   UNL     1       5.898   3.699  15.615  0.00  0.00    +0.000 C 
BRANCH  18  19
ATOM     19  C   UNL     1       5.269   4.435  14.419  0.00  0.00    +0.000 C 
ATOM     20  C   UNL     1       6.214   5.550  13.915  0.00  0.00    +0.000 C 
ATOM     21  C   UNL     1       7.468   5.015  13.212  0.00  0.00    +0.000 C 
ATOM     22  C   UNL     1       7.128   4.026  12.107  0.00  0.00    +0.000 C 
ATOM     23  C   UNL     1       6.181   2.927  12.582  0.00  0.00    +0.000 C 
ATOM     24  C   UNL     1       4.933   3.491  13.256  0.00  0.00    +0.000 C 
ENDBRANCH  18  19
ENDBRANCH   2  18
TORSDOF 6
ENDMDL
MODEL 6
REMARK VINA RESULT:      -5.6      1.584      4.963
REMARK  Name = 
REMARK  10 active torsions:
REMARK  status: ('A' for Active; 'I' for Inactive)
REMARK    1  A    between atoms: C_1  and  O_2
REMARK    2  A    between atoms: O_2  and  C_3
REMARK    3  A    between atoms: C_3  and  C_5
REMARK    4  A    between atoms: C_5  and  C_6
REMARK    5  A    between atoms: C_5  and  N_7
REMARK    6  A    between atoms: N_7  and  C_17
REMARK    7  A    between atoms: C_8  and  C_10
REMARK    8  A    between atoms: C_10  and  C_11
REMARK    9  A    between atoms: C_18  and  C_19
REMARK   10  A    between atoms: C_23  and  C_24
REMARK                            x       y       z     vdW  Elec       q    Type
REMARK                         _______ _______ _______ _____ _____    ______ ____
ROOT
ATOM      1  N   UNL     1      -0.359  11.215  20.328  0.00  0.00    +0.000 N 
ATOM      2  C   UNL     1       0.562  12.264  20.492  0.00  0.00    +0.000 C 
ATOM      3  O   UNL     1       1.335  12.323  21.452  0.00  0.00    +0.000 OA
ENDROOT
BRANCH   1   4
ATOM      4  C   UNL     1      -1.231  11.130  19.183  0.00  0.00    +0.000 A 
ATOM      5  C   UNL     1      -2.510  11.748  19.200  0.00  0.00    +0.000 A 
ATOM      6  C   UNL     1      -2.992  12.662  20.295  0.00  0.00    +0.000 C 
ATOM      7  C   UNL     1      -3.430  11.471  18.172  0.00  0.00    +0.000 A 
ATOM      8  C   UNL     1      -3.081  10.665  17.097  0.00  0.00    +0.000 A 
ATOM      9  C   UNL     1      -1.804  10.130  17.028  0.00  0.00    +0.000 A 
ATOM     10  C   UNL     1      -0.873  10.336  18.063  0.00  0.00    +0.000 A 
ATOM     11  C   UNL     1       0.433   9.605  17.928  0.00  0.00    +0.000 C 
ENDBRANCH   1   4
BRANCH   1  12
ATOM     12  C   UNL     1      -0.440  10.077  21.303  0.00  0.00    +0.000 C 
ATOM     13  C   UNL     1       0.743   9.098  21.254  0.00  0.00    +0.000 C 
BRANCH  12  14
ATOM     14  C   UNL     1      -0.660  10.375  22.793  0.00  0.00    +0.000 C 
ATOM     15  O   UNL     1       0.145  10.019  23.649  0.00  0.00    +0.000 OA
BRANCH  14  17
ATOM     16  C   UNL     1      -1.562  12.461  23.456  0.00  0.00    +0.000 C 
ATOM     17  O   UNL     1      -1.772  11.104  23.050  0.00  0.00    +0.000 OA
ENDBRANCH  14  17
ENDBRANCH  12  14
ENDBRANCH   1  12
BRANCH   2  18
ATOM     18  C   UNL     1       0.628  13.367  19.422  0.00  0.00    +0.000 C 
BRANCH  18  19
ATOM     19  C   UNL     1       1.149  14.733  19.899  0.00  0.00    +0.000 C 
ATOM     20  C   UNL     1       1.202  15.732  18.720  0.00  0.00    +0.000 C 
ATOM     21  C   UNL     1      -0.183  16.179  18.236  0.00  0.00    +0.000 C 
ATOM     22  C   UNL     1      -1.047  16.701  19.374  0.00  0.00    +0.000 C 
ATOM     23  C   UNL     1      -1.097  15.736  20.556  0.00  0.00    +0.000 C 
ATOM     24  C   UNL     1       0.296  15.328  21.028  0.00  0.00    +0.000 C 
ENDBRANCH  18  19
ENDBRANCH   2  18
TORSDOF 6
ENDMDL
MODEL 7
REMARK VINA RESULT:      -5.5      1.067      2.327
REMARK  Name = 
REMARK  10 active torsions:
REMARK  status: ('A' for Active; 'I' for Inactive)
REMARK    1  A    between atoms: C_1  and  O_2
REMARK    2  A    between atoms: O_2  and  C_3
REMARK    3  A    between atoms: C_3  and  C_5
REMARK    4  A    between atoms: C_5  and  C_6
REMARK    5  A    between atoms: C_5  and  N_7
REMARK    6  A    between atoms: N_7  and  C_17
REMARK    7  A    between atoms: C_8  and  C_10
REMARK    8  A    between atoms: C_10  and  C_11
REMARK    9  A    between atoms: C_18  and  C_19
REMARK   10  A    between atoms: C_23  and  C_24
REMARK                            x       y       z     vdW  Elec       q    Type
REMARK                         _______ _______ _______ _____ _____    ______ ____
ROOT
ATOM      1  N   UNL     1      -0.443  12.110  20.293  0.00  0.00    +0.000 N 
ATOM      2  C   UNL     1      -1.670  12.476  19.715  0.00  0.00    +0.000 C 
ATOM      3  O   UNL     1      -2.502  13.167  20.309  0.00  0.00    +0.000 OA
ENDROOT
BRANCH   1   4
ATOM      4  C   UNL     1       0.544  11.338  19.579  0.00  0.00    +0.000 A 
ATOM      5  C   UNL     1       1.442  11.969  18.677  0.00  0.00    +0.000 A 
ATOM      6  C   UNL     1       1.567  13.461  18.515  0.00  0.00    +0.000 C 
ATOM      7  C   UNL     1       2.243  11.183  17.830  0.00  0.00    +0.000 A 
ATOM      8  C   UNL     1       2.230   9.798  17.913  0.00  0.00    +0.000 A 
ATOM      9  C   UNL     1       1.421   9.176  18.853  0.00  0.00    +0.000 A 
ATOM     10  C   UNL     1       0.563   9.923  19.682  0.00  0.00    +0.000 A 
ATOM     11  C   UNL     1      -0.349   9.128  20.572  0.00  0.00    +0.000 C 
ENDBRANCH   1   4
BRANCH   1  12
ATOM     12  C   UNL     1      -0.053  12.564  21.669  0.00  0.00    +0.000 C 
ATOM     13  C   UNL     1       0.464  14.009  21.752  0.00  0.00    +0.000 C 
BRANCH  12  14
ATOM     14  C   UNL     1      -1.057  12.425  22.822  0.00  0.00    +0.000 C 
ATOM     15  O   UNL     1      -1.402  13.391  23.499  0.00  0.00    +0.000 OA
BRANCH  14  17
ATOM     16  C   UNL     1      -0.627  10.169  23.398  0.00  0.00    +0.000 C 
ATOM     17  O   UNL     1      -1.553  11.174  22.972  0.00  0.00    +0.000 OA
ENDBRANCH  14  17
ENDBRANCH  12  14
ENDBRANCH   1  12
BRANCH   2  18
ATOM     18  C   UNL     1      -1.978  12.022  18.278  0.00  0.00    +0.000 C 
BRANCH  18  19
ATOM     19  C   UNL     1      -2.667  10.653  18.142  0.00  0.00    +0.000 C 
ATOM     20  C   UNL     1      -4.194  10.833  17.978  0.00  0.00    +0.000 C 
ATOM     21  C   UNL     1      -4.598  11.422  16.620  0.00  0.00    +0.000 C 
ATOM     22  C   UNL     1      -3.997  10.646  15.458  0.00  0.00    +0.000 C 
ATOM     23  C   UNL     1      -2.492  10.443  15.611  0.00  0.00    +0.000 C 
ATOM     24  C   UNL     1      -2.125   9.835  16.962  0.00  0.00    +0.000 C 
ENDBRANCH  18  19
ENDBRANCH   2  18
TORSDOF 6
ENDMDL
MODEL 8
REMARK VINA RESULT:      -5.5      0.916      2.234
REMARK  Name = 
REMARK  10 active torsions:
REMARK  status: ('A' for Active; 'I' for Inactive)
REMARK    1  A    between atoms: C_1  and  O_2
REMARK    2  A    between atoms: O_2  and  C_3
REMARK    3  A    between atoms: C_3  and  C_5
REMARK    4  A    between atoms: C_5  and  C_6
REMARK    5  A    between atoms: C_5  and  N_7
REMARK    6  A    between atoms: N_7  and  C_17
REMARK    7  A    between atoms: C_8  and  C_10
REMARK    8  A    between atoms: C_10  and  C_11
REMARK    9  A    between atoms: C_18  and  C_19
REMARK   10  A    between atoms: C_23  and  C_24
REMARK                            x       y       z     vdW  Elec       q    Type
REMARK                         _______ _______ _______ _____ _____    ______ ____
ROOT
ATOM      1  N   UNL     1      -1.466  12.639  20.604  0.00  0.00    +0.000 N 
ATOM      2  C   UNL     1      -2.716  12.551  19.970  0.00  0.00    +0.000 C 
ATOM      3  O   UNL     1      -3.773  12.804  20.552  0.00  0.00    +0.000 OA
ENDROOT
BRANCH   1   4
ATOM      4  C   UNL     1      -0.230  12.382  19.907  0.00  0.00    +0.000 A 
ATOM      5  C   UNL     1       0.413  13.413  19.170  0.00  0.00    +0.000 A 
ATOM      6  C   UNL     1      -0.016  14.856  19.186  0.00  0.00    +0.000 C 
ATOM      7  C   UNL     1       1.489  13.094  18.321  0.00  0.00    +0.000 A 
ATOM      8  C   UNL     1       1.986  11.800  18.250  0.00  0.00    +0.000 A 
ATOM      9  C   UNL     1       1.421  10.805  19.034  0.00  0.00    +0.000 A 
ATOM     10  C   UNL     1       0.308  11.070  19.854  0.00  0.00    +0.000 A 
ATOM     11  C   UNL     1      -0.285   9.884  20.560  0.00  0.00    +0.000 C 
ENDBRANCH   1   4
BRANCH   1  12
ATOM     12  C   UNL     1      -1.335  13.078  22.033  0.00  0.00    +0.000 C 
ATOM     13  C   UNL     1      -1.634  14.564  22.283  0.00  0.00    +0.000 C 
BRANCH  12  14
ATOM     14  C   UNL     1      -2.099  12.319  23.128  0.00  0.00    +0.000 C 
ATOM     15  O   UNL     1      -1.919  11.122  23.331  0.00  0.00    +0.000 OA
BRANCH  14  17
ATOM     16  C   UNL     1      -4.215  12.556  24.165  0.00  0.00    +0.000 C 
ATOM     17  O   UNL     1      -2.925  13.100  23.865  0.00  0.00    +0.000 OA
ENDBRANCH  14  17
ENDBRANCH  12  14
ENDBRANCH   1  12
BRANCH   2  18
ATOM     18  C   UNL     1      -2.768  12.149  18.486  0.00  0.00    +0.000 C 
BRANCH  18  19
ATOM     19  C   UNL     1      -3.646  10.931  18.152  0.00  0.00    +0.000 C 
ATOM     20  C   UNL     1      -4.511  11.216  16.902  0.00  0.00    +0.000 C 
ATOM     21  C   UNL     1      -3.703  11.271  15.600  0.00  0.00    +0.000 C 
ATOM     22  C   UNL     1      -2.835  10.036  15.412  0.00  0.00    +0.000 C 
ATOM     23  C   UNL     1      -1.987   9.728  16.642  0.00  0.00    +0.000 C 
ATOM     24  C   UNL     1      -2.823   9.657  17.917  0.00  0.00    +0.000 C 
ENDBRANCH  18  19
ENDBRANCH   2  18
TORSDOF 6
ENDMDL
MODEL 9
REMARK VINA RESULT:      -5.5      0.833      1.261
REMARK  Name = 
REMARK  10 active torsions:
REMARK  status: ('A' for Active; 'I' for Inactive)
REMARK    1  A    between atoms: C_1  and  O_2
REMARK    2  A    between atoms: O_2  and  C_3
REMARK    3  A    between atoms: C_3  and  C_5
REMARK    4  A    between atoms: C_5  and  C_6
REMARK    5  A    between atoms: C_5  and  N_7
REMARK    6  A    between atoms: N_7  and  C_17
REMARK    7  A    between atoms: C_8  and  C_10
REMARK    8  A    between atoms: C_10  and  C_11
REMARK    9  A    between atoms: C_18  and  C_19
REMARK   10  A    between atoms: C_23  and  C_24
REMARK                            x       y       z     vdW  Elec       q    Type
REMARK                         _______ _______ _______ _____ _____    ______ ____
ROOT
ATOM      1  N   UNL     1      -1.453  12.597  20.471  0.00  0.00    +0.000 N 
ATOM      2  C   UNL     1      -2.760  12.543  19.959  0.00  0.00    +0.000 C 
ATOM      3  O   UNL     1      -3.754  12.758  20.657  0.00  0.00    +0.000 OA
ENDROOT
BRANCH   1   4
ATOM      4  C   UNL     1      -0.293  12.386  19.641  0.00  0.00    +0.000 A 
ATOM      5  C   UNL     1       0.340  11.115  19.594  0.00  0.00    +0.000 A 
ATOM      6  C   UNL     1      -0.212   9.871  20.236  0.00  0.00    +0.000 C 
ATOM      7  C   UNL     1       1.589  10.984  18.959  0.00  0.00    +0.000 A 
ATOM      8  C   UNL     1       2.179  12.059  18.309  0.00  0.00    +0.000 A 
ATOM      9  C   UNL     1       1.524  13.282  18.274  0.00  0.00    +0.000 A 
ATOM     10  C   UNL     1       0.301  13.470  18.944  0.00  0.00    +0.000 A 
ATOM     11  C   UNL     1      -0.247  14.869  18.933  0.00  0.00    +0.000 C 
ENDBRANCH   1   4
BRANCH   1  12
ATOM     12  C   UNL     1      -1.181  12.952  21.904  0.00  0.00    +0.000 C 
ATOM     13  C   UNL     1      -1.316  14.446  22.237  0.00  0.00    +0.000 C 
BRANCH  12  14
ATOM     14  C   UNL     1      -1.936  12.216  23.019  0.00  0.00    +0.000 C 
ATOM     15  O   UNL     1      -1.728  11.031  23.268  0.00  0.00    +0.000 OA
BRANCH  14  17
ATOM     16  C   UNL     1      -3.960  12.366  24.240  0.00  0.00    +0.000 C 
ATOM     17  O   UNL     1      -2.787  13.003  23.720  0.00  0.00    +0.000 OA
ENDBRANCH  14  17
ENDBRANCH  12  14
ENDBRANCH   1  12
BRANCH   2  18
ATOM     18  C   UNL     1      -2.960  12.229  18.467  0.00  0.00    +0.000 C 
BRANCH  18  19
ATOM     19  C   UNL     1      -3.768  10.958  18.152  0.00  0.00    +0.000 C 
ATOM     20  C   UNL     1      -4.591  11.151  16.856  0.00  0.00    +0.000 C 
ATOM     21  C   UNL     1      -3.731  11.188  15.587  0.00  0.00    +0.000 C 
ATOM     22  C   UNL     1      -2.803   9.987  15.489  0.00  0.00    +0.000 C 
ATOM     23  C   UNL     1      -1.995   9.770  16.765  0.00  0.00    +0.000 C 
ATOM     24  C   UNL     1      -2.881   9.715  18.007  0.00  0.00    +0.000 C 
ENDBRANCH  18  19
ENDBRANCH   2  18
TORSDOF 6
ENDMDL
