MODEL 1
REMARK VINA RESULT:      -7.3      0.000      0.000
REMARK  Name = 
REMARK  3 active torsions:
REMARK  status: ('A' for Active; 'I' for Inactive)
REMARK    1  A    between atoms: C_2  and  N_3
REMARK    2  A    between atoms: C_2  and  N_13
REMARK    3  A    between atoms: N_3  and  C_4
REMARK                            x       y       z     vdW  Elec       q    Type
REMARK                         _______ _______ _______ _____ _____    ______ ____
ROOT
ATOM      1  N   UNL     1       5.153   3.185  16.926  0.00  0.00    +0.000 N 
ATOM      2  H   UNL     1       5.729   2.362  17.047  0.00  0.00    +0.000 HD
ENDROOT
BRANCH   1   3
ATOM      3  C   UNL     1       4.027   3.288  17.768  0.00  0.00    +0.000 A 
ATOM      4  C   UNL     1       2.808   3.828  17.303  0.00  0.00    +0.000 A 
ATOM      5  C   UNL     1       1.703   3.952  18.148  0.00  0.00    +0.000 A 
ATOM      6  C   UNL     1       1.845   3.526  19.449  0.00  0.00    +0.000 A 
ATOM      7  C   UNL     1       3.013   2.956  19.897  0.00  0.00    +0.000 A 
ATOM      8  C   UNL     1       4.114   2.796  19.077  0.00  0.00    +0.000 A 
ATOM      9  O   UNL     1       2.943   2.606  21.211  0.00  0.00    +0.000 OA
ATOM     10  C   UNL     1       1.633   3.108  21.554  0.00  0.00    +0.000 C 
ATOM     11  O   UNL     1       0.895   3.606  20.421  0.00  0.00    +0.000 OA
ENDBRANCH   1   3
BRANCH   1  13
ATOM     12  S   UNL     1       5.924   4.353  14.600  0.00  0.00    +0.000 S 
ATOM     13  C   UNL     1       5.809   4.224  16.276  0.00  0.00    +0.000 C 
BRANCH  13  14
ATOM     14  N   UNL     1       6.304   5.188  17.156  0.00  0.00    +0.000 N 
ATOM     15  C   UNL     1       6.054   6.626  17.048  0.00  0.00    +0.000 C 
ATOM     16  C   UNL     1       7.360   7.254  17.498  0.00  0.00    +0.000 C 
ATOM     17  C   UNL     1       7.812   6.321  18.609  0.00  0.00    +0.000 C 
ATOM     18  C   UNL     1       7.369   4.943  18.127  0.00  0.00    +0.000 C 
ENDBRANCH  13  14
ENDBRANCH   1  13
TORSDOF 3
ENDMDL
MODEL 2
REMARK VINA RESULT:      -7.2      0.439      1.056
REMARK  Name = 
REMARK  3 active torsions:
REMARK  status: ('A' for Active; 'I' for Inactive)
REMARK    1  A    between atoms: C_2  and  N_3
REMARK    2  A    between atoms: C_2  and  N_13
REMARK    3  A    between atoms: N_3  and  C_4
REMARK                            x       y       z     vdW  Elec       q    Type
REMARK                         _______ _______ _______ _____ _____    ______ ____
ROOT
ATOM      1  N   UNL     1       5.302   3.266  16.898  0.00  0.00    +0.000 N 
ATOM      2  H   UNL     1       5.890   2.477  17.131  0.00  0.00    +0.000 HD
ENDROOT
BRANCH   1   3
ATOM      3  C   UNL     1       4.174   3.469  17.719  0.00  0.00    +0.000 A 
ATOM      4  C   UNL     1       3.039   4.167  17.251  0.00  0.00    +0.000 A 
ATOM      5  C   UNL     1       1.934   4.388  18.078  0.00  0.00    +0.000 A 
ATOM      6  C   UNL     1       1.992   3.897  19.362  0.00  0.00    +0.000 A 
ATOM      7  C   UNL     1       3.073   3.176  19.810  0.00  0.00    +0.000 A 
ATOM      8  C   UNL     1       4.168   2.918  19.007  0.00  0.00    +0.000 A 
ATOM      9  O   UNL     1       2.927   2.784  21.106  0.00  0.00    +0.000 OA
ATOM     10  C   UNL     1       1.677   3.424  21.442  0.00  0.00    +0.000 C 
ATOM     11  O   UNL     1       1.032   4.050  20.316  0.00  0.00    +0.000 OA
ENDBRANCH   1   3
BRANCH   1  13
ATOM     12  S   UNL     1       5.668   4.396  14.458  0.00  0.00    +0.000 S 
ATOM     13  C   UNL     1       5.943   4.216  16.109  0.00  0.00    +0.000 C 
BRANCH  13  14
ATOM     14  N   UNL     1       6.789   5.048  16.843  0.00  0.00    +0.000 N 
ATOM     15  C   UNL     1       7.719   4.592  17.878  0.00  0.00    +0.000 C 
ATOM     16  C   UNL     1       7.679   5.702  18.913  0.00  0.00    +0.000 C 
ATOM     17  C   UNL     1       7.549   6.951  18.056  0.00  0.00    +0.000 C 
ATOM     18  C   UNL     1       6.665   6.504  16.896  0.00  0.00    +0.000 C 
ENDBRANCH  13  14
ENDBRANCH   1  13
TORSDOF 3
ENDMDL
MODEL 3
REMARK VINA RESULT:      -6.8      1.105      1.669
REMARK  Name = 
REMARK  3 active torsions:
REMARK  status: ('A' for Active; 'I' for Inactive)
REMARK    1  A    between atoms: C_2  and  N_3
REMARK    2  A    between atoms: C_2  and  N_13
REMARK    3  A    between atoms: N_3  and  C_4
REMARK                            x       y       z     vdW  Elec       q    Type
REMARK                         _______ _______ _______ _____ _____    ______ ____
ROOT
ATOM      1  N   UNL     1       4.592   4.977  16.510  0.00  0.00    +0.000 N 
ATOM      2  H   UNL     1       3.950   5.374  15.837  0.00  0.00    +0.000 HD
ENDROOT
BRANCH   1   3
ATOM      3  C   UNL     1       4.012   4.260  17.577  0.00  0.00    +0.000 A 
ATOM      4  C   UNL     1       3.831   2.861  17.510  0.00  0.00    +0.000 A 
ATOM      5  C   UNL     1       3.232   2.158  18.559  0.00  0.00    +0.000 A 
ATOM      6  C   UNL     1       2.830   2.879  19.660  0.00  0.00    +0.000 A 
ATOM      7  C   UNL     1       3.045   4.233  19.753  0.00  0.00    +0.000 A 
ATOM      8  C   UNL     1       3.659   4.951  18.743  0.00  0.00    +0.000 A 
ATOM      9  O   UNL     1       2.572   4.749  20.921  0.00  0.00    +0.000 OA
ATOM     10  C   UNL     1       1.954   3.581  21.501  0.00  0.00    +0.000 C 
ATOM     11  O   UNL     1       2.196   2.373  20.754  0.00  0.00    +0.000 OA
ENDBRANCH   1   3
BRANCH   1  13
ATOM     12  S   UNL     1       6.271   4.161  14.540  0.00  0.00    +0.000 S 
ATOM     13  C   UNL     1       5.890   4.853  16.028  0.00  0.00    +0.000 C 
BRANCH  13  14
ATOM     14  N   UNL     1       6.841   5.422  16.876  0.00  0.00    +0.000 N 
ATOM     15  C   UNL     1       7.625   4.684  17.868  0.00  0.00    +0.000 C 
ATOM     16  C   UNL     1       7.741   5.655  19.029  0.00  0.00    +0.000 C 
ATOM     17  C   UNL     1       7.882   6.996  18.328  0.00  0.00    +0.000 C 
ATOM     18  C   UNL     1       6.984   6.860  17.102  0.00  0.00    +0.000 C 
ENDBRANCH  13  14
ENDBRANCH   1  13
TORSDOF 3
ENDMDL
MODEL 4
REMARK VINA RESULT:      -6.7      1.409      2.011
REMARK  Name = 
REMARK  3 active torsions:
REMARK  status: ('A' for Active; 'I' for Inactive)
REMARK    1  A    between atoms: C_2  and  N_3
REMARK    2  A    between atoms: C_2  and  N_13
REMARK    3  A    between atoms: N_3  and  C_4
REMARK                            x       y       z     vdW  Elec       q    Type
REMARK                         _______ _______ _______ _____ _____    ______ ____
ROOT
ATOM      1  N   UNL     1       4.676   5.652  16.368  0.00  0.00    +0.000 N 
ATOM      2  H   UNL     1       4.246   6.022  15.531  0.00  0.00    +0.000 HD
ENDROOT
BRANCH   1   3
ATOM      3  C   UNL     1       3.810   5.381  17.448  0.00  0.00    +0.000 A 
ATOM      4  C   UNL     1       3.640   6.303  18.503  0.00  0.00    +0.000 A 
ATOM      5  C   UNL     1       2.801   6.019  19.584  0.00  0.00    +0.000 A 
ATOM      6  C   UNL     1       2.144   4.809  19.579  0.00  0.00    +0.000 A 
ATOM      7  C   UNL     1       2.269   3.926  18.533  0.00  0.00    +0.000 A 
ATOM      8  C   UNL     1       3.070   4.192  17.438  0.00  0.00    +0.000 A 
ATOM      9  O   UNL     1       1.538   2.794  18.727  0.00  0.00    +0.000 OA
ATOM     10  C   UNL     1       1.022   3.031  20.054  0.00  0.00    +0.000 C 
ATOM     11  O   UNL     1       1.323   4.345  20.561  0.00  0.00    +0.000 OA
ENDBRANCH   1   3
BRANCH   1  13
ATOM     12  S   UNL     1       6.258   4.002  14.905  0.00  0.00    +0.000 S 
ATOM     13  C   UNL     1       5.930   5.096  16.143  0.00  0.00    +0.000 C 
BRANCH  13  14
ATOM     14  N   UNL     1       6.906   5.590  17.010  0.00  0.00    +0.000 N 
ATOM     15  C   UNL     1       7.609   4.795  18.018  0.00  0.00    +0.000 C 
ATOM     16  C   UNL     1       7.780   5.756  19.180  0.00  0.00    +0.000 C 
ATOM     17  C   UNL     1       8.040   7.081  18.481  0.00  0.00    +0.000 C 
ATOM     18  C   UNL     1       7.159   7.012  17.237  0.00  0.00    +0.000 C 
ENDBRANCH  13  14
ENDBRANCH   1  13
TORSDOF 3
ENDMDL
MODEL 5
REMARK VINA RESULT:      -6.7      3.553      6.145
REMARK  Name = 
REMARK  3 active torsions:
REMARK  status: ('A' for Active; 'I' for Inactive)
REMARK    1  A    between atoms: C_2  and  N_3
REMARK    2  A    between atoms: C_2  and  N_13
REMARK    3  A    between atoms: N_3  and  C_4
REMARK                            x       y       z     vdW  Elec       q    Type
REMARK                         _______ _______ _______ _____ _____    ______ ____
ROOT
ATOM      1  N   UNL     1       4.455   5.118  19.246  0.00  0.00    +0.000 N 
ATOM      2  H   UNL     1       4.702   4.435  19.949  0.00  0.00    +0.000 HD
ENDROOT
BRANCH   1   3
ATOM      3  C   UNL     1       5.318   5.211  18.135  0.00  0.00    +0.000 A 
ATOM      4  C   UNL     1       6.434   6.076  18.141  0.00  0.00    +0.000 A 
ATOM      5  C   UNL     1       7.272   6.184  17.028  0.00  0.00    +0.000 A 
ATOM      6  C   UNL     1       6.971   5.413  15.928  0.00  0.00    +0.000 A 
ATOM      7  C   UNL     1       5.914   4.534  15.931  0.00  0.00    +0.000 A 
ATOM      8  C   UNL     1       5.084   4.387  17.027  0.00  0.00    +0.000 A 
ATOM      9  O   UNL     1       5.793   3.873  14.747  0.00  0.00    +0.000 OA
ATOM     10  C   UNL     1       6.834   4.508  13.976  0.00  0.00    +0.000 C 
ATOM     11  O   UNL     1       7.646   5.416  14.745  0.00  0.00    +0.000 OA
ENDBRANCH   1   3
BRANCH   1  13
ATOM     12  S   UNL     1       2.598   7.084  19.008  0.00  0.00    +0.000 S 
ATOM     13  C   UNL     1       3.122   5.511  19.304  0.00  0.00    +0.000 C 
BRANCH  13  14
ATOM     14  N   UNL     1       2.255   4.450  19.566  0.00  0.00    +0.000 N 
ATOM     15  C   UNL     1       1.279   4.418  20.657  0.00  0.00    +0.000 C 
ATOM     16  C   UNL     1       1.288   2.969  21.108  0.00  0.00    +0.000 C 
ATOM     17  C   UNL     1       1.465   2.215  19.799  0.00  0.00    +0.000 C 
ATOM     18  C   UNL     1       2.391   3.115  18.986  0.00  0.00    +0.000 C 
ENDBRANCH  13  14
ENDBRANCH   1  13
TORSDOF 3
ENDMDL
MODEL 6
REMARK VINA RESULT:      -6.5      1.686      2.223
REMARK  Name = 
REMARK  3 active torsions:
REMARK  status: ('A' for Active; 'I' for Inactive)
REMARK    1  A    between atoms: C_2  and  N_3
REMARK    2  A    between atoms: C_2  and  N_13
REMARK    3  A    between atoms: N_3  and  C_4
REMARK                            x       y       z     vdW  Elec       q    Type
REMARK                         _______ _______ _______ _____ _____    ______ ____
ROOT
ATOM      1  N   UNL     1       6.033   3.721  18.626  0.00  0.00    +0.000 N 
ATOM      2  H   UNL     1       6.645   2.958  18.883  0.00  0.00    +0.000 HD
ENDROOT
BRANCH   1   3
ATOM      3  C   UNL     1       4.695   3.622  19.059  0.00  0.00    +0.000 A 
ATOM      4  C   UNL     1       3.630   4.123  18.279  0.00  0.00    +0.000 A 
ATOM      5  C   UNL     1       2.308   4.047  18.725  0.00  0.00    +0.000 A 
ATOM      6  C   UNL     1       2.082   3.461  19.949  0.00  0.00    +0.000 A 
ATOM      7  C   UNL     1       3.108   2.929  20.694  0.00  0.00    +0.000 A 
ATOM      8  C   UNL     1       4.422   2.967  20.267  0.00  0.00    +0.000 A 
ATOM      9  O   UNL     1       2.669   2.401  21.870  0.00  0.00    +0.000 OA
ATOM     10  C   UNL     1       1.269   2.748  21.815  0.00  0.00    +0.000 C 
ATOM     11  O   UNL     1       0.872   3.335  20.561  0.00  0.00    +0.000 OA
ENDBRANCH   1   3
BRANCH   1  13
ATOM     12  S   UNL     1       7.658   5.766  19.363  0.00  0.00    +0.000 S 
ATOM     13  C   UNL     1       6.716   4.882  18.282  0.00  0.00    +0.000 C 
BRANCH  13  14
ATOM     14  N   UNL     1       6.595   5.203  16.930  0.00  0.00    +0.000 N 
ATOM     15  C   UNL     1       5.889   6.375  16.408  0.00  0.00    +0.000 C 
ATOM     16  C   UNL     1       5.249   5.871  15.128  0.00  0.00    +0.000 C 
ATOM     17  C   UNL     1       6.301   4.918  14.584  0.00  0.00    +0.000 C 
ATOM     18  C   UNL     1       6.894   4.279  15.836  0.00  0.00    +0.000 C 
ENDBRANCH  13  14
ENDBRANCH   1  13
TORSDOF 3
ENDMDL
MODEL 7
REMARK VINA RESULT:      -6.5      1.039      1.293
REMARK  Name = 
REMARK  3 active torsions:
REMARK  status: ('A' for Active; 'I' for Inactive)
REMARK    1  A    between atoms: C_2  and  N_3
REMARK    2  A    between atoms: C_2  and  N_13
REMARK    3  A    between atoms: N_3  and  C_4
REMARK                            x       y       z     vdW  Elec       q    Type
REMARK                         _______ _______ _______ _____ _____    ______ ____
ROOT
ATOM      1  N   UNL     1       4.313   4.626  16.550  0.00  0.00    +0.000 N 
ATOM      2  H   UNL     1       3.718   4.707  15.736  0.00  0.00    +0.000 HD
ENDROOT
BRANCH   1   3
ATOM      3  C   UNL     1       3.766   3.947  17.658  0.00  0.00    +0.000 A 
ATOM      4  C   UNL     1       3.600   2.544  17.652  0.00  0.00    +0.000 A 
ATOM      5  C   UNL     1       3.033   1.878  18.741  0.00  0.00    +0.000 A 
ATOM      6  C   UNL     1       2.647   2.638  19.821  0.00  0.00    +0.000 A 
ATOM      7  C   UNL     1       2.847   3.998  19.854  0.00  0.00    +0.000 A 
ATOM      8  C   UNL     1       3.430   4.680  18.803  0.00  0.00    +0.000 A 
ATOM      9  O   UNL     1       2.393   4.556  21.010  0.00  0.00    +0.000 OA
ATOM     10  C   UNL     1       1.803   3.405  21.651  0.00  0.00    +0.000 C 
ATOM     11  O   UNL     1       2.043   2.171  20.949  0.00  0.00    +0.000 OA
ENDBRANCH   1   3
BRANCH   1  13
ATOM     12  S   UNL     1       6.422   4.204  14.895  0.00  0.00    +0.000 S 
ATOM     13  C   UNL     1       5.661   4.814  16.268  0.00  0.00    +0.000 C 
BRANCH  13  14
ATOM     14  N   UNL     1       6.305   5.619  17.209  0.00  0.00    +0.000 N 
ATOM     15  C   UNL     1       6.276   7.083  17.216  0.00  0.00    +0.000 C 
ATOM     16  C   UNL     1       7.666   7.469  17.687  0.00  0.00    +0.000 C 
ATOM     17  C   UNL     1       7.979   6.393  18.715  0.00  0.00    +0.000 C 
ATOM     18  C   UNL     1       7.328   5.140  18.138  0.00  0.00    +0.000 C 
ENDBRANCH  13  14
ENDBRANCH   1  13
TORSDOF 3
ENDMDL
MODEL 8
REMARK VINA RESULT:      -6.4      3.708      5.578
REMARK  Name = 
REMARK  3 active torsions:
REMARK  status: ('A' for Active; 'I' for Inactive)
REMARK    1  A    between atoms: C_2  and  N_3
REMARK    2  A    between atoms: C_2  and  N_13
REMARK    3  A    between atoms: N_3  and  C_4
REMARK                            x       y       z     vdW  Elec       q    Type
REMARK                         _______ _______ _______ _____ _____    ______ ____
ROOT
ATOM      1  N   UNL     1       4.223   3.642  19.093  0.00  0.00    +0.000 N 
ATOM      2  H   UNL     1       4.547   2.936  19.740  0.00  0.00    +0.000 HD
ENDROOT
BRANCH   1   3
ATOM      3  C   UNL     1       5.154   4.079  18.128  0.00  0.00    +0.000 A 
ATOM      4  C   UNL     1       6.281   4.849  18.489  0.00  0.00    +0.000 A 
ATOM      5  C   UNL     1       7.187   5.301  17.526  0.00  0.00    +0.000 A 
ATOM      6  C   UNL     1       6.942   4.965  16.214  0.00  0.00    +0.000 A 
ATOM      7  C   UNL     1       5.873   4.176  15.860  0.00  0.00    +0.000 A 
ATOM      8  C   UNL     1       4.975   3.692  16.794  0.00  0.00    +0.000 A 
ATOM      9  O   UNL     1       5.814   3.965  14.516  0.00  0.00    +0.000 OA
ATOM     10  C   UNL     1       6.910   4.788  14.066  0.00  0.00    +0.000 C 
ATOM     11  O   UNL     1       7.688   5.348  15.141  0.00  0.00    +0.000 OA
ENDBRANCH   1   3
BRANCH   1  13
ATOM     12  S   UNL     1       1.832   2.379  18.862  0.00  0.00    +0.000 S 
ATOM     13  C   UNL     1       2.837   3.722  19.013  0.00  0.00    +0.000 C 
BRANCH  13  14
ATOM     14  N   UNL     1       2.361   5.028  19.138  0.00  0.00    +0.000 N 
ATOM     15  C   UNL     1       2.263   5.991  18.039  0.00  0.00    +0.000 C 
ATOM     16  C   UNL     1       2.609   7.317  18.690  0.00  0.00    +0.000 C 
ATOM     17  C   UNL     1       1.977   7.187  20.067  0.00  0.00    +0.000 C 
ATOM     18  C   UNL     1       2.169   5.714  20.415  0.00  0.00    +0.000 C 
ENDBRANCH  13  14
ENDBRANCH   1  13
TORSDOF 3
ENDMDL
MODEL 9
REMARK VINA RESULT:      -6.4      1.232      1.644
REMARK  Name = 
REMARK  3 active torsions:
REMARK  status: ('A' for Active; 'I' for Inactive)
REMARK    1  A    between atoms: C_2  and  N_3
REMARK    2  A    between atoms: C_2  and  N_13
REMARK    3  A    between atoms: N_3  and  C_4
REMARK                            x       y       z     vdW  Elec       q    Type
REMARK                         _______ _______ _______ _____ _____    ______ ____
ROOT
ATOM      1  N   UNL     1       5.264   3.410  16.907  0.00  0.00    +0.000 N 
ATOM      2  H   UNL     1       5.865   2.624  17.115  0.00  0.00    +0.000 HD
ENDROOT
BRANCH   1   3
ATOM      3  C   UNL     1       4.114   3.548  17.712  0.00  0.00    +0.000 A 
ATOM      4  C   UNL     1       3.047   2.626  17.633  0.00  0.00    +0.000 A 
ATOM      5  C   UNL     1       1.898   2.781  18.414  0.00  0.00    +0.000 A 
ATOM      6  C   UNL     1       1.848   3.862  19.264  0.00  0.00    +0.000 A 
ATOM      7  C   UNL     1       2.902   4.738  19.381  0.00  0.00    +0.000 A 
ATOM      8  C   UNL     1       4.061   4.594  18.641  0.00  0.00    +0.000 A 
ATOM      9  O   UNL     1       2.646   5.733  20.273  0.00  0.00    +0.000 OA
ATOM     10  C   UNL     1       1.280   5.432  20.628  0.00  0.00    +0.000 C 
ATOM     11  O   UNL     1       0.799   4.196  20.066  0.00  0.00    +0.000 OA
ENDBRANCH   1   3
BRANCH   1  13
ATOM     12  S   UNL     1       5.546   4.759  14.569  0.00  0.00    +0.000 S 
ATOM     13  C   UNL     1       5.898   4.410  16.178  0.00  0.00    +0.000 C 
BRANCH  13  14
ATOM     14  N   UNL     1       6.811   5.140  16.940  0.00  0.00    +0.000 N 
ATOM     15  C   UNL     1       7.635   4.585  18.016  0.00  0.00    +0.000 C 
ATOM     16  C   UNL     1       7.691   5.703  19.041  0.00  0.00    +0.000 C 
ATOM     17  C   UNL     1       7.754   6.948  18.170  0.00  0.00    +0.000 C 
ATOM     18  C   UNL     1       6.869   6.601  16.977  0.00  0.00    +0.000 C 
ENDBRANCH  13  14
ENDBRANCH   1  13
TORSDOF 3
ENDMDL
