MODEL 1
REMARK VINA RESULT:      -7.7      0.000      0.000
REMARK  Name = 
REMARK  1 active torsions:
REMARK  status: ('A' for Active; 'I' for Inactive)
REMARK    1  A    between atoms: N_10  and  C_11
REMARK                            x       y       z     vdW  Elec       q    Type
REMARK                         _______ _______ _______ _____ _____    ______ ____
ROOT
ATOM      1  O   UNL     1       2.450   2.821  16.075  0.00  0.00    +0.000 OA
ATOM      2  C   UNL     1       2.928   3.433  17.017  0.00  0.00    +0.000 C 
ATOM      3  N   UNL     1       2.197   3.717  18.151  0.00  0.00    +0.000 N 
ATOM      4  C   UNL     1       2.555   4.839  18.993  0.00  0.00    +0.000 C 
ATOM      5  C   UNL     1       2.254   6.153  18.247  0.00  0.00    +0.000 C 
ATOM      6  C   UNL     1       2.570   7.375  19.088  0.00  0.00    +0.000 C 
ATOM      7  N   UNL     1       1.887   7.327  20.379  0.00  0.00    +0.000 N 
ATOM      8  C   UNL     1       1.266   8.406  21.010  0.00  0.00    +0.000 C 
ATOM      9  O   UNL     1       0.753   8.320  22.118  0.00  0.00    +0.000 OA
ATOM     10  N   UNL     1       1.237   9.563  20.272  0.00  0.00    +0.000 N 
ATOM     11  C   UNL     1       2.081   6.094  21.147  0.00  0.00    +0.000 C 
ATOM     12  C   UNL     1       1.782   4.835  20.320  0.00  0.00    +0.000 C 
ATOM     13  N   UNL     1       3.970   4.653  19.289  0.00  0.00    +0.000 N 
ATOM     14  C   UNL     1       4.813   4.523  18.175  0.00  0.00    +0.000 A 
ATOM     15  C   UNL     1       6.156   4.925  18.217  0.00  0.00    +0.000 A 
ATOM     16 CL   UNL     1       6.814   5.630  19.653  0.00  0.00    +0.000 Cl
ATOM     17  C   UNL     1       6.968   4.815  17.089  0.00  0.00    +0.000 A 
ATOM     18  C   UNL     1       6.450   4.280  15.908  0.00  0.00    +0.000 A 
ATOM     19  C   UNL     1       5.129   3.828  15.863  0.00  0.00    +0.000 A 
ATOM     20  C   UNL     1       4.329   3.930  17.002  0.00  0.00    +0.000 A 
ATOM     21  H   UNL     1       1.222   3.454  18.077  0.00  0.00    +0.000 HD
ATOM     22  H   UNL     1       2.055   9.713  19.708  0.00  0.00    +0.000 HD
ATOM     23  H   UNL     1       4.370   5.257  20.002  0.00  0.00    +0.000 HD
ENDROOT
BRANCH  10  24
ATOM     24  C   UNL     1       0.586  10.796  20.724  0.00  0.00    +0.000 C 
ATOM     25  C   UNL     1       1.304  12.012  20.108  0.00  0.00    +0.000 C 
ATOM     26  C   UNL     1       1.131  12.073  18.585  0.00  0.00    +0.000 C 
ATOM     27  C   UNL     1      -0.337  12.008  18.164  0.00  0.00    +0.000 C 
ATOM     28  C   UNL     1      -1.078  10.846  18.819  0.00  0.00    +0.000 C 
ATOM     29  C   UNL     1      -0.899  10.870  20.337  0.00  0.00    +0.000 C 
ENDBRANCH  10  24
TORSDOF 1
ENDMDL
MODEL 2
REMARK VINA RESULT:      -6.9      3.677      8.092
REMARK  Name = 
REMARK  1 active torsions:
REMARK  status: ('A' for Active; 'I' for Inactive)
REMARK    1  A    between atoms: N_10  and  C_11
REMARK                            x       y       z     vdW  Elec       q    Type
REMARK                         _______ _______ _______ _____ _____    ______ ____
ROOT
ATOM      1  O   UNL     1       2.128   7.117  20.001  0.00  0.00    +0.000 OA
ATOM      2  C   UNL     1       2.918   6.233  19.707  0.00  0.00    +0.000 C 
ATOM      3  N   UNL     1       4.147   6.509  19.146  0.00  0.00    +0.000 N 
ATOM      4  C   UNL     1       4.827   5.514  18.344  0.00  0.00    +0.000 C 
ATOM      5  C   UNL     1       4.062   5.315  17.021  0.00  0.00    +0.000 C 
ATOM      6  C   UNL     1       4.742   4.310  16.111  0.00  0.00    +0.000 C 
ATOM      7  N   UNL     1       6.138   4.666  15.870  0.00  0.00    +0.000 N 
ATOM      8  C   UNL     1       6.798   4.578  14.643  0.00  0.00    +0.000 C 
ATOM      9  O   UNL     1       7.986   4.842  14.509  0.00  0.00    +0.000 OA
ATOM     10  N   UNL     1       6.000   4.215  13.586  0.00  0.00    +0.000 N 
ATOM     11  C   UNL     1       6.939   4.916  17.071  0.00  0.00    +0.000 C 
ATOM     12  C   UNL     1       6.273   5.920  18.022  0.00  0.00    +0.000 C 
ATOM     13  N   UNL     1       4.864   4.318  19.177  0.00  0.00    +0.000 N 
ATOM     14  C   UNL     1       3.623   3.871  19.655  0.00  0.00    +0.000 A 
ATOM     15  C   UNL     1       3.384   2.516  19.926  0.00  0.00    +0.000 A 
ATOM     16 CL   UNL     1       4.618   1.337  19.649  0.00  0.00    +0.000 Cl
ATOM     17  C   UNL     1       2.134   2.088  20.373  0.00  0.00    +0.000 A 
ATOM     18  C   UNL     1       1.111   3.018  20.572  0.00  0.00    +0.000 A 
ATOM     19  C   UNL     1       1.347   4.378  20.355  0.00  0.00    +0.000 A 
ATOM     20  C   UNL     1       2.607   4.796  19.922  0.00  0.00    +0.000 A 
ATOM     21  H   UNL     1       4.276   7.488  18.921  0.00  0.00    +0.000 HD
ATOM     22  H   UNL     1       5.283   3.551  13.821  0.00  0.00    +0.000 HD
ATOM     23  H   UNL     1       5.446   3.552  18.848  0.00  0.00    +0.000 HD
ENDROOT
BRANCH  10  24
ATOM     24  C   UNL     1       6.479   4.119  12.205  0.00  0.00    +0.000 C 
ATOM     25  C   UNL     1       7.106   2.731  11.973  0.00  0.00    +0.000 C 
ATOM     26  C   UNL     1       6.064   1.608  12.052  0.00  0.00    +0.000 C 
ATOM     27  C   UNL     1       4.873   1.854  11.126  0.00  0.00    +0.000 C 
ATOM     28  C   UNL     1       4.284   3.251  11.298  0.00  0.00    +0.000 C 
ATOM     29  C   UNL     1       5.366   4.321  11.165  0.00  0.00    +0.000 C 
ENDBRANCH  10  24
TORSDOF 1
ENDMDL
MODEL 3
REMARK VINA RESULT:      -6.7      5.882      8.149
REMARK  Name = 
REMARK  1 active torsions:
REMARK  status: ('A' for Active; 'I' for Inactive)
REMARK    1  A    between atoms: N_10  and  C_11
REMARK                            x       y       z     vdW  Elec       q    Type
REMARK                         _______ _______ _______ _____ _____    ______ ____
ROOT
ATOM      1  O   UNL     1       1.235   9.862  18.174  0.00  0.00    +0.000 OA
ATOM      2  C   UNL     1       1.069  10.597  19.134  0.00  0.00    +0.000 C 
ATOM      3  N   UNL     1       0.359  10.197  20.247  0.00  0.00    +0.000 N 
ATOM      4  C   UNL     1      -0.270  11.176  21.107  0.00  0.00    +0.000 C 
ATOM      5  C   UNL     1      -1.451  11.827  20.361  0.00  0.00    +0.000 C 
ATOM      6  C   UNL     1      -2.184  12.840  21.220  0.00  0.00    +0.000 C 
ATOM      7  N   UNL     1      -2.612  12.256  22.488  0.00  0.00    +0.000 N 
ATOM      8  C   UNL     1      -3.844  12.472  23.107  0.00  0.00    +0.000 C 
ATOM      9  O   UNL     1      -4.131  11.996  24.198  0.00  0.00    +0.000 OA
ATOM     10  N   UNL     1      -4.729  13.226  22.376  0.00  0.00    +0.000 N 
ATOM     11  C   UNL     1      -1.563  11.577  23.253  0.00  0.00    +0.000 C 
ATOM     12  C   UNL     1      -0.792  10.551  22.409  0.00  0.00    +0.000 C 
ATOM     13  N   UNL     1       0.790  12.118  21.446  0.00  0.00    +0.000 N 
ATOM     14  C   UNL     1       1.455  12.703  20.358  0.00  0.00    +0.000 A 
ATOM     15  C   UNL     1       2.026  13.981  20.445  0.00  0.00    +0.000 A 
ATOM     16 CL   UNL     1       1.900  14.898  21.905  0.00  0.00    +0.000 Cl
ATOM     17  C   UNL     1       2.657  14.556  19.341  0.00  0.00    +0.000 A 
ATOM     18  C   UNL     1       2.742  13.848  18.141  0.00  0.00    +0.000 A 
ATOM     19  C   UNL     1       2.224  12.553  18.052  0.00  0.00    +0.000 A 
ATOM     20  C   UNL     1       1.607  11.982  19.167  0.00  0.00    +0.000 A 
ATOM     21  H   UNL     1      -0.077   9.289  20.140  0.00  0.00    +0.000 HD
ATOM     22  H   UNL     1      -4.300  13.959  21.839  0.00  0.00    +0.000 HD
ATOM     23  H   UNL     1       0.582  12.795  22.175  0.00  0.00    +0.000 HD
ENDROOT
BRANCH  10  24
ATOM     24  C   UNL     1      -6.095  13.525  22.815  0.00  0.00    +0.000 C 
ATOM     25  C   UNL     1      -6.591  14.805  22.117  0.00  0.00    +0.000 C 
ATOM     26  C   UNL     1      -6.754  14.609  20.604  0.00  0.00    +0.000 C 
ATOM     27  C   UNL     1      -7.629  13.403  20.265  0.00  0.00    +0.000 C 
ATOM     28  C   UNL     1      -7.189  12.142  21.003  0.00  0.00    +0.000 C 
ATOM     29  C   UNL     1      -7.088  12.395  22.506  0.00  0.00    +0.000 C 
ENDBRANCH  10  24
TORSDOF 1
ENDMDL
MODEL 4
REMARK VINA RESULT:      -6.6      3.071      8.404
REMARK  Name = 
REMARK  1 active torsions:
REMARK  status: ('A' for Active; 'I' for Inactive)
REMARK    1  A    between atoms: N_10  and  C_11
REMARK                            x       y       z     vdW  Elec       q    Type
REMARK                         _______ _______ _______ _____ _____    ______ ____
ROOT
ATOM      1  O   UNL     1      -3.538  11.908  19.231  0.00  0.00    +0.000 OA
ATOM      2  C   UNL     1      -2.319  11.880  19.295  0.00  0.00    +0.000 C 
ATOM      3  N   UNL     1      -1.554  11.193  18.377  0.00  0.00    +0.000 N 
ATOM      4  C   UNL     1      -0.228  10.729  18.728  0.00  0.00    +0.000 C 
ATOM      5  C   UNL     1      -0.342   9.591  19.760  0.00  0.00    +0.000 C 
ATOM      6  C   UNL     1       1.013   9.028  20.146  0.00  0.00    +0.000 C 
ATOM      7  N   UNL     1       1.771   8.607  18.971  0.00  0.00    +0.000 N 
ATOM      8  C   UNL     1       2.536   7.444  18.872  0.00  0.00    +0.000 C 
ATOM      9  O   UNL     1       3.194   7.166  17.878  0.00  0.00    +0.000 OA
ATOM     10  N   UNL     1       2.460   6.612  19.962  0.00  0.00    +0.000 N 
ATOM     11  C   UNL     1       1.899   9.612  17.912  0.00  0.00    +0.000 C 
ATOM     12  C   UNL     1       0.546  10.213  17.506  0.00  0.00    +0.000 C 
ATOM     13  N   UNL     1       0.462  11.907  19.239  0.00  0.00    +0.000 N 
ATOM     14  C   UNL     1      -0.176  12.574  20.297  0.00  0.00    +0.000 A 
ATOM     15  C   UNL     1       0.551  13.291  21.259  0.00  0.00    +0.000 A 
ATOM     16 CL   UNL     1       2.278  13.352  21.185  0.00  0.00    +0.000 Cl
ATOM     17  C   UNL     1      -0.099  13.921  22.320  0.00  0.00    +0.000 A 
ATOM     18  C   UNL     1      -1.491  13.858  22.419  0.00  0.00    +0.000 A 
ATOM     19  C   UNL     1      -2.234  13.190  21.442  0.00  0.00    +0.000 A 
ATOM     20  C   UNL     1      -1.573  12.575  20.377  0.00  0.00    +0.000 A 
ATOM     21  H   UNL     1      -2.103  10.651  17.722  0.00  0.00    +0.000 HD
ATOM     22  H   UNL     1       2.384   7.092  20.842  0.00  0.00    +0.000 HD
ATOM     23  H   UNL     1       1.463  11.820  19.391  0.00  0.00    +0.000 HD
ENDROOT
BRANCH  10  24
ATOM     24  C   UNL     1       3.139   5.317  20.042  0.00  0.00    +0.000 C 
ATOM     25  C   UNL     1       2.453   4.441  21.107  0.00  0.00    +0.000 C 
ATOM     26  C   UNL     1       1.025   4.053  20.702  0.00  0.00    +0.000 C 
ATOM     27  C   UNL     1       0.970   3.409  19.317  0.00  0.00    +0.000 C 
ATOM     28  C   UNL     1       1.703   4.234  18.264  0.00  0.00    +0.000 C 
ATOM     29  C   UNL     1       3.130   4.548  18.712  0.00  0.00    +0.000 C 
ENDBRANCH  10  24
TORSDOF 1
ENDMDL
MODEL 5
REMARK VINA RESULT:      -6.6      7.208     12.237
REMARK  Name = 
REMARK  1 active torsions:
REMARK  status: ('A' for Active; 'I' for Inactive)
REMARK    1  A    between atoms: N_10  and  C_11
REMARK                            x       y       z     vdW  Elec       q    Type
REMARK                         _______ _______ _______ _____ _____    ______ ____
ROOT
ATOM      1  O   UNL     1      -7.893  12.337  24.114  0.00  0.00    +0.000 OA
ATOM      2  C   UNL     1      -7.627  12.712  22.983  0.00  0.00    +0.000 C 
ATOM      3  N   UNL     1      -7.270  11.830  21.985  0.00  0.00    +0.000 N 
ATOM      4  C   UNL     1      -6.476  12.277  20.860  0.00  0.00    +0.000 C 
ATOM      5  C   UNL     1      -5.048  12.599  21.340  0.00  0.00    +0.000 C 
ATOM      6  C   UNL     1      -4.146  13.039  20.202  0.00  0.00    +0.000 C 
ATOM      7  N   UNL     1      -4.136  12.058  19.119  0.00  0.00    +0.000 N 
ATOM      8  C   UNL     1      -3.010  11.652  18.402  0.00  0.00    +0.000 C 
ATOM      9  O   UNL     1      -3.067  10.863  17.467  0.00  0.00    +0.000 OA
ATOM     10  N   UNL     1      -1.822  12.173  18.854  0.00  0.00    +0.000 N 
ATOM     11  C   UNL     1      -5.455  11.657  18.622  0.00  0.00    +0.000 C 
ATOM     12  C   UNL     1      -6.398  11.218  19.751  0.00  0.00    +0.000 C 
ATOM     13  N   UNL     1      -7.186  13.437  20.334  0.00  0.00    +0.000 N 
ATOM     14  C   UNL     1      -7.442  14.463  21.257  0.00  0.00    +0.000 A 
ATOM     15  C   UNL     1      -7.544  15.803  20.856  0.00  0.00    +0.000 A 
ATOM     16 CL   UNL     1      -7.327  16.240  19.197  0.00  0.00    +0.000 Cl
ATOM     17  C   UNL     1      -7.770  16.811  21.793  0.00  0.00    +0.000 A 
ATOM     18  C   UNL     1      -7.916  16.486  23.143  0.00  0.00    +0.000 A 
ATOM     19  C   UNL     1      -7.867  15.152  23.553  0.00  0.00    +0.000 A 
ATOM     20  C   UNL     1      -7.655  14.149  22.604  0.00  0.00    +0.000 A 
ATOM     21  H   UNL     1      -7.162  10.877  22.311  0.00  0.00    +0.000 HD
ATOM     22  H   UNL     1      -1.890  13.117  19.194  0.00  0.00    +0.000 HD
ATOM     23  H   UNL     1      -6.867  13.799  19.439  0.00  0.00    +0.000 HD
ENDROOT
BRANCH  10  24
ATOM     24  C   UNL     1      -0.518  11.834  18.280  0.00  0.00    +0.000 C 
ATOM     25  C   UNL     1       0.460  13.004  18.498  0.00  0.00    +0.000 C 
ATOM     26  C   UNL     1       0.785  13.214  19.983  0.00  0.00    +0.000 C 
ATOM     27  C   UNL     1       1.274  11.933  20.658  0.00  0.00    +0.000 C 
ATOM     28  C   UNL     1       0.348  10.749  20.394  0.00  0.00    +0.000 C 
ATOM     29  C   UNL     1       0.102  10.570  18.897  0.00  0.00    +0.000 C 
ENDBRANCH  10  24
TORSDOF 1
ENDMDL
MODEL 6
REMARK VINA RESULT:      -6.6      0.686      1.206
REMARK  Name = 
REMARK  1 active torsions:
REMARK  status: ('A' for Active; 'I' for Inactive)
REMARK    1  A    between atoms: N_10  and  C_11
REMARK                            x       y       z     vdW  Elec       q    Type
REMARK                         _______ _______ _______ _____ _____    ______ ____
ROOT
ATOM      1  O   UNL     1       2.471   2.543  16.650  0.00  0.00    +0.000 OA
ATOM      2  C   UNL     1       2.943   3.346  17.439  0.00  0.00    +0.000 C 
ATOM      3  N   UNL     1       2.235   3.799  18.532  0.00  0.00    +0.000 N 
ATOM      4  C   UNL     1       2.553   5.076  19.134  0.00  0.00    +0.000 C 
ATOM      5  C   UNL     1       2.148   6.209  18.171  0.00  0.00    +0.000 C 
ATOM      6  C   UNL     1       2.418   7.583  18.755  0.00  0.00    +0.000 C 
ATOM      7  N   UNL     1       1.784   7.742  20.062  0.00  0.00    +0.000 N 
ATOM      8  C   UNL     1       1.121   8.886  20.509  0.00  0.00    +0.000 C 
ATOM      9  O   UNL     1       0.651   8.983  21.635  0.00  0.00    +0.000 OA
ATOM     10  N   UNL     1       0.997   9.881  19.571  0.00  0.00    +0.000 N 
ATOM     11  C   UNL     1       2.078   6.687  21.036  0.00  0.00    +0.000 C 
ATOM     12  C   UNL     1       1.827   5.281  20.472  0.00  0.00    +0.000 C 
ATOM     13  N   UNL     1       3.986   5.024  19.396  0.00  0.00    +0.000 N 
ATOM     14  C   UNL     1       4.797   4.732  18.289  0.00  0.00    +0.000 A 
ATOM     15  C   UNL     1       6.113   5.206  18.196  0.00  0.00    +0.000 A 
ATOM     16 CL   UNL     1       6.776   6.201  19.445  0.00  0.00    +0.000 Cl
ATOM     17  C   UNL     1       6.893   4.928  17.072  0.00  0.00    +0.000 A 
ATOM     18  C   UNL     1       6.368   4.154  16.035  0.00  0.00    +0.000 A 
ATOM     19  C   UNL     1       5.076   3.632  16.135  0.00  0.00    +0.000 A 
ATOM     20  C   UNL     1       4.310   3.904  17.270  0.00  0.00    +0.000 A 
ATOM     21  H   UNL     1       1.276   3.476  18.551  0.00  0.00    +0.000 HD
ATOM     22  H   UNL     1       1.785   9.965  18.952  0.00  0.00    +0.000 HD
ATOM     23  H   UNL     1       4.373   5.772  19.966  0.00  0.00    +0.000 HD
ENDROOT
BRANCH  10  24
ATOM     24  C   UNL     1       0.288  11.140  19.813  0.00  0.00    +0.000 C 
ATOM     25  C   UNL     1       0.996  11.920  20.938  0.00  0.00    +0.000 C 
ATOM     26  C   UNL     1       2.394  12.391  20.519  0.00  0.00    +0.000 C 
ATOM     27  C   UNL     1       2.375  13.178  19.209  0.00  0.00    +0.000 C 
ATOM     28  C   UNL     1       1.618  12.445  18.104  0.00  0.00    +0.000 C 
ATOM     29  C   UNL     1       0.221  12.043  18.573  0.00  0.00    +0.000 C 
ENDBRANCH  10  24
TORSDOF 1
ENDMDL
MODEL 7
REMARK VINA RESULT:      -6.5      6.198      8.907
REMARK  Name = 
REMARK  1 active torsions:
REMARK  status: ('A' for Active; 'I' for Inactive)
REMARK    1  A    between atoms: N_10  and  C_11
REMARK                            x       y       z     vdW  Elec       q    Type
REMARK                         _______ _______ _______ _____ _____    ______ ____
ROOT
ATOM      1  O   UNL     1       0.106   9.579  18.101  0.00  0.00    +0.000 OA
ATOM      2  C   UNL     1      -0.033  10.571  18.800  0.00  0.00    +0.000 C 
ATOM      3  N   UNL     1      -0.002  11.845  18.275  0.00  0.00    +0.000 N 
ATOM      4  C   UNL     1       0.356  12.974  19.108  0.00  0.00    +0.000 C 
ATOM      5  C   UNL     1       1.851  12.888  19.470  0.00  0.00    +0.000 C 
ATOM      6  C   UNL     1       2.306  14.063  20.314  0.00  0.00    +0.000 C 
ATOM      7  N   UNL     1       1.986  15.336  19.674  0.00  0.00    +0.000 N 
ATOM      8  C   UNL     1       2.820  16.454  19.626  0.00  0.00    +0.000 C 
ATOM      9  O   UNL     1       2.479  17.515  19.119  0.00  0.00    +0.000 OA
ATOM     10  N   UNL     1       4.073  16.258  20.154  0.00  0.00    +0.000 N 
ATOM     11  C   UNL     1       0.590  15.496  19.256  0.00  0.00    +0.000 C 
ATOM     12  C   UNL     1       0.093  14.315  18.409  0.00  0.00    +0.000 C 
ATOM     13  N   UNL     1      -0.526  12.883  20.267  0.00  0.00    +0.000 N 
ATOM     14  C   UNL     1      -0.492  11.664  20.962  0.00  0.00    +0.000 A 
ATOM     15  C   UNL     1      -0.766  11.594  22.336  0.00  0.00    +0.000 A 
ATOM     16 CL   UNL     1      -1.129  13.028  23.230  0.00  0.00    +0.000 Cl
ATOM     17  C   UNL     1      -0.698  10.377  23.014  0.00  0.00    +0.000 A 
ATOM     18  C   UNL     1      -0.374   9.210  22.319  0.00  0.00    +0.000 A 
ATOM     19  C   UNL     1      -0.148   9.254  20.941  0.00  0.00    +0.000 A 
ATOM     20  C   UNL     1      -0.232  10.475  20.270  0.00  0.00    +0.000 A 
ATOM     21  H   UNL     1       0.240  11.869  17.292  0.00  0.00    +0.000 HD
ATOM     22  H   UNL     1       4.093  15.649  20.953  0.00  0.00    +0.000 HD
ATOM     23  H   UNL     1      -0.536  13.681  20.895  0.00  0.00    +0.000 HD
ENDROOT
BRANCH  10  24
ATOM     24  C   UNL     1       5.121  17.282  20.154  0.00  0.00    +0.000 C 
ATOM     25  C   UNL     1       5.952  17.167  21.446  0.00  0.00    +0.000 C 
ATOM     26  C   UNL     1       6.752  15.860  21.503  0.00  0.00    +0.000 C 
ATOM     27  C   UNL     1       7.611  15.650  20.256  0.00  0.00    +0.000 C 
ATOM     28  C   UNL     1       6.814  15.826  18.967  0.00  0.00    +0.000 C 
ATOM     29  C   UNL     1       6.078  17.165  18.958  0.00  0.00    +0.000 C 
ENDBRANCH  10  24
TORSDOF 1
ENDMDL
MODEL 8
REMARK VINA RESULT:      -6.2      6.600      8.874
REMARK  Name = 
REMARK  1 active torsions:
REMARK  status: ('A' for Active; 'I' for Inactive)
REMARK    1  A    between atoms: N_10  and  C_11
REMARK                            x       y       z     vdW  Elec       q    Type
REMARK                         _______ _______ _______ _____ _____    ______ ____
ROOT
ATOM      1  O   UNL     1       1.989  10.910  18.494  0.00  0.00    +0.000 OA
ATOM      2  C   UNL     1       1.472  11.662  19.305  0.00  0.00    +0.000 C 
ATOM      3  N   UNL     1       0.627  11.204  20.293  0.00  0.00    +0.000 N 
ATOM      4  C   UNL     1      -0.357  12.085  20.884  0.00  0.00    +0.000 C 
ATOM      5  C   UNL     1      -1.448  12.404  19.842  0.00  0.00    +0.000 C 
ATOM      6  C   UNL     1      -2.537  13.297  20.407  0.00  0.00    +0.000 C 
ATOM      7  N   UNL     1      -3.113  12.732  21.624  0.00  0.00    +0.000 N 
ATOM      8  C   UNL     1      -4.469  12.721  21.952  0.00  0.00    +0.000 C 
ATOM      9  O   UNL     1      -4.892  12.279  23.013  0.00  0.00    +0.000 OA
ATOM     10  N   UNL     1      -5.300  13.206  20.973  0.00  0.00    +0.000 N 
ATOM     11  C   UNL     1      -2.147  12.358  22.662  0.00  0.00    +0.000 C 
ATOM     12  C   UNL     1      -1.022  11.464  22.121  0.00  0.00    +0.000 C 
ATOM     13  N   UNL     1       0.395  13.259  21.312  0.00  0.00    +0.000 N 
ATOM     14  C   UNL     1       1.157  13.889  20.316  0.00  0.00    +0.000 A 
ATOM     15  C   UNL     1       1.432  15.264  20.360  0.00  0.00    +0.000 A 
ATOM     16 CL   UNL     1       0.807  16.241  21.642  0.00  0.00    +0.000 Cl
ATOM     17  C   UNL     1       2.166  15.876  19.344  0.00  0.00    +0.000 A 
ATOM     18  C   UNL     1       2.653  15.113  18.281  0.00  0.00    +0.000 A 
ATOM     19  C   UNL     1       2.432  13.734  18.248  0.00  0.00    +0.000 A 
ATOM     20  C   UNL     1       1.707  13.130  19.276  0.00  0.00    +0.000 A 
ATOM     21  H   UNL     1       0.412  10.217  20.212  0.00  0.00    +0.000 HD
ATOM     22  H   UNL     1      -4.915  13.972  20.447  0.00  0.00    +0.000 HD
ATOM     23  H   UNL     1      -0.098  13.928  21.896  0.00  0.00    +0.000 HD
ENDROOT
BRANCH  10  24
ATOM     24  C   UNL     1      -6.760  13.233  21.089  0.00  0.00    +0.000 C 
ATOM     25  C   UNL     1      -7.317  14.439  20.308  0.00  0.00    +0.000 C 
ATOM     26  C   UNL     1      -7.097  14.297  18.797  0.00  0.00    +0.000 C 
ATOM     27  C   UNL     1      -7.635  12.974  18.253  0.00  0.00    +0.000 C 
ATOM     28  C   UNL     1      -7.144  11.774  19.059  0.00  0.00    +0.000 C 
ATOM     29  C   UNL     1      -7.432  11.962  20.548  0.00  0.00    +0.000 C 
ENDBRANCH  10  24
TORSDOF 1
ENDMDL
MODEL 9
REMARK VINA RESULT:      -6.2      2.662      7.950
REMARK  Name = 
REMARK  1 active torsions:
REMARK  status: ('A' for Active; 'I' for Inactive)
REMARK    1  A    between atoms: N_10  and  C_11
REMARK                            x       y       z     vdW  Elec       q    Type
REMARK                         _______ _______ _______ _____ _____    ______ ____
ROOT
ATOM      1  O   UNL     1       1.506  13.069  21.317  0.00  0.00    +0.000 OA
ATOM      2  C   UNL     1       0.977  12.048  20.907  0.00  0.00    +0.000 C 
ATOM      3  N   UNL     1       1.199  10.822  21.497  0.00  0.00    +0.000 N 
ATOM      4  C   UNL     1       1.021   9.600  20.740  0.00  0.00    +0.000 C 
ATOM      5  C   UNL     1       2.129   9.494  19.674  0.00  0.00    +0.000 C 
ATOM      6  C   UNL     1       2.026   8.215  18.866  0.00  0.00    +0.000 C 
ATOM      7  N   UNL     1       2.005   7.038  19.730  0.00  0.00    +0.000 N 
ATOM      8  C   UNL     1       2.684   5.842  19.490  0.00  0.00    +0.000 C 
ATOM      9  O   UNL     1       2.589   4.867  20.225  0.00  0.00    +0.000 OA
ATOM     10  N   UNL     1       3.504   5.858  18.390  0.00  0.00    +0.000 N 
ATOM     11  C   UNL     1       1.007   7.064  20.803  0.00  0.00    +0.000 C 
ATOM     12  C   UNL     1       1.075   8.353  21.635  0.00  0.00    +0.000 C 
ATOM     13  N   UNL     1      -0.319   9.698  20.175  0.00  0.00    +0.000 N 
ATOM     14  C   UNL     1      -0.575  10.849  19.413  0.00  0.00    +0.000 A 
ATOM     15  C   UNL     1      -1.504  10.843  18.362  0.00  0.00    +0.000 A 
ATOM     16 CL   UNL     1      -2.350   9.393  17.949  0.00  0.00    +0.000 Cl
ATOM     17  C   UNL     1      -1.722  11.989  17.597  0.00  0.00    +0.000 A 
ATOM     18  C   UNL     1      -1.026  13.164  17.891  0.00  0.00    +0.000 A 
ATOM     19  C   UNL     1      -0.135  13.201  18.966  0.00  0.00    +0.000 A 
ATOM     20  C   UNL     1       0.065  12.052  19.733  0.00  0.00    +0.000 A 
ATOM     21  H   UNL     1       1.904  10.847  22.223  0.00  0.00    +0.000 HD
ATOM     22  H   UNL     1       3.150   6.399  17.620  0.00  0.00    +0.000 HD
ATOM     23  H   UNL     1      -0.692   8.860  19.738  0.00  0.00    +0.000 HD
ENDROOT
BRANCH  10  24
ATOM     24  C   UNL     1       4.349   4.729  17.992  0.00  0.00    +0.000 C 
ATOM     25  C   UNL     1       4.585   4.775  16.470  0.00  0.00    +0.000 C 
ATOM     26  C   UNL     1       5.422   5.990  16.053  0.00  0.00    +0.000 C 
ATOM     27  C   UNL     1       6.733   6.088  16.833  0.00  0.00    +0.000 C 
ATOM     28  C   UNL     1       6.520   5.978  18.340  0.00  0.00    +0.000 C 
ATOM     29  C   UNL     1       5.718   4.725  18.688  0.00  0.00    +0.000 C 
ENDBRANCH  10  24
TORSDOF 1
ENDMDL
