MODEL 1
REMARK VINA RESULT:      -7.4      0.000      0.000
REMARK  Name = 
REMARK  7 active torsions:
REMARK  status: ('A' for Active; 'I' for Inactive)
REMARK    1  A    between atoms: C_1  and  C_2
REMARK    2  A    between atoms: C_2  and  N_3
REMARK    3  A    between atoms: N_3  and  C_4
REMARK    4  A    between atoms: C_4  and  C_5
REMARK    5  A    between atoms: C_5  and  N_6
REMARK    6  A    between atoms: C_12  and  N_13
REMARK    7  A    between atoms: C_14  and  C_16
REMARK                            x       y       z     vdW  Elec       q    Type
REMARK                         _______ _______ _______ _____ _____    ______ ____
ROOT
ATOM      1  N   UNL     1       4.503   4.344  18.053  0.00  0.00    +0.000 N 
ATOM      2  C   UNL     1       5.618   4.477  17.124  0.00  0.00    +0.000 C 
ATOM      3  C   UNL     1       5.217   5.335  15.936  0.00  0.00    +0.000 C 
ATOM      4  C   UNL     1       4.724   6.704  16.397  0.00  0.00    +0.000 C 
ATOM      5  C   UNL     1       3.862   6.648  17.633  0.00  0.00    +0.000 A 
ATOM      6  C   UNL     1       3.077   7.770  17.975  0.00  0.00    +0.000 A 
ATOM      7  C   UNL     1       2.278   7.783  19.126  0.00  0.00    +0.000 A 
ATOM      8  C   UNL     1       2.335   6.677  19.971  0.00  0.00    +0.000 A 
ATOM      9  C   UNL     1       3.108   5.560  19.635  0.00  0.00    +0.000 A 
ATOM     10  C   UNL     1       3.841   5.499  18.443  0.00  0.00    +0.000 A 
ENDROOT
BRANCH   7  11
ATOM     11  N   UNL     1       1.411   8.871  19.341  0.00  0.00    +0.000 N 
ATOM     12  C   UNL     1       0.992   9.826  18.432  0.00  0.00    +0.000 C 
ATOM     13  N   UNL     1       1.758  10.260  17.478  0.00  0.00    +0.000 NA
ATOM     14  H   UNL     1       0.793   8.730  20.130  0.00  0.00    +0.000 HD
ATOM     15  H   UNL     1       2.666   9.795  17.562  0.00  0.00    +0.000 HD
BRANCH  12  16
ATOM     16  C   UNL     1      -0.325  10.458  18.519  0.00  0.00    +0.000 A 
ATOM     17  C   UNL     1      -0.755  11.437  19.396  0.00  0.00    +0.000 A 
ATOM     18  C   UNL     1      -2.095  11.851  19.146  0.00  0.00    +0.000 A 
ATOM     19  C   UNL     1      -2.657  11.160  18.096  0.00  0.00    +0.000 A 
ATOM     20  S   UNL     1      -1.579  10.010  17.436  0.00  0.00    +0.000 S 
ENDBRANCH  12  16
ENDBRANCH   7  11
BRANCH   1  21
ATOM     21  C   UNL     1       4.003   3.009  18.418  0.00  0.00    +0.000 C 
BRANCH  21  22
ATOM     22  C   UNL     1       2.921   2.490  17.434  0.00  0.00    +0.000 C 
BRANCH  22  23
ATOM     23  N   UNL     1       1.628   2.244  18.098  0.00  0.00    +0.000 NA
ATOM     24  H   UNL     1       0.990   3.012  17.897  0.00  0.00    +0.000 HD
BRANCH  23  26
ATOM     25  C   UNL     1       0.804   3.005  20.277  0.00  0.00    +0.000 C 
ATOM     26  C   UNL     1       1.808   2.125  19.547  0.00  0.00    +0.000 C 
ENDBRANCH  23  26
ENDBRANCH  22  23
ENDBRANCH  21  22
ENDBRANCH   1  21
TORSDOF 6
ENDMDL
MODEL 2
REMARK VINA RESULT:      -7.4      1.218      1.497
REMARK  Name = 
REMARK  7 active torsions:
REMARK  status: ('A' for Active; 'I' for Inactive)
REMARK    1  A    between atoms: C_1  and  C_2
REMARK    2  A    between atoms: C_2  and  N_3
REMARK    3  A    between atoms: N_3  and  C_4
REMARK    4  A    between atoms: C_4  and  C_5
REMARK    5  A    between atoms: C_5  and  N_6
REMARK    6  A    between atoms: C_12  and  N_13
REMARK    7  A    between atoms: C_14  and  C_16
REMARK                            x       y       z     vdW  Elec       q    Type
REMARK                         _______ _______ _______ _____ _____    ______ ____
ROOT
ATOM      1  N   UNL     1       4.770   4.389  18.432  0.00  0.00    +0.000 N 
ATOM      2  C   UNL     1       6.001   4.400  17.652  0.00  0.00    +0.000 C 
ATOM      3  C   UNL     1       5.752   5.005  16.280  0.00  0.00    +0.000 C 
ATOM      4  C   UNL     1       5.172   6.411  16.406  0.00  0.00    +0.000 C 
ATOM      5  C   UNL     1       4.147   6.544  17.504  0.00  0.00    +0.000 A 
ATOM      6  C   UNL     1       3.300   7.673  17.521  0.00  0.00    +0.000 A 
ATOM      7  C   UNL     1       2.349   7.860  18.533  0.00  0.00    +0.000 A 
ATOM      8  C   UNL     1       2.311   6.933  19.572  0.00  0.00    +0.000 A 
ATOM      9  C   UNL     1       3.145   5.810  19.558  0.00  0.00    +0.000 A 
ATOM     10  C   UNL     1       4.038   5.564  18.507  0.00  0.00    +0.000 A 
ENDROOT
BRANCH   7  11
ATOM     11  N   UNL     1       1.439   8.929  18.422  0.00  0.00    +0.000 N 
ATOM     12  C   UNL     1       1.072   9.846  19.390  0.00  0.00    +0.000 C 
ATOM     13  N   UNL     1       0.987   9.533  20.648  0.00  0.00    +0.000 NA
ATOM     14  H   UNL     1       1.314   9.240  17.467  0.00  0.00    +0.000 HD
ATOM     15  H   UNL     1       1.209   8.539  20.744  0.00  0.00    +0.000 HD
BRANCH  12  16
ATOM     16  C   UNL     1       0.695  11.221  19.057  0.00  0.00    +0.000 A 
ATOM     17  C   UNL     1       1.500  12.344  18.999  0.00  0.00    +0.000 A 
ATOM     18  C   UNL     1       0.791  13.508  18.583  0.00  0.00    +0.000 A 
ATOM     19  C   UNL     1      -0.541  13.243  18.356  0.00  0.00    +0.000 A 
ATOM     20  S   UNL     1      -0.929  11.607  18.662  0.00  0.00    +0.000 S 
ENDBRANCH  12  16
ENDBRANCH   7  11
BRANCH   1  21
ATOM     21  C   UNL     1       4.251   3.122  18.973  0.00  0.00    +0.000 C 
BRANCH  21  22
ATOM     22  C   UNL     1       3.390   2.344  17.943  0.00  0.00    +0.000 C 
BRANCH  22  23
ATOM     23  N   UNL     1       2.199   1.729  18.556  0.00  0.00    +0.000 NA
ATOM     24  H   UNL     1       1.893   0.940  17.990  0.00  0.00    +0.000 HD
BRANCH  23  26
ATOM     25  C   UNL     1       0.875   3.073  20.120  0.00  0.00    +0.000 C 
ATOM     26  C   UNL     1       1.113   2.706  18.662  0.00  0.00    +0.000 C 
ENDBRANCH  23  26
ENDBRANCH  22  23
ENDBRANCH  21  22
ENDBRANCH   1  21
TORSDOF 6
ENDMDL
MODEL 3
REMARK VINA RESULT:      -7.3      2.844      7.963
REMARK  Name = 
REMARK  7 active torsions:
REMARK  status: ('A' for Active; 'I' for Inactive)
REMARK    1  A    between atoms: C_1  and  C_2
REMARK    2  A    between atoms: C_2  and  N_3
REMARK    3  A    between atoms: N_3  and  C_4
REMARK    4  A    between atoms: C_4  and  C_5
REMARK    5  A    between atoms: C_5  and  N_6
REMARK    6  A    between atoms: C_12  and  N_13
REMARK    7  A    between atoms: C_14  and  C_16
REMARK                            x       y       z     vdW  Elec       q    Type
REMARK                         _______ _______ _______ _____ _____    ______ ____
ROOT
ATOM      1  N   UNL     1       0.351  11.403  19.898  0.00  0.00    +0.000 N 
ATOM      2  C   UNL     1       0.153  11.627  21.324  0.00  0.00    +0.000 C 
ATOM      3  C   UNL     1      -0.419  10.381  21.980  0.00  0.00    +0.000 C 
ATOM      4  C   UNL     1       0.486   9.176  21.737  0.00  0.00    +0.000 C 
ATOM      5  C   UNL     1       1.051   9.120  20.341  0.00  0.00    +0.000 A 
ATOM      6  C   UNL     1       1.622   7.915  19.878  0.00  0.00    +0.000 A 
ATOM      7  C   UNL     1       2.186   7.815  18.598  0.00  0.00    +0.000 A 
ATOM      8  C   UNL     1       2.236   8.967  17.816  0.00  0.00    +0.000 A 
ATOM      9  C   UNL     1       1.668  10.163  18.268  0.00  0.00    +0.000 A 
ATOM     10  C   UNL     1       1.023  10.253  19.508  0.00  0.00    +0.000 A 
ENDROOT
BRANCH   7  11
ATOM     11  N   UNL     1       2.612   6.554  18.139  0.00  0.00    +0.000 N 
ATOM     12  C   UNL     1       3.322   5.587  18.827  0.00  0.00    +0.000 C 
ATOM     13  N   UNL     1       4.225   5.885  19.711  0.00  0.00    +0.000 NA
ATOM     14  H   UNL     1       2.056   6.210  17.367  0.00  0.00    +0.000 HD
ATOM     15  H   UNL     1       4.300   6.904  19.758  0.00  0.00    +0.000 HD
BRANCH  12  16
ATOM     16  C   UNL     1       3.146   4.158  18.563  0.00  0.00    +0.000 A 
ATOM     17  C   UNL     1       2.195   3.538  17.773  0.00  0.00    +0.000 A 
ATOM     18  C   UNL     1       2.368   2.125  17.708  0.00  0.00    +0.000 A 
ATOM     19  C   UNL     1       3.437   1.705  18.468  0.00  0.00    +0.000 A 
ATOM     20  S   UNL     1       4.208   3.006  19.265  0.00  0.00    +0.000 S 
ENDBRANCH  12  16
ENDBRANCH   7  11
BRANCH   1  21
ATOM     21  C   UNL     1      -0.294  12.289  18.915  0.00  0.00    +0.000 C 
BRANCH  21  22
ATOM     22  C   UNL     1      -1.649  11.727  18.409  0.00  0.00    +0.000 C 
BRANCH  22  23
ATOM     23  N   UNL     1      -1.847  11.955  16.965  0.00  0.00    +0.000 NA
ATOM     24  H   UNL     1      -2.317  12.846  16.822  0.00  0.00    +0.000 HD
BRANCH  23  26
ATOM     25  C   UNL     1      -4.132  11.207  16.491  0.00  0.00    +0.000 C 
ATOM     26  C   UNL     1      -2.650  10.878  16.380  0.00  0.00    +0.000 C 
ENDBRANCH  23  26
ENDBRANCH  22  23
ENDBRANCH  21  22
ENDBRANCH   1  21
TORSDOF 6
ENDMDL
MODEL 4
REMARK VINA RESULT:      -7.3      2.547      4.196
REMARK  Name = 
REMARK  7 active torsions:
REMARK  status: ('A' for Active; 'I' for Inactive)
REMARK    1  A    between atoms: C_1  and  C_2
REMARK    2  A    between atoms: C_2  and  N_3
REMARK    3  A    between atoms: N_3  and  C_4
REMARK    4  A    between atoms: C_4  and  C_5
REMARK    5  A    between atoms: C_5  and  N_6
REMARK    6  A    between atoms: C_12  and  N_13
REMARK    7  A    between atoms: C_14  and  C_16
REMARK                            x       y       z     vdW  Elec       q    Type
REMARK                         _______ _______ _______ _____ _____    ______ ____
ROOT
ATOM      1  N   UNL     1       4.672   5.478  17.858  0.00  0.00    +0.000 N 
ATOM      2  C   UNL     1       4.762   4.025  17.929  0.00  0.00    +0.000 C 
ATOM      3  C   UNL     1       4.635   3.558  19.369  0.00  0.00    +0.000 C 
ATOM      4  C   UNL     1       3.330   4.055  19.986  0.00  0.00    +0.000 C 
ATOM      5  C   UNL     1       2.984   5.471  19.603  0.00  0.00    +0.000 A 
ATOM      6  C   UNL     1       2.004   6.164  20.346  0.00  0.00    +0.000 A 
ATOM      7  C   UNL     1       1.625   7.473  20.017  0.00  0.00    +0.000 A 
ATOM      8  C   UNL     1       2.190   8.050  18.882  0.00  0.00    +0.000 A 
ATOM      9  C   UNL     1       3.165   7.369  18.144  0.00  0.00    +0.000 A 
ATOM     10  C   UNL     1       3.618   6.096  18.514  0.00  0.00    +0.000 A 
ENDROOT
BRANCH   7  11
ATOM     11  N   UNL     1       0.748   8.164  20.875  0.00  0.00    +0.000 N 
ATOM     12  C   UNL     1       1.052   9.146  21.800  0.00  0.00    +0.000 C 
ATOM     13  N   UNL     1       2.164   9.149  22.471  0.00  0.00    +0.000 NA
ATOM     14  H   UNL     1      -0.205   8.174  20.536  0.00  0.00    +0.000 HD
ATOM     15  H   UNL     1       2.701   8.321  22.201  0.00  0.00    +0.000 HD
BRANCH  12  16
ATOM     16  C   UNL     1       0.114  10.219  22.132  0.00  0.00    +0.000 A 
ATOM     17  C   UNL     1      -0.846  10.247  23.127  0.00  0.00    +0.000 A 
ATOM     18  C   UNL     1      -1.541  11.489  23.188  0.00  0.00    +0.000 A 
ATOM     19  C   UNL     1      -1.104  12.368  22.222  0.00  0.00    +0.000 A 
ATOM     20  S   UNL     1       0.120  11.686  21.242  0.00  0.00    +0.000 S 
ENDBRANCH  12  16
ENDBRANCH   7  11
BRANCH   1  21
ATOM     21  C   UNL     1       5.763   6.256  17.249  0.00  0.00    +0.000 C 
BRANCH  21  22
ATOM     22  C   UNL     1       7.041   5.406  17.019  0.00  0.00    +0.000 C 
BRANCH  22  23
ATOM     23  N   UNL     1       7.443   5.369  15.601  0.00  0.00    +0.000 NA
ATOM     24  H   UNL     1       7.940   6.225  15.364  0.00  0.00    +0.000 HD
BRANCH  23  26
ATOM     25  C   UNL     1       6.230   3.840  14.118  0.00  0.00    +0.000 C 
ATOM     26  C   UNL     1       6.268   5.230  14.737  0.00  0.00    +0.000 C 
ENDBRANCH  23  26
ENDBRANCH  22  23
ENDBRANCH  21  22
ENDBRANCH   1  21
TORSDOF 6
ENDMDL
MODEL 5
REMARK VINA RESULT:      -7.3      2.103      4.024
REMARK  Name = 
REMARK  7 active torsions:
REMARK  status: ('A' for Active; 'I' for Inactive)
REMARK    1  A    between atoms: C_1  and  C_2
REMARK    2  A    between atoms: C_2  and  N_3
REMARK    3  A    between atoms: N_3  and  C_4
REMARK    4  A    between atoms: C_4  and  C_5
REMARK    5  A    between atoms: C_5  and  N_6
REMARK    6  A    between atoms: C_12  and  N_13
REMARK    7  A    between atoms: C_14  and  C_16
REMARK                            x       y       z     vdW  Elec       q    Type
REMARK                         _______ _______ _______ _____ _____    ______ ____
ROOT
ATOM      1  N   UNL     1       3.056   3.561  17.957  0.00  0.00    +0.000 N 
ATOM      2  C   UNL     1       2.313   2.325  18.164  0.00  0.00    +0.000 C 
ATOM      3  C   UNL     1       2.056   2.104  19.645  0.00  0.00    +0.000 C 
ATOM      4  C   UNL     1       1.315   3.294  20.249  0.00  0.00    +0.000 C 
ATOM      5  C   UNL     1       1.803   4.628  19.742  0.00  0.00    +0.000 A 
ATOM      6  C   UNL     1       1.449   5.801  20.443  0.00  0.00    +0.000 A 
ATOM      7  C   UNL     1       1.853   7.068  20.002  0.00  0.00    +0.000 A 
ATOM      8  C   UNL     1       2.555   7.147  18.801  0.00  0.00    +0.000 A 
ATOM      9  C   UNL     1       2.912   5.987  18.104  0.00  0.00    +0.000 A 
ATOM     10  C   UNL     1       2.592   4.710  18.581  0.00  0.00    +0.000 A 
ENDROOT
BRANCH   7  11
ATOM     11  N   UNL     1       1.592   8.187  20.815  0.00  0.00    +0.000 N 
ATOM     12  C   UNL     1       0.974   9.375  20.466  0.00  0.00    +0.000 C 
ATOM     13  N   UNL     1       1.105   9.906  19.289  0.00  0.00    +0.000 NA
ATOM     14  H   UNL     1       1.551   7.956  21.799  0.00  0.00    +0.000 HD
ATOM     15  H   UNL     1       1.732   9.313  18.739  0.00  0.00    +0.000 HD
BRANCH  12  16
ATOM     16  C   UNL     1       0.177  10.147  21.421  0.00  0.00    +0.000 A 
ATOM     17  C   UNL     1      -0.506   9.696  22.536  0.00  0.00    +0.000 A 
ATOM     18  C   UNL     1      -1.130  10.751  23.263  0.00  0.00    +0.000 A 
ATOM     19  C   UNL     1      -0.921  11.975  22.669  0.00  0.00    +0.000 A 
ATOM     20  S   UNL     1       0.003  11.844  21.237  0.00  0.00    +0.000 S 
ENDBRANCH  12  16
ENDBRANCH   7  11
BRANCH   1  21
ATOM     21  C   UNL     1       4.344   3.537  17.246  0.00  0.00    +0.000 C 
BRANCH  21  22
ATOM     22  C   UNL     1       5.540   3.886  18.172  0.00  0.00    +0.000 C 
BRANCH  22  23
ATOM     23  N   UNL     1       6.726   4.329  17.416  0.00  0.00    +0.000 NA
ATOM     24  H   UNL     1       7.349   4.847  18.032  0.00  0.00    +0.000 HD
BRANCH  23  26
ATOM     25  C   UNL     1       6.968   4.682  15.003  0.00  0.00    +0.000 C 
ATOM     26  C   UNL     1       6.330   5.181  16.292  0.00  0.00    +0.000 C 
ENDBRANCH  23  26
ENDBRANCH  22  23
ENDBRANCH  21  22
ENDBRANCH   1  21
TORSDOF 6
ENDMDL
MODEL 6
REMARK VINA RESULT:      -7.2      2.177      3.967
REMARK  Name = 
REMARK  7 active torsions:
REMARK  status: ('A' for Active; 'I' for Inactive)
REMARK    1  A    between atoms: C_1  and  C_2
REMARK    2  A    between atoms: C_2  and  N_3
REMARK    3  A    between atoms: N_3  and  C_4
REMARK    4  A    between atoms: C_4  and  C_5
REMARK    5  A    between atoms: C_5  and  N_6
REMARK    6  A    between atoms: C_12  and  N_13
REMARK    7  A    between atoms: C_14  and  C_16
REMARK                            x       y       z     vdW  Elec       q    Type
REMARK                         _______ _______ _______ _____ _____    ______ ____
ROOT
ATOM      1  N   UNL     1       3.523   3.597  17.630  0.00  0.00    +0.000 N 
ATOM      2  C   UNL     1       2.890   2.300  17.833  0.00  0.00    +0.000 C 
ATOM      3  C   UNL     1       2.702   2.030  19.317  0.00  0.00    +0.000 C 
ATOM      4  C   UNL     1       1.887   3.144  19.971  0.00  0.00    +0.000 C 
ATOM      5  C   UNL     1       2.248   4.522  19.478  0.00  0.00    +0.000 A 
ATOM      6  C   UNL     1       1.824   5.648  20.216  0.00  0.00    +0.000 A 
ATOM      7  C   UNL     1       2.108   6.953  19.790  0.00  0.00    +0.000 A 
ATOM      8  C   UNL     1       2.761   7.112  18.570  0.00  0.00    +0.000 A 
ATOM      9  C   UNL     1       3.187   6.000  17.836  0.00  0.00    +0.000 A 
ATOM     10  C   UNL     1       2.988   4.691  18.295  0.00  0.00    +0.000 A 
ENDROOT
BRANCH   7  11
ATOM     11  N   UNL     1       1.784   8.031  20.636  0.00  0.00    +0.000 N 
ATOM     12  C   UNL     1       1.043   9.160  20.339  0.00  0.00    +0.000 C 
ATOM     13  N   UNL     1       1.067   9.719  19.167  0.00  0.00    +0.000 NA
ATOM     14  H   UNL     1       1.812   7.782  21.616  0.00  0.00    +0.000 HD
ATOM     15  H   UNL     1       1.720   9.195  18.578  0.00  0.00    +0.000 HD
BRANCH  12  16
ATOM     16  C   UNL     1       0.225   9.841  21.344  0.00  0.00    +0.000 A 
ATOM     17  C   UNL     1      -0.243   9.350  22.550  0.00  0.00    +0.000 A 
ATOM     18  C   UNL     1      -0.967  10.324  23.297  0.00  0.00    +0.000 A 
ATOM     19  C   UNL     1      -1.048  11.525  22.628  0.00  0.00    +0.000 A 
ATOM     20  S   UNL     1      -0.273  11.465  21.106  0.00  0.00    +0.000 S 
ENDBRANCH  12  16
ENDBRANCH   7  11
BRANCH   1  21
ATOM     21  C   UNL     1       4.784   3.693  16.878  0.00  0.00    +0.000 C 
BRANCH  21  22
ATOM     22  C   UNL     1       5.723   4.798  17.432  0.00  0.00    +0.000 C 
BRANCH  22  23
ATOM     23  N   UNL     1       7.026   4.263  17.867  0.00  0.00    +0.000 NA
ATOM     24  H   UNL     1       6.878   3.451  18.464  0.00  0.00    +0.000 HD
BRANCH  23  26
ATOM     25  C   UNL     1       7.562   6.652  17.979  0.00  0.00    +0.000 C 
ATOM     26  C   UNL     1       7.780   5.280  18.602  0.00  0.00    +0.000 C 
ENDBRANCH  23  26
ENDBRANCH  22  23
ENDBRANCH  21  22
ENDBRANCH   1  21
TORSDOF 6
ENDMDL
MODEL 7
REMARK VINA RESULT:      -7.2      2.474      4.227
REMARK  Name = 
REMARK  7 active torsions:
REMARK  status: ('A' for Active; 'I' for Inactive)
REMARK    1  A    between atoms: C_1  and  C_2
REMARK    2  A    between atoms: C_2  and  N_3
REMARK    3  A    between atoms: N_3  and  C_4
REMARK    4  A    between atoms: C_4  and  C_5
REMARK    5  A    between atoms: C_5  and  N_6
REMARK    6  A    between atoms: C_12  and  N_13
REMARK    7  A    between atoms: C_14  and  C_16
REMARK                            x       y       z     vdW  Elec       q    Type
REMARK                         _______ _______ _______ _____ _____    ______ ____
ROOT
ATOM      1  N   UNL     1       4.324   4.369  18.892  0.00  0.00    +0.000 N 
ATOM      2  C   UNL     1       4.079   2.935  18.971  0.00  0.00    +0.000 C 
ATOM      3  C   UNL     1       3.616   2.555  20.368  0.00  0.00    +0.000 C 
ATOM      4  C   UNL     1       2.370   3.345  20.760  0.00  0.00    +0.000 C 
ATOM      5  C   UNL     1       2.413   4.789  20.329  0.00  0.00    +0.000 A 
ATOM      6  C   UNL     1       1.502   5.703  20.900  0.00  0.00    +0.000 A 
ATOM      7  C   UNL     1       1.480   7.052  20.517  0.00  0.00    +0.000 A 
ATOM      8  C   UNL     1       2.338   7.453  19.496  0.00  0.00    +0.000 A 
ATOM      9  C   UNL     1       3.245   6.552  18.929  0.00  0.00    +0.000 A 
ATOM     10  C   UNL     1       3.339   5.224  19.365  0.00  0.00    +0.000 A 
ENDROOT
BRANCH   7  11
ATOM     11  N   UNL     1       0.649   7.945  21.219  0.00  0.00    +0.000 N 
ATOM     12  C   UNL     1       1.016   9.045  21.974  0.00  0.00    +0.000 C 
ATOM     13  N   UNL     1       2.113   9.076  22.668  0.00  0.00    +0.000 NA
ATOM     14  H   UNL     1      -0.295   7.972  20.855  0.00  0.00    +0.000 HD
ATOM     15  H   UNL     1       2.585   8.175  22.558  0.00  0.00    +0.000 HD
BRANCH  12  16
ATOM     16  C   UNL     1       0.164  10.229  22.090  0.00  0.00    +0.000 A 
ATOM     17  C   UNL     1      -0.801  10.505  23.042  0.00  0.00    +0.000 A 
ATOM     18  C   UNL     1      -1.395  11.788  22.867  0.00  0.00    +0.000 A 
ATOM     19  C   UNL     1      -0.879  12.447  21.774  0.00  0.00    +0.000 A 
ATOM     20  S   UNL     1       0.296  11.511  20.958  0.00  0.00    +0.000 S 
ENDBRANCH  12  16
ENDBRANCH   7  11
BRANCH   1  21
ATOM     21  C   UNL     1       5.645   4.870  18.478  0.00  0.00    +0.000 C 
BRANCH  21  22
ATOM     22  C   UNL     1       6.076   4.329  17.089  0.00  0.00    +0.000 C 
BRANCH  22  23
ATOM     23  N   UNL     1       6.484   5.407  16.169  0.00  0.00    +0.000 NA
ATOM     24  H   UNL     1       5.686   6.007  15.970  0.00  0.00    +0.000 HD
BRANCH  23  26
ATOM     25  C   UNL     1       5.900   4.087  14.188  0.00  0.00    +0.000 C 
ATOM     26  C   UNL     1       6.999   4.846  14.917  0.00  0.00    +0.000 C 
ENDBRANCH  23  26
ENDBRANCH  22  23
ENDBRANCH  21  22
ENDBRANCH   1  21
TORSDOF 6
ENDMDL
MODEL 8
REMARK VINA RESULT:      -7.2      2.952      8.097
REMARK  Name = 
REMARK  7 active torsions:
REMARK  status: ('A' for Active; 'I' for Inactive)
REMARK    1  A    between atoms: C_1  and  C_2
REMARK    2  A    between atoms: C_2  and  N_3
REMARK    3  A    between atoms: N_3  and  C_4
REMARK    4  A    between atoms: C_4  and  C_5
REMARK    5  A    between atoms: C_5  and  N_6
REMARK    6  A    between atoms: C_12  and  N_13
REMARK    7  A    between atoms: C_14  and  C_16
REMARK                            x       y       z     vdW  Elec       q    Type
REMARK                         _______ _______ _______ _____ _____    ______ ____
ROOT
ATOM      1  N   UNL     1      -0.040  11.185  19.717  0.00  0.00    +0.000 N 
ATOM      2  C   UNL     1      -0.243  11.872  20.986  0.00  0.00    +0.000 C 
ATOM      3  C   UNL     1      -0.670  10.885  22.059  0.00  0.00    +0.000 C 
ATOM      4  C   UNL     1       0.357   9.764  22.203  0.00  0.00    +0.000 C 
ATOM      5  C   UNL     1       0.908   9.280  20.886  0.00  0.00    +0.000 A 
ATOM      6  C   UNL     1       1.599   8.050  20.841  0.00  0.00    +0.000 A 
ATOM      7  C   UNL     1       2.155   7.565  19.649  0.00  0.00    +0.000 A 
ATOM      8  C   UNL     1       2.071   8.371  18.516  0.00  0.00    +0.000 A 
ATOM      9  C   UNL     1       1.383   9.588  18.554  0.00  0.00    +0.000 A 
ATOM     10  C   UNL     1       0.747  10.043  19.716  0.00  0.00    +0.000 A 
ENDROOT
BRANCH   7  11
ATOM     11  N   UNL     1       2.708   6.271  19.633  0.00  0.00    +0.000 N 
ATOM     12  C   UNL     1       2.067   5.062  19.831  0.00  0.00    +0.000 C 
ATOM     13  N   UNL     1       1.068   4.931  20.650  0.00  0.00    +0.000 NA
ATOM     14  H   UNL     1       3.567   6.218  19.100  0.00  0.00    +0.000 HD
ATOM     15  H   UNL     1       0.898   5.838  21.092  0.00  0.00    +0.000 HD
BRANCH  12  16
ATOM     16  C   UNL     1       2.508   3.830  19.174  0.00  0.00    +0.000 A 
ATOM     17  C   UNL     1       2.207   3.377  17.902  0.00  0.00    +0.000 A 
ATOM     18  C   UNL     1       2.865   2.154  17.583  0.00  0.00    +0.000 A 
ATOM     19  C   UNL     1       3.634   1.698  18.631  0.00  0.00    +0.000 A 
ATOM     20  S   UNL     1       3.543   2.731  19.990  0.00  0.00    +0.000 S 
ENDBRANCH  12  16
ENDBRANCH   7  11
BRANCH   1  21
ATOM     21  C   UNL     1      -0.789  11.606  18.522  0.00  0.00    +0.000 C 
BRANCH  21  22
ATOM     22  C   UNL     1      -2.326  11.516  18.722  0.00  0.00    +0.000 C 
BRANCH  22  23
ATOM     23  N   UNL     1      -3.075  12.025  17.559  0.00  0.00    +0.000 NA
ATOM     24  H   UNL     1      -3.818  12.645  17.876  0.00  0.00    +0.000 HD
BRANCH  23  26
ATOM     25  C   UNL     1      -2.900  10.728  15.487  0.00  0.00    +0.000 C 
ATOM     26  C   UNL     1      -3.654  10.918  16.795  0.00  0.00    +0.000 C 
ENDBRANCH  23  26
ENDBRANCH  22  23
ENDBRANCH  21  22
ENDBRANCH   1  21
TORSDOF 6
ENDMDL
MODEL 9
REMARK VINA RESULT:      -7.1      2.478      4.321
REMARK  Name = 
REMARK  7 active torsions:
REMARK  status: ('A' for Active; 'I' for Inactive)
REMARK    1  A    between atoms: C_1  and  C_2
REMARK    2  A    between atoms: C_2  and  N_3
REMARK    3  A    between atoms: N_3  and  C_4
REMARK    4  A    between atoms: C_4  and  C_5
REMARK    5  A    between atoms: C_5  and  N_6
REMARK    6  A    between atoms: C_12  and  N_13
REMARK    7  A    between atoms: C_14  and  C_16
REMARK                            x       y       z     vdW  Elec       q    Type
REMARK                         _______ _______ _______ _____ _____    ______ ____
ROOT
ATOM      1  N   UNL     1       4.538   4.284  19.125  0.00  0.00    +0.000 N 
ATOM      2  C   UNL     1       4.255   2.856  19.210  0.00  0.00    +0.000 C 
ATOM      3  C   UNL     1       3.652   2.517  20.562  0.00  0.00    +0.000 C 
ATOM      4  C   UNL     1       2.391   3.339  20.815  0.00  0.00    +0.000 C 
ATOM      5  C   UNL     1       2.506   4.772  20.361  0.00  0.00    +0.000 A 
ATOM      6  C   UNL     1       1.563   5.716  20.821  0.00  0.00    +0.000 A 
ATOM      7  C   UNL     1       1.607   7.056  20.411  0.00  0.00    +0.000 A 
ATOM      8  C   UNL     1       2.568   7.418  19.470  0.00  0.00    +0.000 A 
ATOM      9  C   UNL     1       3.507   6.487  19.013  0.00  0.00    +0.000 A 
ATOM     10  C   UNL     1       3.530   5.167  19.483  0.00  0.00    +0.000 A 
ENDROOT
BRANCH   7  11
ATOM     11  N   UNL     1       0.731   7.980  21.010  0.00  0.00    +0.000 N 
ATOM     12  C   UNL     1       1.046   9.076  21.793  0.00  0.00    +0.000 C 
ATOM     13  N   UNL     1       2.059   9.081  22.605  0.00  0.00    +0.000 NA
ATOM     14  H   UNL     1      -0.165   8.032  20.542  0.00  0.00    +0.000 HD
ATOM     15  H   UNL     1       2.513   8.165  22.554  0.00  0.00    +0.000 HD
BRANCH  12  16
ATOM     16  C   UNL     1       0.222  10.286  21.807  0.00  0.00    +0.000 A 
ATOM     17  C   UNL     1       0.216  11.333  20.903  0.00  0.00    +0.000 A 
ATOM     18  C   UNL     1      -0.765  12.320  21.211  0.00  0.00    +0.000 A 
ATOM     19  C   UNL     1      -1.466  12.006  22.353  0.00  0.00    +0.000 A 
ATOM     20  S   UNL     1      -0.927  10.543  23.054  0.00  0.00    +0.000 S 
ENDBRANCH  12  16
ENDBRANCH   7  11
BRANCH   1  21
ATOM     21  C   UNL     1       5.903   4.749  18.832  0.00  0.00    +0.000 C 
BRANCH  21  22
ATOM     22  C   UNL     1       6.275   4.591  17.333  0.00  0.00    +0.000 C 
BRANCH  22  23
ATOM     23  N   UNL     1       7.240   5.610  16.883  0.00  0.00    +0.000 NA
ATOM     24  H   UNL     1       8.069   5.153  16.508  0.00  0.00    +0.000 HD
BRANCH  23  26
ATOM     25  C   UNL     1       7.673   7.932  17.535  0.00  0.00    +0.000 C 
ATOM     26  C   UNL     1       7.624   6.482  17.995  0.00  0.00    +0.000 C 
ENDBRANCH  23  26
ENDBRANCH  22  23
ENDBRANCH  21  22
ENDBRANCH   1  21
TORSDOF 6
ENDMDL
