MODEL 1
REMARK VINA RESULT:      -7.5      0.000      0.000
REMARK  Name = 
REMARK  4 active torsions:
REMARK  status: ('A' for Active; 'I' for Inactive)
REMARK    1  A    between atoms: C_4  and  C_5
REMARK    2  A    between atoms: C_8  and  O_9
REMARK    3  A    between atoms: O_9  and  C_10
REMARK    4  A    between atoms: C_10  and  C_11
REMARK                            x       y       z     vdW  Elec       q    Type
REMARK                         _______ _______ _______ _____ _____    ______ ____
ROOT
ATOM      1  C   UNL     1       5.941   4.500  14.555  0.00  0.00    +0.000 A 
ATOM      2  C   UNL     1       5.713   3.594  15.598  0.00  0.00    +0.000 A 
ATOM      3  C   UNL     1       5.165   4.015  16.809  0.00  0.00    +0.000 A 
ATOM      4  C   UNL     1       4.870   5.361  17.016  0.00  0.00    +0.000 A 
ATOM      5  C   UNL     1       5.070   6.272  15.979  0.00  0.00    +0.000 A 
ATOM      6  C   UNL     1       5.616   5.848  14.761  0.00  0.00    +0.000 A 
ENDROOT
BRANCH   1  10
ATOM      7  O   UNL     1       4.484   3.549  11.927  0.00  0.00    +0.000 OA
ATOM      8  C   UNL     1       5.525   3.227  12.445  0.00  0.00    +0.000 C 
ATOM      9  C   UNL     1       6.833   3.574  12.143  0.00  0.00    +0.000 C 
ATOM     10  C   UNL     1       6.568   4.120  13.299  0.00  0.00    +0.000 C 
ENDBRANCH   1  10
BRANCH   4  11
ATOM     11  O   UNL     1       4.394   5.879  18.190  0.00  0.00    +0.000 OA
BRANCH  11  12
ATOM     12  C   UNL     1       2.991   6.173  18.189  0.00  0.00    +0.000 C 
BRANCH  12  13
ATOM     13  C   UNL     1       2.196   5.069  18.845  0.00  0.00    +0.000 A 
ATOM     14  C   UNL     1       1.643   4.051  18.053  0.00  0.00    +0.000 A 
ATOM     15  C   UNL     1       0.954   2.991  18.641  0.00  0.00    +0.000 A 
ATOM     16  C   UNL     1       0.820   2.930  20.026  0.00  0.00    +0.000 A 
ATOM     17  C   UNL     1       1.383   3.923  20.824  0.00  0.00    +0.000 A 
ATOM     18  C   UNL     1       2.075   4.984  20.238  0.00  0.00    +0.000 A 
ENDBRANCH  12  13
ENDBRANCH  11  12
ENDBRANCH   4  11
TORSDOF 4
ENDMDL
MODEL 2
REMARK VINA RESULT:      -7.4      2.567      4.073
REMARK  Name = 
REMARK  4 active torsions:
REMARK  status: ('A' for Active; 'I' for Inactive)
REMARK    1  A    between atoms: C_4  and  C_5
REMARK    2  A    between atoms: C_8  and  O_9
REMARK    3  A    between atoms: O_9  and  C_10
REMARK    4  A    between atoms: C_10  and  C_11
REMARK                            x       y       z     vdW  Elec       q    Type
REMARK                         _______ _______ _______ _____ _____    ______ ____
ROOT
ATOM      1  C   UNL     1       5.934   5.778  17.353  0.00  0.00    +0.000 A 
ATOM      2  C   UNL     1       6.056   4.583  16.635  0.00  0.00    +0.000 A 
ATOM      3  C   UNL     1       4.946   3.778  16.381  0.00  0.00    +0.000 A 
ATOM      4  C   UNL     1       3.694   4.135  16.878  0.00  0.00    +0.000 A 
ATOM      5  C   UNL     1       3.551   5.334  17.576  0.00  0.00    +0.000 A 
ATOM      6  C   UNL     1       4.665   6.144  17.826  0.00  0.00    +0.000 A 
ENDROOT
BRANCH   1  10
ATOM      7  O   UNL     1       8.285   5.054  19.322  0.00  0.00    +0.000 OA
ATOM      8  C   UNL     1       7.707   6.087  19.087  0.00  0.00    +0.000 C 
ATOM      9  C   UNL     1       8.077   7.177  18.314  0.00  0.00    +0.000 C 
ATOM     10  C   UNL     1       7.072   6.616  17.697  0.00  0.00    +0.000 C 
ENDBRANCH   1  10
BRANCH   4  11
ATOM     11  O   UNL     1       2.561   3.379  16.738  0.00  0.00    +0.000 OA
BRANCH  11  12
ATOM     12  C   UNL     1       2.531   2.191  17.540  0.00  0.00    +0.000 C 
BRANCH  12  13
ATOM     13  C   UNL     1       2.325   2.517  19.000  0.00  0.00    +0.000 A 
ATOM     14  C   UNL     1       1.062   2.940  19.441  0.00  0.00    +0.000 A 
ATOM     15  C   UNL     1       0.832   3.192  20.794  0.00  0.00    +0.000 A 
ATOM     16  C   UNL     1       1.857   3.011  21.720  0.00  0.00    +0.000 A 
ATOM     17  C   UNL     1       3.108   2.570  21.297  0.00  0.00    +0.000 A 
ATOM     18  C   UNL     1       3.340   2.316  19.944  0.00  0.00    +0.000 A 
ENDBRANCH  12  13
ENDBRANCH  11  12
ENDBRANCH   4  11
TORSDOF 4
ENDMDL
MODEL 3
REMARK VINA RESULT:      -7.4      2.681      4.217
REMARK  Name = 
REMARK  4 active torsions:
REMARK  status: ('A' for Active; 'I' for Inactive)
REMARK    1  A    between atoms: C_4  and  C_5
REMARK    2  A    between atoms: C_8  and  O_9
REMARK    3  A    between atoms: O_9  and  C_10
REMARK    4  A    between atoms: C_10  and  C_11
REMARK                            x       y       z     vdW  Elec       q    Type
REMARK                         _______ _______ _______ _____ _____    ______ ____
ROOT
ATOM      1  C   UNL     1       5.747   5.780  17.516  0.00  0.00    +0.000 A 
ATOM      2  C   UNL     1       4.474   6.187  17.932  0.00  0.00    +0.000 A 
ATOM      3  C   UNL     1       3.358   5.375  17.733  0.00  0.00    +0.000 A 
ATOM      4  C   UNL     1       3.488   4.153  17.075  0.00  0.00    +0.000 A 
ATOM      5  C   UNL     1       4.753   3.723  16.675  0.00  0.00    +0.000 A 
ATOM      6  C   UNL     1       5.874   4.537  16.879  0.00  0.00    +0.000 A 
ENDROOT
BRANCH   1  10
ATOM      7  O   UNL     1       8.262   5.237  19.335  0.00  0.00    +0.000 OA
ATOM      8  C   UNL     1       7.683   6.249  19.025  0.00  0.00    +0.000 C 
ATOM      9  C   UNL     1       7.997   7.223  18.089  0.00  0.00    +0.000 C 
ATOM     10  C   UNL     1       6.928   6.620  17.644  0.00  0.00    +0.000 C 
ENDBRANCH   1  10
BRANCH   4  11
ATOM     11  O   UNL     1       2.445   3.319  16.775  0.00  0.00    +0.000 OA
BRANCH  11  12
ATOM     12  C   UNL     1       2.407   2.108  17.542  0.00  0.00    +0.000 C 
BRANCH  12  13
ATOM     13  C   UNL     1       2.202   2.392  19.011  0.00  0.00    +0.000 A 
ATOM     14  C   UNL     1       3.278   2.247  19.899  0.00  0.00    +0.000 A 
ATOM     15  C   UNL     1       3.128   2.557  21.251  0.00  0.00    +0.000 A 
ATOM     16  C   UNL     1       1.906   3.027  21.726  0.00  0.00    +0.000 A 
ATOM     17  C   UNL     1       0.837   3.196  20.850  0.00  0.00    +0.000 A 
ATOM     18  C   UNL     1       0.985   2.888  19.497  0.00  0.00    +0.000 A 
ENDBRANCH  12  13
ENDBRANCH  11  12
ENDBRANCH   4  11
TORSDOF 4
ENDMDL
MODEL 4
REMARK VINA RESULT:      -7.3      0.868      1.436
REMARK  Name = 
REMARK  4 active torsions:
REMARK  status: ('A' for Active; 'I' for Inactive)
REMARK    1  A    between atoms: C_4  and  C_5
REMARK    2  A    between atoms: C_8  and  O_9
REMARK    3  A    between atoms: O_9  and  C_10
REMARK    4  A    between atoms: C_10  and  C_11
REMARK                            x       y       z     vdW  Elec       q    Type
REMARK                         _______ _______ _______ _____ _____    ______ ____
ROOT
ATOM      1  C   UNL     1       6.456   5.015  15.113  0.00  0.00    +0.000 A 
ATOM      2  C   UNL     1       7.017   4.388  16.232  0.00  0.00    +0.000 A 
ATOM      3  C   UNL     1       6.488   4.583  17.507  0.00  0.00    +0.000 A 
ATOM      4  C   UNL     1       5.407   5.443  17.694  0.00  0.00    +0.000 A 
ATOM      5  C   UNL     1       4.822   6.057  16.587  0.00  0.00    +0.000 A 
ATOM      6  C   UNL     1       5.352   5.858  15.306  0.00  0.00    +0.000 A 
ENDROOT
BRANCH   1  10
ATOM      7  O   UNL     1       5.146   3.552  12.649  0.00  0.00    +0.000 OA
ATOM      8  C   UNL     1       6.289   3.660  13.020  0.00  0.00    +0.000 C 
ATOM      9  C   UNL     1       7.313   4.480  12.573  0.00  0.00    +0.000 C 
ATOM     10  C   UNL     1       7.013   4.894  13.775  0.00  0.00    +0.000 C 
ENDBRANCH   1  10
BRANCH   4  11
ATOM     11  O   UNL     1       4.861   5.749  18.911  0.00  0.00    +0.000 OA
BRANCH  11  12
ATOM     12  C   UNL     1       3.481   6.133  18.869  0.00  0.00    +0.000 C 
BRANCH  12  13
ATOM     13  C   UNL     1       2.574   4.967  19.187  0.00  0.00    +0.000 A 
ATOM     14  C   UNL     1       2.251   4.688  20.523  0.00  0.00    +0.000 A 
ATOM     15  C   UNL     1       1.371   3.652  20.838  0.00  0.00    +0.000 A 
ATOM     16  C   UNL     1       0.797   2.893  19.821  0.00  0.00    +0.000 A 
ATOM     17  C   UNL     1       1.094   3.174  18.489  0.00  0.00    +0.000 A 
ATOM     18  C   UNL     1       1.972   4.212  18.173  0.00  0.00    +0.000 A 
ENDBRANCH  12  13
ENDBRANCH  11  12
ENDBRANCH   4  11
TORSDOF 4
ENDMDL
MODEL 5
REMARK VINA RESULT:      -7.3      0.253      1.617
REMARK  Name = 
REMARK  4 active torsions:
REMARK  status: ('A' for Active; 'I' for Inactive)
REMARK    1  A    between atoms: C_4  and  C_5
REMARK    2  A    between atoms: C_8  and  O_9
REMARK    3  A    between atoms: O_9  and  C_10
REMARK    4  A    between atoms: C_10  and  C_11
REMARK                            x       y       z     vdW  Elec       q    Type
REMARK                         _______ _______ _______ _____ _____    ______ ____
ROOT
ATOM      1  C   UNL     1       6.095   4.487  14.421  0.00  0.00    +0.000 A 
ATOM      2  C   UNL     1       5.633   5.801  14.568  0.00  0.00    +0.000 A 
ATOM      3  C   UNL     1       5.136   6.256  15.788  0.00  0.00    +0.000 A 
ATOM      4  C   UNL     1       5.053   5.392  16.879  0.00  0.00    +0.000 A 
ATOM      5  C   UNL     1       5.529   4.088  16.755  0.00  0.00    +0.000 A 
ATOM      6  C   UNL     1       6.033   3.631  15.531  0.00  0.00    +0.000 A 
ENDROOT
BRANCH   1  10
ATOM      7  O   UNL     1       4.315   3.599  11.977  0.00  0.00    +0.000 OA
ATOM      8  C   UNL     1       5.340   3.164  12.440  0.00  0.00    +0.000 C 
ATOM      9  C   UNL     1       6.655   3.304  12.021  0.00  0.00    +0.000 C 
ATOM     10  C   UNL     1       6.561   3.949  13.153  0.00  0.00    +0.000 C 
ENDBRANCH   1  10
BRANCH   4  11
ATOM     11  O   UNL     1       4.520   5.727  18.094  0.00  0.00    +0.000 OA
BRANCH  11  12
ATOM     12  C   UNL     1       3.116   6.018  18.073  0.00  0.00    +0.000 C 
BRANCH  12  13
ATOM     13  C   UNL     1       2.314   4.903  18.702  0.00  0.00    +0.000 A 
ATOM     14  C   UNL     1       1.947   4.993  20.053  0.00  0.00    +0.000 A 
ATOM     15  C   UNL     1       1.158   4.004  20.640  0.00  0.00    +0.000 A 
ATOM     16  C   UNL     1       0.717   2.923  19.882  0.00  0.00    +0.000 A 
ATOM     17  C   UNL     1       1.057   2.833  18.534  0.00  0.00    +0.000 A 
ATOM     18  C   UNL     1       1.845   3.823  17.943  0.00  0.00    +0.000 A 
ENDBRANCH  12  13
ENDBRANCH  11  12
ENDBRANCH   4  11
TORSDOF 4
ENDMDL
MODEL 6
REMARK VINA RESULT:      -7.3      2.679      4.174
REMARK  Name = 
REMARK  4 active torsions:
REMARK  status: ('A' for Active; 'I' for Inactive)
REMARK    1  A    between atoms: C_4  and  C_5
REMARK    2  A    between atoms: C_8  and  O_9
REMARK    3  A    between atoms: O_9  and  C_10
REMARK    4  A    between atoms: C_10  and  C_11
REMARK                            x       y       z     vdW  Elec       q    Type
REMARK                         _______ _______ _______ _____ _____    ______ ____
ROOT
ATOM      1  C   UNL     1       5.765   5.839  17.487  0.00  0.00    +0.000 A 
ATOM      2  C   UNL     1       4.487   6.260  17.874  0.00  0.00    +0.000 A 
ATOM      3  C   UNL     1       3.371   5.446  17.682  0.00  0.00    +0.000 A 
ATOM      4  C   UNL     1       3.507   4.205  17.061  0.00  0.00    +0.000 A 
ATOM      5  C   UNL     1       4.776   3.761  16.691  0.00  0.00    +0.000 A 
ATOM      6  C   UNL     1       5.896   4.577  16.888  0.00  0.00    +0.000 A 
ENDROOT
BRANCH   1  10
ATOM      7  O   UNL     1       8.286   5.301  19.299  0.00  0.00    +0.000 OA
ATOM      8  C   UNL     1       7.706   6.312  18.987  0.00  0.00    +0.000 C 
ATOM      9  C   UNL     1       8.017   7.282  18.047  0.00  0.00    +0.000 C 
ATOM     10  C   UNL     1       6.946   6.678  17.608  0.00  0.00    +0.000 C 
ENDBRANCH   1  10
BRANCH   4  11
ATOM     11  O   UNL     1       2.465   3.366  16.771  0.00  0.00    +0.000 OA
BRANCH  11  12
ATOM     12  C   UNL     1       2.421   2.171  17.560  0.00  0.00    +0.000 C 
BRANCH  12  13
ATOM     13  C   UNL     1       2.266   2.486  19.029  0.00  0.00    +0.000 A 
ATOM     14  C   UNL     1       1.030   2.943  19.510  0.00  0.00    +0.000 A 
ATOM     15  C   UNL     1       0.846   3.187  20.871  0.00  0.00    +0.000 A 
ATOM     16  C   UNL     1       1.890   2.965  21.766  0.00  0.00    +0.000 A 
ATOM     17  C   UNL     1       3.115   2.491  21.303  0.00  0.00    +0.000 A 
ATOM     18  C   UNL     1       3.300   2.244  19.942  0.00  0.00    +0.000 A 
ENDBRANCH  12  13
ENDBRANCH  11  12
ENDBRANCH   4  11
TORSDOF 4
ENDMDL
MODEL 7
REMARK VINA RESULT:      -7.3      1.284      1.788
REMARK  Name = 
REMARK  4 active torsions:
REMARK  status: ('A' for Active; 'I' for Inactive)
REMARK    1  A    between atoms: C_4  and  C_5
REMARK    2  A    between atoms: C_8  and  O_9
REMARK    3  A    between atoms: O_9  and  C_10
REMARK    4  A    between atoms: C_10  and  C_11
REMARK                            x       y       z     vdW  Elec       q    Type
REMARK                         _______ _______ _______ _____ _____    ______ ____
ROOT
ATOM      1  C   UNL     1       5.735   4.639  15.151  0.00  0.00    +0.000 A 
ATOM      2  C   UNL     1       5.318   5.972  15.257  0.00  0.00    +0.000 A 
ATOM      3  C   UNL     1       4.843   6.484  16.463  0.00  0.00    +0.000 A 
ATOM      4  C   UNL     1       4.738   5.660  17.582  0.00  0.00    +0.000 A 
ATOM      5  C   UNL     1       5.170   4.337  17.500  0.00  0.00    +0.000 A 
ATOM      6  C   UNL     1       5.652   3.824  16.289  0.00  0.00    +0.000 A 
ENDROOT
BRANCH   1  10
ATOM      7  O   UNL     1       8.301   5.412  13.494  0.00  0.00    +0.000 OA
ATOM      8  C   UNL     1       7.193   5.066  13.167  0.00  0.00    +0.000 C 
ATOM      9  C   UNL     1       6.718   3.839  12.730  0.00  0.00    +0.000 C 
ATOM     10  C   UNL     1       6.176   4.044  13.900  0.00  0.00    +0.000 C 
ENDBRANCH   1  10
BRANCH   4  11
ATOM     11  O   UNL     1       4.223   6.052  18.788  0.00  0.00    +0.000 OA
BRANCH  11  12
ATOM     12  C   UNL     1       2.794   6.153  18.826  0.00  0.00    +0.000 C 
BRANCH  12  13
ATOM     13  C   UNL     1       2.173   4.939  19.475  0.00  0.00    +0.000 A 
ATOM     14  C   UNL     1       1.489   4.005  18.682  0.00  0.00    +0.000 A 
ATOM     15  C   UNL     1       0.956   2.848  19.250  0.00  0.00    +0.000 A 
ATOM     16  C   UNL     1       1.111   2.606  20.613  0.00  0.00    +0.000 A 
ATOM     17  C   UNL     1       1.806   3.515  21.407  0.00  0.00    +0.000 A 
ATOM     18  C   UNL     1       2.342   4.673  20.840  0.00  0.00    +0.000 A 
ENDBRANCH  12  13
ENDBRANCH  11  12
ENDBRANCH   4  11
TORSDOF 4
ENDMDL
MODEL 8
REMARK VINA RESULT:      -7.2      1.506      2.199
REMARK  Name = 
REMARK  4 active torsions:
REMARK  status: ('A' for Active; 'I' for Inactive)
REMARK    1  A    between atoms: C_4  and  C_5
REMARK    2  A    between atoms: C_8  and  O_9
REMARK    3  A    between atoms: O_9  and  C_10
REMARK    4  A    between atoms: C_10  and  C_11
REMARK                            x       y       z     vdW  Elec       q    Type
REMARK                         _______ _______ _______ _____ _____    ______ ____
ROOT
ATOM      1  C   UNL     1       6.361   4.812  14.889  0.00  0.00    +0.000 A 
ATOM      2  C   UNL     1       5.310   5.719  15.074  0.00  0.00    +0.000 A 
ATOM      3  C   UNL     1       4.868   6.059  16.352  0.00  0.00    +0.000 A 
ATOM      4  C   UNL     1       5.444   5.466  17.474  0.00  0.00    +0.000 A 
ATOM      5  C   UNL     1       6.507   4.578  17.308  0.00  0.00    +0.000 A 
ATOM      6  C   UNL     1       6.953   4.241  16.025  0.00  0.00    +0.000 A 
ENDROOT
BRANCH   1  10
ATOM      7  O   UNL     1       8.879   5.867  13.315  0.00  0.00    +0.000 OA
ATOM      8  C   UNL     1       7.781   5.516  12.957  0.00  0.00    +0.000 C 
ATOM      9  C   UNL     1       7.350   4.328  12.388  0.00  0.00    +0.000 C 
ATOM     10  C   UNL     1       6.812   4.379  13.577  0.00  0.00    +0.000 C 
ENDBRANCH   1  10
BRANCH   4  11
ATOM     11  O   UNL     1       5.036   5.684  18.762  0.00  0.00    +0.000 OA
BRANCH  11  12
ATOM     12  C   UNL     1       3.690   6.159  18.891  0.00  0.00    +0.000 C 
BRANCH  12  13
ATOM     13  C   UNL     1       2.735   5.030  19.201  0.00  0.00    +0.000 A 
ATOM     14  C   UNL     1       2.393   4.762  20.534  0.00  0.00    +0.000 A 
ATOM     15  C   UNL     1       1.470   3.762  20.841  0.00  0.00    +0.000 A 
ATOM     16  C   UNL     1       0.872   3.028  19.820  0.00  0.00    +0.000 A 
ATOM     17  C   UNL     1       1.188   3.300  18.491  0.00  0.00    +0.000 A 
ATOM     18  C   UNL     1       2.109   4.302  18.181  0.00  0.00    +0.000 A 
ENDBRANCH  12  13
ENDBRANCH  11  12
ENDBRANCH   4  11
TORSDOF 4
ENDMDL
MODEL 9
REMARK VINA RESULT:      -7.2      1.054      1.174
REMARK  Name = 
REMARK  4 active torsions:
REMARK  status: ('A' for Active; 'I' for Inactive)
REMARK    1  A    between atoms: C_4  and  C_5
REMARK    2  A    between atoms: C_8  and  O_9
REMARK    3  A    between atoms: O_9  and  C_10
REMARK    4  A    between atoms: C_10  and  C_11
REMARK                            x       y       z     vdW  Elec       q    Type
REMARK                         _______ _______ _______ _____ _____    ______ ____
ROOT
ATOM      1  C   UNL     1       6.380   5.158  15.622  0.00  0.00    +0.000 A 
ATOM      2  C   UNL     1       6.851   4.458  16.739  0.00  0.00    +0.000 A 
ATOM      3  C   UNL     1       6.260   4.621  17.992  0.00  0.00    +0.000 A 
ATOM      4  C   UNL     1       5.208   5.520  18.160  0.00  0.00    +0.000 A 
ATOM      5  C   UNL     1       4.712   6.207  17.053  0.00  0.00    +0.000 A 
ATOM      6  C   UNL     1       5.303   6.040  15.794  0.00  0.00    +0.000 A 
ENDROOT
BRANCH   1  10
ATOM      7  O   UNL     1       5.189   3.776  13.053  0.00  0.00    +0.000 OA
ATOM      8  C   UNL     1       6.312   3.864  13.485  0.00  0.00    +0.000 C 
ATOM      9  C   UNL     1       7.363   4.689  13.115  0.00  0.00    +0.000 C 
ATOM     10  C   UNL     1       7.003   5.070  14.311  0.00  0.00    +0.000 C 
ENDBRANCH   1  10
BRANCH   4  11
ATOM     11  O   UNL     1       4.609   5.796  19.359  0.00  0.00    +0.000 OA
BRANCH  11  12
ATOM     12  C   UNL     1       3.226   6.159  19.268  0.00  0.00    +0.000 C 
BRANCH  12  13
ATOM     13  C   UNL     1       2.328   4.958  19.452  0.00  0.00    +0.000 A 
ATOM     14  C   UNL     1       1.896   4.240  18.327  0.00  0.00    +0.000 A 
ATOM     15  C   UNL     1       1.113   3.095  18.475  0.00  0.00    +0.000 A 
ATOM     16  C   UNL     1       0.763   2.650  19.748  0.00  0.00    +0.000 A 
ATOM     17  C   UNL     1       1.203   3.343  20.873  0.00  0.00    +0.000 A 
ATOM     18  C   UNL     1       1.989   4.487  20.727  0.00  0.00    +0.000 A 
ENDBRANCH  12  13
ENDBRANCH  11  12
ENDBRANCH   4  11
TORSDOF 4
ENDMDL
