MODEL 1
REMARK VINA RESULT:      -7.3      0.000      0.000
REMARK  Name = 
REMARK  1 active torsions:
REMARK  status: ('A' for Active; 'I' for Inactive)
REMARK    1  A    between atoms: C_1  and  C_2
REMARK                            x       y       z     vdW  Elec       q    Type
REMARK                         _______ _______ _______ _____ _____    ______ ____
ROOT
ATOM      1  C   UNL     1       0.155  10.290  20.109  0.00  0.00    +0.000 C 
ATOM      2  C   UNL     1       1.081   9.260  19.556  0.00  0.00    +0.000 C 
ATOM      3  C   UNL     1       1.504   8.173  20.217  0.00  0.00    +0.000 C 
ATOM      4  C   UNL     1       2.480   7.213  19.599  0.00  0.00    +0.000 C 
ATOM      5  C   UNL     1       2.155   5.751  19.896  0.00  0.00    +0.000 C 
ATOM      6  O   UNL     1       1.389   5.408  20.792  0.00  0.00    +0.000 OA
ATOM      7  C   UNL     1       2.874   4.736  19.044  0.00  0.00    +0.000 A 
ATOM      8  N   UNL     1       2.654   3.441  19.391  0.00  0.00    +0.000 NA
ATOM      9  C   UNL     1       3.278   2.494  18.667  0.00  0.00    +0.000 A 
ATOM     10  C   UNL     1       4.127   2.780  17.615  0.00  0.00    +0.000 A 
ATOM     11  C   UNL     1       4.338   4.118  17.263  0.00  0.00    +0.000 A 
ATOM     12  I   UNL     1       5.581   4.432  15.604  0.00  0.00    +0.000 I 
ATOM     13  C   UNL     1       3.687   5.127  17.978  0.00  0.00    +0.000 A 
ATOM     14  C   UNL     1       3.739   6.577  17.657  0.00  0.00    +0.000 C 
ATOM     15  O   UNL     1       4.740   7.100  17.200  0.00  0.00    +0.000 OA
ATOM     16  C   UNL     1       2.474   7.316  18.077  0.00  0.00    +0.000 C 
ATOM     17  N   UNL     1       2.424   8.684  17.544  0.00  0.00    +0.000 NA
ATOM     18  C   UNL     1       1.707   9.509  18.230  0.00  0.00    +0.000 C 
ENDROOT
TORSDOF 0
ENDMDL
MODEL 2
REMARK VINA RESULT:      -6.7      2.738      5.516
REMARK  Name = 
REMARK  1 active torsions:
REMARK  status: ('A' for Active; 'I' for Inactive)
REMARK    1  A    between atoms: C_1  and  C_2
REMARK                            x       y       z     vdW  Elec       q    Type
REMARK                         _______ _______ _______ _____ _____    ______ ____
ROOT
ATOM      1  C   UNL     1       6.929   5.000  13.945  0.00  0.00    +0.000 C 
ATOM      2  C   UNL     1       6.191   4.832  15.230  0.00  0.00    +0.000 C 
ATOM      3  C   UNL     1       5.961   5.810  16.117  0.00  0.00    +0.000 C 
ATOM      4  C   UNL     1       5.252   5.539  17.413  0.00  0.00    +0.000 C 
ATOM      5  C   UNL     1       4.268   6.641  17.801  0.00  0.00    +0.000 C 
ATOM      6  O   UNL     1       4.287   7.759  17.295  0.00  0.00    +0.000 OA
ATOM      7  C   UNL     1       3.287   6.287  18.889  0.00  0.00    +0.000 A 
ATOM      8  N   UNL     1       2.490   7.309  19.295  0.00  0.00    +0.000 NA
ATOM      9  C   UNL     1       1.600   7.049  20.270  0.00  0.00    +0.000 A 
ATOM     10  C   UNL     1       1.476   5.812  20.873  0.00  0.00    +0.000 A 
ATOM     11  C   UNL     1       2.297   4.764  20.440  0.00  0.00    +0.000 A 
ATOM     12  I   UNL     1       1.969   2.913  21.368  0.00  0.00    +0.000 I 
ATOM     13  C   UNL     1       3.216   4.993  19.411  0.00  0.00    +0.000 A 
ATOM     14  C   UNL     1       4.079   3.958  18.787  0.00  0.00    +0.000 C 
ATOM     15  O   UNL     1       4.536   3.028  19.427  0.00  0.00    +0.000 OA
ATOM     16  C   UNL     1       4.409   4.271  17.331  0.00  0.00    +0.000 C 
ATOM     17  N   UNL     1       5.050   3.139  16.649  0.00  0.00    +0.000 NA
ATOM     18  C   UNL     1       5.796   3.459  15.647  0.00  0.00    +0.000 C 
ENDROOT
TORSDOF 0
ENDMDL
MODEL 3
REMARK VINA RESULT:      -6.5      2.919      5.007
REMARK  Name = 
REMARK  1 active torsions:
REMARK  status: ('A' for Active; 'I' for Inactive)
REMARK    1  A    between atoms: C_1  and  C_2
REMARK                            x       y       z     vdW  Elec       q    Type
REMARK                         _______ _______ _______ _____ _____    ______ ____
ROOT
ATOM      1  C   UNL     1       7.061   4.472  14.237  0.00  0.00    +0.000 C 
ATOM      2  C   UNL     1       6.036   4.841  15.255  0.00  0.00    +0.000 C 
ATOM      3  C   UNL     1       5.076   4.024  15.711  0.00  0.00    +0.000 C 
ATOM      4  C   UNL     1       4.051   4.498  16.702  0.00  0.00    +0.000 C 
ATOM      5  C   UNL     1       3.727   3.459  17.773  0.00  0.00    +0.000 C 
ATOM      6  O   UNL     1       4.016   2.272  17.658  0.00  0.00    +0.000 OA
ATOM      7  C   UNL     1       2.979   3.974  18.976  0.00  0.00    +0.000 A 
ATOM      8  N   UNL     1       2.607   3.020  19.869  0.00  0.00    +0.000 NA
ATOM      9  C   UNL     1       1.930   3.425  20.959  0.00  0.00    +0.000 A 
ATOM     10  C   UNL     1       1.593   4.744  21.196  0.00  0.00    +0.000 A 
ATOM     11  C   UNL     1       1.990   5.719  20.273  0.00  0.00    +0.000 A 
ATOM     12  I   UNL     1       1.495   7.694  20.771  0.00  0.00    +0.000 I 
ATOM     13  C   UNL     1       2.716   5.336  19.141  0.00  0.00    +0.000 A 
ATOM     14  C   UNL     1       3.285   6.267  18.132  0.00  0.00    +0.000 C 
ATOM     15  O   UNL     1       2.722   7.301  17.820  0.00  0.00    +0.000 OA
ATOM     16  C   UNL     1       4.545   5.717  17.473  0.00  0.00    +0.000 C 
ATOM     17  N   UNL     1       5.238   6.729  16.664  0.00  0.00    +0.000 NA
ATOM     18  C   UNL     1       5.964   6.257  15.708  0.00  0.00    +0.000 C 
ENDROOT
TORSDOF 0
ENDMDL
MODEL 4
REMARK VINA RESULT:      -6.4      2.138      3.193
REMARK  Name = 
REMARK  1 active torsions:
REMARK  status: ('A' for Active; 'I' for Inactive)
REMARK    1  A    between atoms: C_1  and  C_2
REMARK                            x       y       z     vdW  Elec       q    Type
REMARK                         _______ _______ _______ _____ _____    ______ ____
ROOT
ATOM      1  C   UNL     1       1.526  11.354  18.517  0.00  0.00    +0.000 C 
ATOM      2  C   UNL     1       1.664   9.899  18.814  0.00  0.00    +0.000 C 
ATOM      3  C   UNL     1       2.152   8.984  17.963  0.00  0.00    +0.000 C 
ATOM      4  C   UNL     1       2.207   7.528  18.328  0.00  0.00    +0.000 C 
ATOM      5  C   UNL     1       3.489   6.841  17.864  0.00  0.00    +0.000 C 
ATOM      6  O   UNL     1       4.235   7.325  17.018  0.00  0.00    +0.000 OA
ATOM      7  C   UNL     1       3.767   5.493  18.479  0.00  0.00    +0.000 A 
ATOM      8  N   UNL     1       4.853   4.849  17.979  0.00  0.00    +0.000 NA
ATOM      9  C   UNL     1       5.143   3.639  18.488  0.00  0.00    +0.000 A 
ATOM     10  C   UNL     1       4.386   3.029  19.472  0.00  0.00    +0.000 A 
ATOM     11  C   UNL     1       3.274   3.706  19.984  0.00  0.00    +0.000 A 
ATOM     12  I   UNL     1       2.247   2.723  21.525  0.00  0.00    +0.000 I 
ATOM     13  C   UNL     1       2.959   4.977  19.495  0.00  0.00    +0.000 A 
ATOM     14  C   UNL     1       1.872   5.849  20.011  0.00  0.00    +0.000 C 
ATOM     15  O   UNL     1       0.821   5.393  20.425  0.00  0.00    +0.000 OA
ATOM     16  C   UNL     1       2.181   7.333  19.840  0.00  0.00    +0.000 C 
ATOM     17  N   UNL     1       1.230   8.187  20.564  0.00  0.00    +0.000 NA
ATOM     18  C   UNL     1       1.095   9.377  20.085  0.00  0.00    +0.000 C 
ENDROOT
TORSDOF 0
ENDMDL
MODEL 5
REMARK VINA RESULT:      -5.9      8.732     10.925
REMARK  Name = 
REMARK  1 active torsions:
REMARK  status: ('A' for Active; 'I' for Inactive)
REMARK    1  A    between atoms: C_1  and  C_2
REMARK                            x       y       z     vdW  Elec       q    Type
REMARK                         _______ _______ _______ _____ _____    ______ ____
ROOT
ATOM      1  C   UNL     1      -2.856  10.345  15.323  0.00  0.00    +0.000 C 
ATOM      2  C   UNL     1      -3.303  10.994  16.589  0.00  0.00    +0.000 C 
ATOM      3  C   UNL     1      -4.577  11.280  16.897  0.00  0.00    +0.000 C 
ATOM      4  C   UNL     1      -4.933  11.983  18.175  0.00  0.00    +0.000 C 
ATOM      5  C   UNL     1      -6.192  11.428  18.836  0.00  0.00    +0.000 C 
ATOM      6  O   UNL     1      -6.999  10.719  18.241  0.00  0.00    +0.000 OA
ATOM      7  C   UNL     1      -6.417  11.843  20.267  0.00  0.00    +0.000 A 
ATOM      8  N   UNL     1      -7.592  11.427  20.806  0.00  0.00    +0.000 NA
ATOM      9  C   UNL     1      -7.846  11.776  22.080  0.00  0.00    +0.000 A 
ATOM     10  C   UNL     1      -6.982  12.538  22.844  0.00  0.00    +0.000 A 
ATOM     11  C   UNL     1      -5.770  12.953  22.280  0.00  0.00    +0.000 A 
ATOM     12  I   UNL     1      -4.503  14.035  23.553  0.00  0.00    +0.000 I 
ATOM     13  C   UNL     1      -5.463  12.587  20.966  0.00  0.00    +0.000 A 
ATOM     14  C   UNL     1      -4.180  12.871  20.274  0.00  0.00    +0.000 C 
ATOM     15  O   UNL     1      -3.549  13.894  20.480  0.00  0.00    +0.000 OA
ATOM     16  C   UNL     1      -3.836  11.822  19.223  0.00  0.00    +0.000 C 
ATOM     17  N   UNL     1      -2.464  11.967  18.717  0.00  0.00    +0.000 NA
ATOM     18  C   UNL     1      -2.269  11.500  17.531  0.00  0.00    +0.000 C 
ENDROOT
TORSDOF 0
ENDMDL
MODEL 6
REMARK VINA RESULT:      -5.9      3.097      5.780
REMARK  Name = 
REMARK  1 active torsions:
REMARK  status: ('A' for Active; 'I' for Inactive)
REMARK    1  A    between atoms: C_1  and  C_2
REMARK                            x       y       z     vdW  Elec       q    Type
REMARK                         _______ _______ _______ _____ _____    ______ ____
ROOT
ATOM      1  C   UNL     1       8.027   5.372  13.278  0.00  0.00    +0.000 C 
ATOM      2  C   UNL     1       7.048   5.006  14.341  0.00  0.00    +0.000 C 
ATOM      3  C   UNL     1       6.959   5.598  15.541  0.00  0.00    +0.000 C 
ATOM      4  C   UNL     1       5.974   5.129  16.574  0.00  0.00    +0.000 C 
ATOM      5  C   UNL     1       5.309   6.274  17.333  0.00  0.00    +0.000 C 
ATOM      6  O   UNL     1       5.754   7.419  17.335  0.00  0.00    +0.000 OA
ATOM      7  C   UNL     1       4.084   5.905  18.129  0.00  0.00    +0.000 A 
ATOM      8  N   UNL     1       3.566   6.911  18.882  0.00  0.00    +0.000 NA
ATOM      9  C   UNL     1       2.475   6.633  19.618  0.00  0.00    +0.000 A 
ATOM     10  C   UNL     1       1.879   5.387  19.650  0.00  0.00    +0.000 A 
ATOM     11  C   UNL     1       2.417   4.361  18.864  0.00  0.00    +0.000 A 
ATOM     12  I   UNL     1       1.387   2.536  18.929  0.00  0.00    +0.000 I 
ATOM     13  C   UNL     1       3.536   4.622  18.067  0.00  0.00    +0.000 A 
ATOM     14  C   UNL     1       4.152   3.663  17.114  0.00  0.00    +0.000 C 
ATOM     15  O   UNL     1       4.185   2.465  17.335  0.00  0.00    +0.000 OA
ATOM     16  C   UNL     1       4.823   4.360  15.935  0.00  0.00    +0.000 C 
ATOM     17  N   UNL     1       5.213   3.416  14.878  0.00  0.00    +0.000 NA
ATOM     18  C   UNL     1       6.192   3.806  14.135  0.00  0.00    +0.000 C 
ENDROOT
TORSDOF 0
ENDMDL
MODEL 7
REMARK VINA RESULT:      -5.9      2.032      3.168
REMARK  Name = 
REMARK  1 active torsions:
REMARK  status: ('A' for Active; 'I' for Inactive)
REMARK    1  A    between atoms: C_1  and  C_2
REMARK                            x       y       z     vdW  Elec       q    Type
REMARK                         _______ _______ _______ _____ _____    ______ ____
ROOT
ATOM      1  C   UNL     1       0.150  11.112  20.721  0.00  0.00    +0.000 C 
ATOM      2  C   UNL     1       0.721   9.787  20.346  0.00  0.00    +0.000 C 
ATOM      3  C   UNL     1       1.089   9.431  19.106  0.00  0.00    +0.000 C 
ATOM      4  C   UNL     1       1.608   8.053  18.810  0.00  0.00    +0.000 C 
ATOM      5  C   UNL     1       2.776   8.051  17.827  0.00  0.00    +0.000 C 
ATOM      6  O   UNL     1       3.050   9.012  17.115  0.00  0.00    +0.000 OA
ATOM      7  C   UNL     1       3.559   6.765  17.746  0.00  0.00    +0.000 A 
ATOM      8  N   UNL     1       4.527   6.744  16.793  0.00  0.00    +0.000 NA
ATOM      9  C   UNL     1       5.251   5.616  16.673  0.00  0.00    +0.000 A 
ATOM     10  C   UNL     1       5.045   4.496  17.455  0.00  0.00    +0.000 A 
ATOM     11  C   UNL     1       4.050   4.533  18.439  0.00  0.00    +0.000 A 
ATOM     12  I   UNL     1       3.878   2.808  19.618  0.00  0.00    +0.000 I 
ATOM     13  C   UNL     1       3.295   5.698  18.608  0.00  0.00    +0.000 A 
ATOM     14  C   UNL     1       2.278   5.914  19.669  0.00  0.00    +0.000 C 
ATOM     15  O   UNL     1       1.573   5.010  20.080  0.00  0.00    +0.000 OA
ATOM     16  C   UNL     1       2.151   7.381  20.067  0.00  0.00    +0.000 C 
ATOM     17  N   UNL     1       1.332   7.562  21.274  0.00  0.00    +0.000 NA
ATOM     18  C   UNL     1       0.764   8.715  21.377  0.00  0.00    +0.000 C 
ENDROOT
TORSDOF 0
ENDMDL
MODEL 8
REMARK VINA RESULT:      -5.9      3.454      4.616
REMARK  Name = 
REMARK  1 active torsions:
REMARK  status: ('A' for Active; 'I' for Inactive)
REMARK    1  A    between atoms: C_1  and  C_2
REMARK                            x       y       z     vdW  Elec       q    Type
REMARK                         _______ _______ _______ _____ _____    ______ ____
ROOT
ATOM      1  C   UNL     1       0.914   2.521  21.475  0.00  0.00    +0.000 C 
ATOM      2  C   UNL     1       2.059   3.142  20.751  0.00  0.00    +0.000 C 
ATOM      3  C   UNL     1       2.863   2.501  19.889  0.00  0.00    +0.000 C 
ATOM      4  C   UNL     1       4.027   3.194  19.242  0.00  0.00    +0.000 C 
ATOM      5  C   UNL     1       4.206   2.823  17.772  0.00  0.00    +0.000 C 
ATOM      6  O   UNL     1       3.675   1.840  17.264  0.00  0.00    +0.000 OA
ATOM      7  C   UNL     1       5.123   3.719  16.979  0.00  0.00    +0.000 A 
ATOM      8  N   UNL     1       5.354   3.315  15.702  0.00  0.00    +0.000 NA
ATOM      9  C   UNL     1       6.172   4.075  14.952  0.00  0.00    +0.000 A 
ATOM     10  C   UNL     1       6.785   5.221  15.422  0.00  0.00    +0.000 A 
ATOM     11  C   UNL     1       6.532   5.632  16.737  0.00  0.00    +0.000 A 
ATOM     12  I   UNL     1       7.451   7.424  17.318  0.00  0.00    +0.000 I 
ATOM     13  C   UNL     1       5.667   4.878  17.536  0.00  0.00    +0.000 A 
ATOM     14  C   UNL     1       5.233   5.244  18.909  0.00  0.00    +0.000 C 
ATOM     15  O   UNL     1       5.971   5.821  19.687  0.00  0.00    +0.000 OA
ATOM     16  C   UNL     1       3.845   4.709  19.245  0.00  0.00    +0.000 C 
ATOM     17  N   UNL     1       3.319   5.271  20.497  0.00  0.00    +0.000 NA
ATOM     18  C   UNL     1       2.448   4.535  21.100  0.00  0.00    +0.000 C 
ENDROOT
TORSDOF 0
ENDMDL
MODEL 9
REMARK VINA RESULT:      -5.9      2.389      5.870
REMARK  Name = 
REMARK  1 active torsions:
REMARK  status: ('A' for Active; 'I' for Inactive)
REMARK    1  A    between atoms: C_1  and  C_2
REMARK                            x       y       z     vdW  Elec       q    Type
REMARK                         _______ _______ _______ _____ _____    ______ ____
ROOT
ATOM      1  C   UNL     1       3.763   1.385  18.245  0.00  0.00    +0.000 C 
ATOM      2  C   UNL     1       3.334   2.731  18.723  0.00  0.00    +0.000 C 
ATOM      3  C   UNL     1       3.923   3.889  18.389  0.00  0.00    +0.000 C 
ATOM      4  C   UNL     1       3.455   5.196  18.960  0.00  0.00    +0.000 C 
ATOM      5  C   UNL     1       3.447   6.330  17.937  0.00  0.00    +0.000 C 
ATOM      6  O   UNL     1       4.051   6.268  16.870  0.00  0.00    +0.000 OA
ATOM      7  C   UNL     1       2.680   7.565  18.337  0.00  0.00    +0.000 A 
ATOM      8  N   UNL     1       2.770   8.601  17.463  0.00  0.00    +0.000 NA
ATOM      9  C   UNL     1       2.110   9.731  17.775  0.00  0.00    +0.000 A 
ATOM     10  C   UNL     1       1.370   9.882  18.932  0.00  0.00    +0.000 A 
ATOM     11  C   UNL     1       1.278   8.804  19.820  0.00  0.00    +0.000 A 
ATOM     12  I   UNL     1       0.067   9.117  21.503  0.00  0.00    +0.000 I 
ATOM     13  C   UNL     1       1.932   7.606  19.515  0.00  0.00    +0.000 A 
ATOM     14  C   UNL     1       1.844   6.355  20.311  0.00  0.00    +0.000 C 
ATOM     15  O   UNL     1       1.745   6.368  21.525  0.00  0.00    +0.000 OA
ATOM     16  C   UNL     1       2.016   5.104  19.456  0.00  0.00    +0.000 C 
ATOM     17  N   UNL     1       1.687   3.876  20.193  0.00  0.00    +0.000 NA
ATOM     18  C   UNL     1       2.269   2.809  19.758  0.00  0.00    +0.000 C 
ENDROOT
TORSDOF 0
ENDMDL
