MODEL 1
REMARK VINA RESULT:      -8.0      0.000      0.000
REMARK  Name = 
REMARK  4 active torsions:
REMARK  status: ('A' for Active; 'I' for Inactive)
REMARK    1  A    between atoms: C_1  and  C_2
REMARK    2  A    between atoms: C_2  and  C_3
REMARK    3  A    between atoms: C_8  and  C_10
REMARK    4  A    between atoms: C_20  and  C_21
REMARK                            x       y       z     vdW  Elec       q    Type
REMARK                         _______ _______ _______ _____ _____    ______ ____
ROOT
ATOM      1  C   UNL     1       1.578   3.658  17.217  0.00  0.00    +0.000 C 
ATOM      2  C   UNL     1       1.761   3.033  18.623  0.00  0.00    +0.000 C 
ATOM      3  C   UNL     1       0.382   2.468  19.039  0.00  0.00    +0.000 C 
ATOM      4  C   UNL     1       2.801   1.892  18.567  0.00  0.00    +0.000 C 
ATOM      5  C   UNL     1       4.209   2.413  18.265  0.00  0.00    +0.000 C 
ATOM      6  C   UNL     1       4.618   3.566  19.185  0.00  0.00    +0.000 C 
ATOM      7  N   UNL     1       3.587   4.617  19.254  0.00  0.00    +0.000 N 
ATOM      8  C   UNL     1       3.946   5.927  18.914  0.00  0.00    +0.000 C 
ATOM      9  O   UNL     1       5.062   6.232  18.513  0.00  0.00    +0.000 OA
ATOM     10  C   UNL     1       2.236   4.141  19.632  0.00  0.00    +0.000 C 
ENDROOT
BRANCH   8  11
ATOM     11  C   UNL     1       2.913   7.011  18.966  0.00  0.00    +0.000 A 
ATOM     12  C   UNL     1       2.566   7.791  17.859  0.00  0.00    +0.000 A 
ATOM     13  C   UNL     1       1.769   8.923  17.997  0.00  0.00    +0.000 A 
ATOM     14  C   UNL     1       1.157   9.212  19.194  0.00  0.00    +0.000 A 
ATOM     15  N   UNL     1       0.361  10.283  19.254  0.00  0.00    +0.000 NA
ATOM     16  C   UNL     1      -0.294  10.506  20.416  0.00  0.00    +0.000 A 
ATOM     17  C   UNL     1      -0.177   9.707  21.530  0.00  0.00    +0.000 A 
ATOM     18  C   UNL     1       0.677   8.614  21.466  0.00  0.00    +0.000 A 
ATOM     19  C   UNL     1       1.370   8.342  20.287  0.00  0.00    +0.000 A 
ATOM     20  C   UNL     1       2.265   7.257  20.177  0.00  0.00    +0.000 A 
ENDBRANCH   8  11
BRANCH  10  21
ATOM     21  C   UNL     1       2.275   3.578  21.044  0.00  0.00    +0.000 C 
ATOM     22  N   UNL     1       2.307   3.112  22.214  0.00  0.00    +0.000 NA
ENDBRANCH  10  21
TORSDOF 2
ENDMDL
MODEL 2
REMARK VINA RESULT:      -7.2      0.818      1.611
REMARK  Name = 
REMARK  4 active torsions:
REMARK  status: ('A' for Active; 'I' for Inactive)
REMARK    1  A    between atoms: C_1  and  C_2
REMARK    2  A    between atoms: C_2  and  C_3
REMARK    3  A    between atoms: C_8  and  C_10
REMARK    4  A    between atoms: C_20  and  C_21
REMARK                            x       y       z     vdW  Elec       q    Type
REMARK                         _______ _______ _______ _____ _____    ______ ____
ROOT
ATOM      1  C   UNL     1       1.169   4.059  17.300  0.00  0.00    +0.000 C 
ATOM      2  C   UNL     1       1.615   3.174  18.491  0.00  0.00    +0.000 C 
ATOM      3  C   UNL     1       0.340   2.485  19.032  0.00  0.00    +0.000 C 
ATOM      4  C   UNL     1       2.626   2.110  18.013  0.00  0.00    +0.000 C 
ATOM      5  C   UNL     1       3.951   2.734  17.567  0.00  0.00    +0.000 C 
ATOM      6  C   UNL     1       4.527   3.696  18.611  0.00  0.00    +0.000 C 
ATOM      7  N   UNL     1       3.527   4.670  19.082  0.00  0.00    +0.000 N 
ATOM      8  C   UNL     1       3.814   6.036  18.954  0.00  0.00    +0.000 C 
ATOM      9  O   UNL     1       4.834   6.457  18.424  0.00  0.00    +0.000 OA
ATOM     10  C   UNL     1       2.271   4.077  19.598  0.00  0.00    +0.000 C 
ENDROOT
BRANCH   8  11
ATOM     11  C   UNL     1       2.809   7.046  19.415  0.00  0.00    +0.000 A 
ATOM     12  C   UNL     1       2.288   7.072  20.713  0.00  0.00    +0.000 A 
ATOM     13  C   UNL     1       1.204   7.881  21.038  0.00  0.00    +0.000 A 
ATOM     14  C   UNL     1       0.721   8.806  20.141  0.00  0.00    +0.000 A 
ATOM     15  N   UNL     1      -0.287   9.592  20.527  0.00  0.00    +0.000 NA
ATOM     16  C   UNL     1      -0.696  10.547  19.663  0.00  0.00    +0.000 A 
ATOM     17  C   UNL     1      -0.144  10.745  18.418  0.00  0.00    +0.000 A 
ATOM     18  C   UNL     1       0.885   9.903  18.015  0.00  0.00    +0.000 A 
ATOM     19  C   UNL     1       1.341   8.904  18.876  0.00  0.00    +0.000 A 
ATOM     20  C   UNL     1       2.368   8.010  18.507  0.00  0.00    +0.000 A 
ENDBRANCH   8  11
BRANCH  10  21
ATOM     21  C   UNL     1       2.578   3.246  20.834  0.00  0.00    +0.000 C 
ATOM     22  N   UNL     1       2.832   2.557  21.859  0.00  0.00    +0.000 NA
ENDBRANCH  10  21
TORSDOF 2
ENDMDL
MODEL 3
REMARK VINA RESULT:      -6.9      2.367      4.174
REMARK  Name = 
REMARK  4 active torsions:
REMARK  status: ('A' for Active; 'I' for Inactive)
REMARK    1  A    between atoms: C_1  and  C_2
REMARK    2  A    between atoms: C_2  and  C_3
REMARK    3  A    between atoms: C_8  and  C_10
REMARK    4  A    between atoms: C_20  and  C_21
REMARK                            x       y       z     vdW  Elec       q    Type
REMARK                         _______ _______ _______ _____ _____    ______ ____
ROOT
ATOM      1  C   UNL     1       6.225   5.513  19.312  0.00  0.00    +0.000 C 
ATOM      2  C   UNL     1       6.304   5.791  17.790  0.00  0.00    +0.000 C 
ATOM      3  C   UNL     1       7.371   6.895  17.597  0.00  0.00    +0.000 C 
ATOM      4  C   UNL     1       6.730   4.511  17.037  0.00  0.00    +0.000 C 
ATOM      5  C   UNL     1       5.657   3.420  17.105  0.00  0.00    +0.000 C 
ATOM      6  C   UNL     1       4.273   3.934  16.700  0.00  0.00    +0.000 C 
ATOM      7  N   UNL     1       3.914   5.180  17.401  0.00  0.00    +0.000 N 
ATOM      8  C   UNL     1       2.732   5.206  18.152  0.00  0.00    +0.000 C 
ATOM      9  O   UNL     1       2.010   4.228  18.297  0.00  0.00    +0.000 OA
ATOM     10  C   UNL     1       4.902   6.276  17.271  0.00  0.00    +0.000 C 
ENDROOT
BRANCH   8  11
ATOM     11  C   UNL     1       2.350   6.457  18.882  0.00  0.00    +0.000 A 
ATOM     12  C   UNL     1       2.109   6.497  20.259  0.00  0.00    +0.000 A 
ATOM     13  C   UNL     1       1.549   7.621  20.859  0.00  0.00    +0.000 A 
ATOM     14  C   UNL     1       1.374   8.786  20.150  0.00  0.00    +0.000 A 
ATOM     15  N   UNL     1       0.881   9.848  20.792  0.00  0.00    +0.000 NA
ATOM     16  C   UNL     1       0.791  11.006  20.100  0.00  0.00    +0.000 A 
ATOM     17  C   UNL     1       1.165  11.146  18.783  0.00  0.00    +0.000 A 
ATOM     18  C   UNL     1       1.649  10.027  18.117  0.00  0.00    +0.000 A 
ATOM     19  C   UNL     1       1.763   8.812  18.792  0.00  0.00    +0.000 A 
ATOM     20  C   UNL     1       2.228   7.642  18.155  0.00  0.00    +0.000 A 
ENDBRANCH   8  11
BRANCH  10  21
ATOM     21  C   UNL     1       5.002   6.696  15.813  0.00  0.00    +0.000 C 
ATOM     22  N   UNL     1       5.085   7.043  14.604  0.00  0.00    +0.000 NA
ENDBRANCH  10  21
TORSDOF 2
ENDMDL
MODEL 4
REMARK VINA RESULT:      -6.8      3.501      4.852
REMARK  Name = 
REMARK  4 active torsions:
REMARK  status: ('A' for Active; 'I' for Inactive)
REMARK    1  A    between atoms: C_1  and  C_2
REMARK    2  A    between atoms: C_2  and  C_3
REMARK    3  A    between atoms: C_8  and  C_10
REMARK    4  A    between atoms: C_20  and  C_21
REMARK                            x       y       z     vdW  Elec       q    Type
REMARK                         _______ _______ _______ _____ _____    ______ ____
ROOT
ATOM      1  C   UNL     1       1.485   4.759  19.348  0.00  0.00    +0.000 C 
ATOM      2  C   UNL     1       2.210   3.642  20.139  0.00  0.00    +0.000 C 
ATOM      3  C   UNL     1       2.246   4.097  21.617  0.00  0.00    +0.000 C 
ATOM      4  C   UNL     1       1.432   2.313  20.017  0.00  0.00    +0.000 C 
ATOM      5  C   UNL     1       1.459   1.760  18.589  0.00  0.00    +0.000 C 
ATOM      6  C   UNL     1       2.876   1.691  18.013  0.00  0.00    +0.000 C 
ATOM      7  N   UNL     1       3.609   2.958  18.185  0.00  0.00    +0.000 N 
ATOM      8  C   UNL     1       4.126   3.589  17.046  0.00  0.00    +0.000 C 
ATOM      9  O   UNL     1       3.953   3.165  15.911  0.00  0.00    +0.000 OA
ATOM     10  C   UNL     1       3.667   3.462  19.577  0.00  0.00    +0.000 C 
ENDROOT
BRANCH   8  11
ATOM     11  C   UNL     1       4.865   4.883  17.193  0.00  0.00    +0.000 A 
ATOM     12  C   UNL     1       4.498   6.056  16.525  0.00  0.00    +0.000 A 
ATOM     13  C   UNL     1       5.331   7.171  16.516  0.00  0.00    +0.000 A 
ATOM     14  C   UNL     1       6.458   7.215  17.303  0.00  0.00    +0.000 A 
ATOM     15  N   UNL     1       7.190   8.332  17.294  0.00  0.00    +0.000 NA
ATOM     16  C   UNL     1       8.249   8.387  18.133  0.00  0.00    +0.000 A 
ATOM     17  C   UNL     1       8.615   7.364  18.978  0.00  0.00    +0.000 A 
ATOM     18  C   UNL     1       7.863   6.197  18.958  0.00  0.00    +0.000 A 
ATOM     19  C   UNL     1       6.760   6.095  18.110  0.00  0.00    +0.000 A 
ATOM     20  C   UNL     1       5.977   4.924  18.036  0.00  0.00    +0.000 A 
ENDBRANCH   8  11
BRANCH  10  21
ATOM     21  C   UNL     1       4.440   2.476  20.439  0.00  0.00    +0.000 C 
ATOM     22  N   UNL     1       5.080   1.658  21.153  0.00  0.00    +0.000 NA
ENDBRANCH  10  21
TORSDOF 2
ENDMDL
MODEL 5
REMARK VINA RESULT:      -6.7      3.312      5.280
REMARK  Name = 
REMARK  4 active torsions:
REMARK  status: ('A' for Active; 'I' for Inactive)
REMARK    1  A    between atoms: C_1  and  C_2
REMARK    2  A    between atoms: C_2  and  C_3
REMARK    3  A    between atoms: C_8  and  C_10
REMARK    4  A    between atoms: C_20  and  C_21
REMARK                            x       y       z     vdW  Elec       q    Type
REMARK                         _______ _______ _______ _____ _____    ______ ____
ROOT
ATOM      1  C   UNL     1       2.521   6.337  18.300  0.00  0.00    +0.000 C 
ATOM      2  C   UNL     1       2.488   5.047  19.157  0.00  0.00    +0.000 C 
ATOM      3  C   UNL     1       2.161   5.485  20.603  0.00  0.00    +0.000 C 
ATOM      4  C   UNL     1       1.393   4.090  18.636  0.00  0.00    +0.000 C 
ATOM      5  C   UNL     1       1.724   3.540  17.245  0.00  0.00    +0.000 C 
ATOM      6  C   UNL     1       3.135   2.950  17.168  0.00  0.00    +0.000 C 
ATOM      7  N   UNL     1       4.152   3.867  17.714  0.00  0.00    +0.000 N 
ATOM      8  C   UNL     1       5.219   4.246  16.889  0.00  0.00    +0.000 C 
ATOM      9  O   UNL     1       5.318   3.894  15.721  0.00  0.00    +0.000 OA
ATOM     10  C   UNL     1       3.891   4.340  19.093  0.00  0.00    +0.000 C 
ENDROOT
BRANCH   8  11
ATOM     11  C   UNL     1       6.260   5.186  17.416  0.00  0.00    +0.000 A 
ATOM     12  C   UNL     1       7.278   4.789  18.289  0.00  0.00    +0.000 A 
ATOM     13  C   UNL     1       8.088   5.725  18.924  0.00  0.00    +0.000 A 
ATOM     14  C   UNL     1       8.026   7.057  18.584  0.00  0.00    +0.000 A 
ATOM     15  N   UNL     1       8.863   7.902  19.190  0.00  0.00    +0.000 NA
ATOM     16  C   UNL     1       8.843   9.192  18.786  0.00  0.00    +0.000 A 
ATOM     17  C   UNL     1       8.009   9.678  17.806  0.00  0.00    +0.000 A 
ATOM     18  C   UNL     1       7.121   8.796  17.204  0.00  0.00    +0.000 A 
ATOM     19  C   UNL     1       7.109   7.455  17.586  0.00  0.00    +0.000 A 
ATOM     20  C   UNL     1       6.213   6.523  17.021  0.00  0.00    +0.000 A 
ENDBRANCH   8  11
BRANCH  10  21
ATOM     21  C   UNL     1       3.921   3.156  20.047  0.00  0.00    +0.000 C 
ATOM     22  N   UNL     1       3.945   2.174  20.837  0.00  0.00    +0.000 NA
ENDBRANCH  10  21
TORSDOF 2
ENDMDL
MODEL 6
REMARK VINA RESULT:      -6.6      2.006      2.829
REMARK  Name = 
REMARK  4 active torsions:
REMARK  status: ('A' for Active; 'I' for Inactive)
REMARK    1  A    between atoms: C_1  and  C_2
REMARK    2  A    between atoms: C_2  and  C_3
REMARK    3  A    between atoms: C_8  and  C_10
REMARK    4  A    between atoms: C_20  and  C_21
REMARK                            x       y       z     vdW  Elec       q    Type
REMARK                         _______ _______ _______ _____ _____    ______ ____
ROOT
ATOM      1  C   UNL     1       2.336   3.871  17.923  0.00  0.00    +0.000 C 
ATOM      2  C   UNL     1       3.842   3.874  18.286  0.00  0.00    +0.000 C 
ATOM      3  C   UNL     1       4.026   2.837  19.418  0.00  0.00    +0.000 C 
ATOM      4  C   UNL     1       4.686   3.467  17.058  0.00  0.00    +0.000 C 
ATOM      5  C   UNL     1       4.626   4.517  15.945  0.00  0.00    +0.000 C 
ATOM      6  C   UNL     1       4.932   5.928  16.453  0.00  0.00    +0.000 C 
ATOM      7  N   UNL     1       4.146   6.271  17.652  0.00  0.00    +0.000 N 
ATOM      8  C   UNL     1       3.335   7.414  17.614  0.00  0.00    +0.000 C 
ATOM      9  O   UNL     1       3.210   8.111  16.616  0.00  0.00    +0.000 OA
ATOM     10  C   UNL     1       4.262   5.309  18.772  0.00  0.00    +0.000 C 
ENDROOT
BRANCH   8  11
ATOM     11  C   UNL     1       2.518   7.777  18.816  0.00  0.00    +0.000 A 
ATOM     12  C   UNL     1       2.355   6.930  19.916  0.00  0.00    +0.000 A 
ATOM     13  C   UNL     1       1.420   7.209  20.908  0.00  0.00    +0.000 A 
ATOM     14  C   UNL     1       0.749   8.410  20.926  0.00  0.00    +0.000 A 
ATOM     15  N   UNL     1      -0.098   8.644  21.932  0.00  0.00    +0.000 NA
ATOM     16  C   UNL     1      -0.688   9.860  21.976  0.00  0.00    +0.000 A 
ATOM     17  C   UNL     1      -0.474  10.853  21.048  0.00  0.00    +0.000 A 
ATOM     18  C   UNL     1       0.386  10.587  19.991  0.00  0.00    +0.000 A 
ATOM     19  C   UNL     1       1.020   9.348  19.905  0.00  0.00    +0.000 A 
ATOM     20  C   UNL     1       1.886   9.021  18.840  0.00  0.00    +0.000 A 
ENDBRANCH   8  11
BRANCH  10  21
ATOM     21  C   UNL     1       5.698   5.289  19.273  0.00  0.00    +0.000 C 
ATOM     22  N   UNL     1       6.888   5.274  19.689  0.00  0.00    +0.000 NA
ENDBRANCH  10  21
TORSDOF 2
ENDMDL
MODEL 7
REMARK VINA RESULT:      -6.6      3.087      5.979
REMARK  Name = 
REMARK  4 active torsions:
REMARK  status: ('A' for Active; 'I' for Inactive)
REMARK    1  A    between atoms: C_1  and  C_2
REMARK    2  A    between atoms: C_2  and  C_3
REMARK    3  A    between atoms: C_8  and  C_10
REMARK    4  A    between atoms: C_20  and  C_21
REMARK                            x       y       z     vdW  Elec       q    Type
REMARK                         _______ _______ _______ _____ _____    ______ ____
ROOT
ATOM      1  C   UNL     1       2.060   2.758  17.420  0.00  0.00    +0.000 C 
ATOM      2  C   UNL     1       1.581   3.973  18.254  0.00  0.00    +0.000 C 
ATOM      3  C   UNL     1       0.713   4.842  17.314  0.00  0.00    +0.000 C 
ATOM      4  C   UNL     1       0.737   3.494  19.456  0.00  0.00    +0.000 C 
ATOM      5  C   UNL     1       1.576   2.718  20.475  0.00  0.00    +0.000 C 
ATOM      6  C   UNL     1       2.845   3.471  20.884  0.00  0.00    +0.000 C 
ATOM      7  N   UNL     1       3.606   3.956  19.718  0.00  0.00    +0.000 N 
ATOM      8  C   UNL     1       4.943   3.561  19.584  0.00  0.00    +0.000 C 
ATOM      9  O   UNL     1       5.494   2.792  20.360  0.00  0.00    +0.000 OA
ATOM     10  C   UNL     1       2.829   4.782  18.765  0.00  0.00    +0.000 C 
ENDROOT
BRANCH   8  11
ATOM     11  C   UNL     1       5.734   4.031  18.402  0.00  0.00    +0.000 A 
ATOM     12  C   UNL     1       6.791   4.941  18.500  0.00  0.00    +0.000 A 
ATOM     13  C   UNL     1       7.354   5.517  17.365  0.00  0.00    +0.000 A 
ATOM     14  C   UNL     1       7.007   5.082  16.108  0.00  0.00    +0.000 A 
ATOM     15  N   UNL     1       7.618   5.634  15.057  0.00  0.00    +0.000 NA
ATOM     16  C   UNL     1       7.322   5.138  13.835  0.00  0.00    +0.000 A 
ATOM     17  C   UNL     1       6.428   4.116  13.615  0.00  0.00    +0.000 A 
ATOM     18  C   UNL     1       5.775   3.570  14.713  0.00  0.00    +0.000 A 
ATOM     19  C   UNL     1       6.052   4.047  15.994  0.00  0.00    +0.000 A 
ATOM     20  C   UNL     1       5.401   3.540  17.139  0.00  0.00    +0.000 A 
ENDBRANCH   8  11
BRANCH  10  21
ATOM     21  C   UNL     1       2.374   6.058  19.458  0.00  0.00    +0.000 C 
ATOM     22  N   UNL     1       1.997   7.114  20.032  0.00  0.00    +0.000 NA
ENDBRANCH  10  21
TORSDOF 2
ENDMDL
MODEL 8
REMARK VINA RESULT:      -6.3      3.951      8.681
REMARK  Name = 
REMARK  4 active torsions:
REMARK  status: ('A' for Active; 'I' for Inactive)
REMARK    1  A    between atoms: C_1  and  C_2
REMARK    2  A    between atoms: C_2  and  C_3
REMARK    3  A    between atoms: C_8  and  C_10
REMARK    4  A    between atoms: C_20  and  C_21
REMARK                            x       y       z     vdW  Elec       q    Type
REMARK                         _______ _______ _______ _____ _____    ______ ____
ROOT
ATOM      1  C   UNL     1       2.856  13.634  18.213  0.00  0.00    +0.000 C 
ATOM      2  C   UNL     1       2.461  14.379  19.512  0.00  0.00    +0.000 C 
ATOM      3  C   UNL     1       3.745  14.487  20.369  0.00  0.00    +0.000 C 
ATOM      4  C   UNL     1       1.934  15.792  19.176  0.00  0.00    +0.000 C 
ATOM      5  C   UNL     1       0.603  15.744  18.419  0.00  0.00    +0.000 C 
ATOM      6  C   UNL     1      -0.434  14.856  19.113  0.00  0.00    +0.000 C 
ATOM      7  N   UNL     1       0.111  13.532  19.463  0.00  0.00    +0.000 N 
ATOM      8  C   UNL     1      -0.538  12.392  18.971  0.00  0.00    +0.000 C 
ATOM      9  O   UNL     1      -1.506  12.445  18.224  0.00  0.00    +0.000 OA
ATOM     10  C   UNL     1       1.353  13.561  20.270  0.00  0.00    +0.000 C 
ENDROOT
BRANCH   8  11
ATOM     11  C   UNL     1       0.003  11.035  19.304  0.00  0.00    +0.000 A 
ATOM     12  C   UNL     1      -0.271  10.375  20.506  0.00  0.00    +0.000 A 
ATOM     13  C   UNL     1       0.420   9.223  20.868  0.00  0.00    +0.000 A 
ATOM     14  C   UNL     1       1.269   8.602  19.981  0.00  0.00    +0.000 A 
ATOM     15  N   UNL     1       1.865   7.470  20.366  0.00  0.00    +0.000 NA
ATOM     16  C   UNL     1       2.633   6.833  19.454  0.00  0.00    +0.000 A 
ATOM     17  C   UNL     1       2.841   7.286  18.172  0.00  0.00    +0.000 A 
ATOM     18  C   UNL     1       2.241   8.480  17.793  0.00  0.00    +0.000 A 
ATOM     19  C   UNL     1       1.436   9.171  18.699  0.00  0.00    +0.000 A 
ATOM     20  C   UNL     1       0.822  10.397  18.371  0.00  0.00    +0.000 A 
ENDBRANCH   8  11
BRANCH  10  21
ATOM     21  C   UNL     1       1.063  14.202  21.619  0.00  0.00    +0.000 C 
ATOM     22  N   UNL     1       0.822  14.733  22.736  0.00  0.00    +0.000 NA
ENDBRANCH  10  21
TORSDOF 2
ENDMDL
MODEL 9
REMARK VINA RESULT:      -6.2      6.370      8.956
REMARK  Name = 
REMARK  4 active torsions:
REMARK  status: ('A' for Active; 'I' for Inactive)
REMARK    1  A    between atoms: C_1  and  C_2
REMARK    2  A    between atoms: C_2  and  C_3
REMARK    3  A    between atoms: C_8  and  C_10
REMARK    4  A    between atoms: C_20  and  C_21
REMARK                            x       y       z     vdW  Elec       q    Type
REMARK                         _______ _______ _______ _____ _____    ______ ____
ROOT
ATOM      1  C   UNL     1       1.313  11.055  19.073  0.00  0.00    +0.000 C 
ATOM      2  C   UNL     1      -0.217  11.010  19.309  0.00  0.00    +0.000 C 
ATOM      3  C   UNL     1      -0.853  10.496  17.996  0.00  0.00    +0.000 C 
ATOM      4  C   UNL     1      -0.547  10.043  20.468  0.00  0.00    +0.000 C 
ATOM      5  C   UNL     1      -0.033  10.561  21.814  0.00  0.00    +0.000 C 
ATOM      6  C   UNL     1      -0.458  12.006  22.087  0.00  0.00    +0.000 C 
ATOM      7  N   UNL     1      -0.172  12.896  20.947  0.00  0.00    +0.000 N 
ATOM      8  C   UNL     1       0.633  14.022  21.165  0.00  0.00    +0.000 C 
ATOM      9  O   UNL     1       1.152  14.273  22.245  0.00  0.00    +0.000 OA
ATOM     10  C   UNL     1      -0.738  12.453  19.652  0.00  0.00    +0.000 C 
ENDROOT
BRANCH   8  11
ATOM     11  C   UNL     1       0.948  14.935  20.021  0.00  0.00    +0.000 A 
ATOM     12  C   UNL     1       2.209  15.006  19.421  0.00  0.00    +0.000 A 
ATOM     13  C   UNL     1       2.520  16.014  18.513  0.00  0.00    +0.000 A 
ATOM     14  C   UNL     1       1.547  16.868  18.049  0.00  0.00    +0.000 A 
ATOM     15  N   UNL     1       1.892  17.783  17.139  0.00  0.00    +0.000 NA
ATOM     16  C   UNL     1       0.908  18.560  16.635  0.00  0.00    +0.000 A 
ATOM     17  C   UNL     1      -0.412  18.470  17.011  0.00  0.00    +0.000 A 
ATOM     18  C   UNL     1      -0.755  17.535  17.980  0.00  0.00    +0.000 A 
ATOM     19  C   UNL     1       0.227  16.708  18.526  0.00  0.00    +0.000 A 
ATOM     20  C   UNL     1      -0.065  15.759  19.527  0.00  0.00    +0.000 A 
ENDBRANCH   8  11
BRANCH  10  21
ATOM     21  C   UNL     1      -2.256  12.452  19.739  0.00  0.00    +0.000 C 
ATOM     22  N   UNL     1      -3.514  12.451  19.812  0.00  0.00    +0.000 NA
ENDBRANCH  10  21
TORSDOF 2
ENDMDL
