MODEL 1
REMARK VINA RESULT:      -8.7      0.000      0.000
REMARK  Name = 
REMARK  4 active torsions:
REMARK  status: ('A' for Active; 'I' for Inactive)
REMARK    1  A    between atoms: C_4  and  N_5
REMARK    2  A    between atoms: N_5  and  C_6
REMARK    3  A    between atoms: C_14  and  C_15
REMARK    4  A    between atoms: C_21  and  C_22
REMARK                            x       y       z     vdW  Elec       q    Type
REMARK                         _______ _______ _______ _____ _____    ______ ____
ROOT
ATOM      1  O   UNL     1       7.853   4.128  17.911  0.00  0.00    +0.000 OA
ATOM      2  C   UNL     1       7.260   5.199  17.854  0.00  0.00    +0.000 A 
ATOM      3  C   UNL     1       7.917   6.477  17.466  0.00  0.00    +0.000 A 
ATOM      4  C   UNL     1       7.227   7.638  17.429  0.00  0.00    +0.000 A 
ATOM      5  N   UNL     1       5.868   7.628  17.693  0.00  0.00    +0.000 N 
ATOM      6  C   UNL     1       5.206   6.520  18.115  0.00  0.00    +0.000 A 
ATOM      7  C   UNL     1       3.922   6.253  18.537  0.00  0.00    +0.000 A 
ATOM      8  C   UNL     1       3.929   4.836  18.828  0.00  0.00    +0.000 A 
ATOM      9  N   UNL     1       5.136   4.296  18.585  0.00  0.00    +0.000 NA
ATOM     10  N   UNL     1       5.901   5.332  18.177  0.00  0.00    +0.000 N 
ATOM     11  H   UNL     1       5.402   8.529  17.639  0.00  0.00    +0.000 HD
ENDROOT
BRANCH   7  12
ATOM     12  C   UNL     1       2.858   7.246  18.653  0.00  0.00    +0.000 A 
ATOM     13  C   UNL     1       2.181   7.421  19.868  0.00  0.00    +0.000 A 
ATOM     14  C   UNL     1       1.336   8.516  20.064  0.00  0.00    +0.000 A 
ATOM     15  C   UNL     1       1.091   9.400  19.018  0.00  0.00    +0.000 A 
ATOM     16  C   UNL     1       1.683   9.186  17.775  0.00  0.00    +0.000 A 
ATOM     17  C   UNL     1       2.575   8.124  17.597  0.00  0.00    +0.000 A 
ENDBRANCH   7  12
BRANCH   8  18
ATOM     18  C   UNL     1       2.822   3.979  19.283  0.00  0.00    +0.000 A 
ATOM     19  C   UNL     1       1.985   3.359  18.344  0.00  0.00    +0.000 A 
ATOM     20  C   UNL     1       0.834   2.677  18.752  0.00  0.00    +0.000 A 
ATOM     21  C   UNL     1       0.501   2.615  20.104  0.00  0.00    +0.000 A 
ATOM     22  C   UNL     1       1.352   3.177  21.051  0.00  0.00    +0.000 A 
ATOM     23  C   UNL     1       2.525   3.818  20.644  0.00  0.00    +0.000 A 
ENDBRANCH   8  18
BRANCH   4  24
ATOM     24  N   UNL     1       7.851   8.823  17.100  0.00  0.00    +0.000 N 
ATOM     25  H   UNL     1       7.494   9.267  16.261  0.00  0.00    +0.000 HD
BRANCH  24  26
ATOM     26  C   UNL     1       8.383   9.774  18.007  0.00  0.00    +0.000 A 
ATOM     27  C   UNL     1       8.985   9.420  19.222  0.00  0.00    +0.000 A 
ATOM     28  C   UNL     1       9.573  10.383  20.046  0.00  0.00    +0.000 A 
ATOM     29  C   UNL     1       9.570  11.720  19.664  0.00  0.00    +0.000 A 
ATOM     30  C   UNL     1       8.968  12.095  18.467  0.00  0.00    +0.000 A 
ATOM     31  C   UNL     1       8.381  11.128  17.643  0.00  0.00    +0.000 A 
ENDBRANCH  24  26
ENDBRANCH   4  24
TORSDOF 4
ENDMDL
MODEL 2
REMARK VINA RESULT:      -8.1      0.261      1.291
REMARK  Name = 
REMARK  4 active torsions:
REMARK  status: ('A' for Active; 'I' for Inactive)
REMARK    1  A    between atoms: C_4  and  N_5
REMARK    2  A    between atoms: N_5  and  C_6
REMARK    3  A    between atoms: C_14  and  C_15
REMARK    4  A    between atoms: C_21  and  C_22
REMARK                            x       y       z     vdW  Elec       q    Type
REMARK                         _______ _______ _______ _____ _____    ______ ____
ROOT
ATOM      1  O   UNL     1       7.608   4.181  17.815  0.00  0.00    +0.000 OA
ATOM      2  C   UNL     1       7.088   5.291  17.793  0.00  0.00    +0.000 A 
ATOM      3  C   UNL     1       7.828   6.532  17.432  0.00  0.00    +0.000 A 
ATOM      4  C   UNL     1       7.218   7.737  17.432  0.00  0.00    +0.000 A 
ATOM      5  N   UNL     1       5.864   7.812  17.710  0.00  0.00    +0.000 N 
ATOM      6  C   UNL     1       5.132   6.740  18.109  0.00  0.00    +0.000 A 
ATOM      7  C   UNL     1       3.836   6.550  18.537  0.00  0.00    +0.000 A 
ATOM      8  C   UNL     1       3.749   5.128  18.791  0.00  0.00    +0.000 A 
ATOM      9  N   UNL     1       4.915   4.514  18.521  0.00  0.00    +0.000 NA
ATOM     10  N   UNL     1       5.745   5.507  18.133  0.00  0.00    +0.000 N 
ATOM     11  H   UNL     1       5.460   8.744  17.684  0.00  0.00    +0.000 HD
ENDROOT
BRANCH   7  12
ATOM     12  C   UNL     1       2.843   7.609  18.690  0.00  0.00    +0.000 A 
ATOM     13  C   UNL     1       2.454   8.381  17.587  0.00  0.00    +0.000 A 
ATOM     14  C   UNL     1       1.344   9.227  17.663  0.00  0.00    +0.000 A 
ATOM     15  C   UNL     1       0.664   9.375  18.868  0.00  0.00    +0.000 A 
ATOM     16  C   UNL     1       1.098   8.686  19.998  0.00  0.00    +0.000 A 
ATOM     17  C   UNL     1       2.171   7.794  19.907  0.00  0.00    +0.000 A 
ENDBRANCH   7  12
BRANCH   8  18
ATOM     18  C   UNL     1       2.590   4.337  19.234  0.00  0.00    +0.000 A 
ATOM     19  C   UNL     1       2.320   4.198  20.603  0.00  0.00    +0.000 A 
ATOM     20  C   UNL     1       1.326   3.321  21.050  0.00  0.00    +0.000 A 
ATOM     21  C   UNL     1       0.597   2.566  20.134  0.00  0.00    +0.000 A 
ATOM     22  C   UNL     1       0.815   2.736  18.770  0.00  0.00    +0.000 A 
ATOM     23  C   UNL     1       1.776   3.646  18.324  0.00  0.00    +0.000 A 
ENDBRANCH   8  18
BRANCH   4  24
ATOM     24  N   UNL     1       7.919   8.886  17.128  0.00  0.00    +0.000 N 
ATOM     25  H   UNL     1       7.652   9.321  16.252  0.00  0.00    +0.000 HD
BRANCH  24  26
ATOM     26  C   UNL     1       8.415   9.838  18.053  0.00  0.00    +0.000 A 
ATOM     27  C   UNL     1       8.988   9.485  19.282  0.00  0.00    +0.000 A 
ATOM     28  C   UNL     1       9.543  10.451  20.126  0.00  0.00    +0.000 A 
ATOM     29  C   UNL     1       9.536  11.789  19.750  0.00  0.00    +0.000 A 
ATOM     30  C   UNL     1       8.962  12.164  18.538  0.00  0.00    +0.000 A 
ATOM     31  C   UNL     1       8.408  11.194  17.694  0.00  0.00    +0.000 A 
ENDBRANCH  24  26
ENDBRANCH   4  24
TORSDOF 4
ENDMDL
MODEL 3
REMARK VINA RESULT:      -8.1      3.901      7.128
REMARK  Name = 
REMARK  4 active torsions:
REMARK  status: ('A' for Active; 'I' for Inactive)
REMARK    1  A    between atoms: C_4  and  N_5
REMARK    2  A    between atoms: N_5  and  C_6
REMARK    3  A    between atoms: C_14  and  C_15
REMARK    4  A    between atoms: C_21  and  C_22
REMARK                            x       y       z     vdW  Elec       q    Type
REMARK                         _______ _______ _______ _____ _____    ______ ____
ROOT
ATOM      1  O   UNL     1       2.661  10.750  17.544  0.00  0.00    +0.000 OA
ATOM      2  C   UNL     1       2.140   9.934  18.296  0.00  0.00    +0.000 A 
ATOM      3  C   UNL     1       1.125  10.300  19.322  0.00  0.00    +0.000 A 
ATOM      4  C   UNL     1       0.585   9.369  20.138  0.00  0.00    +0.000 A 
ATOM      5  N   UNL     1       0.934   8.039  19.974  0.00  0.00    +0.000 N 
ATOM      6  C   UNL     1       1.896   7.630  19.108  0.00  0.00    +0.000 A 
ATOM      7  C   UNL     1       2.501   6.425  18.821  0.00  0.00    +0.000 A 
ATOM      8  C   UNL     1       3.443   6.741  17.769  0.00  0.00    +0.000 A 
ATOM      9  N   UNL     1       3.393   8.046  17.447  0.00  0.00    +0.000 NA
ATOM     10  N   UNL     1       2.470   8.571  18.282  0.00  0.00    +0.000 N 
ATOM     11  H   UNL     1       0.487   7.385  20.610  0.00  0.00    +0.000 HD
ENDROOT
BRANCH   7  12
ATOM     12  C   UNL     1       2.208   5.163  19.492  0.00  0.00    +0.000 A 
ATOM     13  C   UNL     1       2.641   4.942  20.807  0.00  0.00    +0.000 A 
ATOM     14  C   UNL     1       2.169   3.850  21.541  0.00  0.00    +0.000 A 
ATOM     15  C   UNL     1       1.328   2.920  20.938  0.00  0.00    +0.000 A 
ATOM     16  C   UNL     1       0.965   3.075  19.602  0.00  0.00    +0.000 A 
ATOM     17  C   UNL     1       1.389   4.199  18.887  0.00  0.00    +0.000 A 
ENDBRANCH   7  12
BRANCH   8  18
ATOM     18  C   UNL     1       4.349   5.840  17.038  0.00  0.00    +0.000 A 
ATOM     19  C   UNL     1       5.092   6.324  15.952  0.00  0.00    +0.000 A 
ATOM     20  C   UNL     1       5.830   5.453  15.145  0.00  0.00    +0.000 A 
ATOM     21  C   UNL     1       5.827   4.085  15.408  0.00  0.00    +0.000 A 
ATOM     22  C   UNL     1       5.140   3.596  16.516  0.00  0.00    +0.000 A 
ATOM     23  C   UNL     1       4.441   4.475  17.348  0.00  0.00    +0.000 A 
ENDBRANCH   8  18
BRANCH   4  24
ATOM     24  N   UNL     1      -0.330   9.721  21.108  0.00  0.00    +0.000 N 
ATOM     25  H   UNL     1      -0.263   9.182  21.965  0.00  0.00    +0.000 HD
BRANCH  24  26
ATOM     26  C   UNL     1      -0.843  11.020  21.348  0.00  0.00    +0.000 A 
ATOM     27  C   UNL     1      -1.535  11.762  20.381  0.00  0.00    +0.000 A 
ATOM     28  C   UNL     1      -2.099  13.003  20.687  0.00  0.00    +0.000 A 
ATOM     29  C   UNL     1      -1.981  13.523  21.971  0.00  0.00    +0.000 A 
ATOM     30  C   UNL     1      -1.289  12.808  22.945  0.00  0.00    +0.000 A 
ATOM     31  C   UNL     1      -0.726  11.564  22.636  0.00  0.00    +0.000 A 
ENDBRANCH  24  26
ENDBRANCH   4  24
TORSDOF 4
ENDMDL
MODEL 4
REMARK VINA RESULT:      -8.0      2.917      6.751
REMARK  Name = 
REMARK  4 active torsions:
REMARK  status: ('A' for Active; 'I' for Inactive)
REMARK    1  A    between atoms: C_4  and  N_5
REMARK    2  A    between atoms: N_5  and  C_6
REMARK    3  A    between atoms: C_14  and  C_15
REMARK    4  A    between atoms: C_21  and  C_22
REMARK                            x       y       z     vdW  Elec       q    Type
REMARK                         _______ _______ _______ _____ _____    ______ ____
ROOT
ATOM      1  O   UNL     1       1.170   3.662  17.318  0.00  0.00    +0.000 OA
ATOM      2  C   UNL     1       1.922   4.438  17.898  0.00  0.00    +0.000 A 
ATOM      3  C   UNL     1       1.557   5.144  19.157  0.00  0.00    +0.000 A 
ATOM      4  C   UNL     1       2.414   6.000  19.755  0.00  0.00    +0.000 A 
ATOM      5  N   UNL     1       3.680   6.174  19.223  0.00  0.00    +0.000 N 
ATOM      6  C   UNL     1       4.069   5.619  18.047  0.00  0.00    +0.000 A 
ATOM      7  C   UNL     1       5.194   5.703  17.254  0.00  0.00    +0.000 A 
ATOM      8  C   UNL     1       4.912   4.824  16.140  0.00  0.00    +0.000 A 
ATOM      9  N   UNL     1       3.702   4.249  16.269  0.00  0.00    +0.000 NA
ATOM     10  N   UNL     1       3.199   4.759  17.415  0.00  0.00    +0.000 N 
ATOM     11  H   UNL     1       4.282   6.822  19.723  0.00  0.00    +0.000 HD
ENDROOT
BRANCH   7  12
ATOM     12  C   UNL     1       6.358   6.535  17.541  0.00  0.00    +0.000 A 
ATOM     13  C   UNL     1       6.442   7.838  17.031  0.00  0.00    +0.000 A 
ATOM     14  C   UNL     1       7.422   8.723  17.487  0.00  0.00    +0.000 A 
ATOM     15  C   UNL     1       8.383   8.287  18.394  0.00  0.00    +0.000 A 
ATOM     16  C   UNL     1       8.370   6.966  18.838  0.00  0.00    +0.000 A 
ATOM     17  C   UNL     1       7.353   6.099  18.427  0.00  0.00    +0.000 A 
ENDBRANCH   7  12
BRANCH   8  18
ATOM     18  C   UNL     1       5.766   4.483  14.991  0.00  0.00    +0.000 A 
ATOM     19  C   UNL     1       7.034   5.068  14.863  0.00  0.00    +0.000 A 
ATOM     20  C   UNL     1       7.792   4.885  13.702  0.00  0.00    +0.000 A 
ATOM     21  C   UNL     1       7.287   4.123  12.651  0.00  0.00    +0.000 A 
ATOM     22  C   UNL     1       6.055   3.489  12.786  0.00  0.00    +0.000 A 
ATOM     23  C   UNL     1       5.321   3.636  13.966  0.00  0.00    +0.000 A 
ENDBRANCH   8  18
BRANCH   4  24
ATOM     24  N   UNL     1       2.055   6.675  20.903  0.00  0.00    +0.000 N 
ATOM     25  H   UNL     1       2.647   6.484  21.704  0.00  0.00    +0.000 HD
BRANCH  24  26
ATOM     26  C   UNL     1       1.483   7.970  20.973  0.00  0.00    +0.000 A 
ATOM     27  C   UNL     1       1.332   8.802  19.857  0.00  0.00    +0.000 A 
ATOM     28  C   UNL     1       0.683  10.036  19.956  0.00  0.00    +0.000 A 
ATOM     29  C   UNL     1       0.173  10.456  21.179  0.00  0.00    +0.000 A 
ATOM     30  C   UNL     1       0.321   9.650  22.304  0.00  0.00    +0.000 A 
ATOM     31  C   UNL     1       0.969   8.414  22.201  0.00  0.00    +0.000 A 
ENDBRANCH  24  26
ENDBRANCH   4  24
TORSDOF 4
ENDMDL
MODEL 5
REMARK VINA RESULT:      -7.7      3.596      7.128
REMARK  Name = 
REMARK  4 active torsions:
REMARK  status: ('A' for Active; 'I' for Inactive)
REMARK    1  A    between atoms: C_4  and  N_5
REMARK    2  A    between atoms: N_5  and  C_6
REMARK    3  A    between atoms: C_14  and  C_15
REMARK    4  A    between atoms: C_21  and  C_22
REMARK                            x       y       z     vdW  Elec       q    Type
REMARK                         _______ _______ _______ _____ _____    ______ ____
ROOT
ATOM      1  O   UNL     1       2.355  10.201  17.413  0.00  0.00    +0.000 OA
ATOM      2  C   UNL     1       2.075   9.402  18.299  0.00  0.00    +0.000 A 
ATOM      3  C   UNL     1       1.120   9.704  19.401  0.00  0.00    +0.000 A 
ATOM      4  C   UNL     1       0.850   8.798  20.365  0.00  0.00    +0.000 A 
ATOM      5  N   UNL     1       1.422   7.539  20.291  0.00  0.00    +0.000 N 
ATOM      6  C   UNL     1       2.350   7.204  19.358  0.00  0.00    +0.000 A 
ATOM      7  C   UNL     1       3.136   6.097  19.119  0.00  0.00    +0.000 A 
ATOM      8  C   UNL     1       3.890   6.445  17.935  0.00  0.00    +0.000 A 
ATOM      9  N   UNL     1       3.565   7.673  17.494  0.00  0.00    +0.000 NA
ATOM     10  N   UNL     1       2.650   8.125  18.380  0.00  0.00    +0.000 N 
ATOM     11  H   UNL     1       1.173   6.898  21.039  0.00  0.00    +0.000 HD
ENDROOT
BRANCH   7  12
ATOM     12  C   UNL     1       3.154   4.892  19.943  0.00  0.00    +0.000 A 
ATOM     13  C   UNL     1       2.225   4.727  20.980  0.00  0.00    +0.000 A 
ATOM     14  C   UNL     1       2.074   3.492  21.615  0.00  0.00    +0.000 A 
ATOM     15  C   UNL     1       2.911   2.432  21.279  0.00  0.00    +0.000 A 
ATOM     16  C   UNL     1       3.903   2.608  20.317  0.00  0.00    +0.000 A 
ATOM     17  C   UNL     1       4.014   3.827  19.640  0.00  0.00    +0.000 A 
ENDBRANCH   7  12
BRANCH   8  18
ATOM     18  C   UNL     1       4.868   5.635  17.190  0.00  0.00    +0.000 A 
ATOM     19  C   UNL     1       6.241   5.860  17.365  0.00  0.00    +0.000 A 
ATOM     20  C   UNL     1       7.180   5.217  16.551  0.00  0.00    +0.000 A 
ATOM     21  C   UNL     1       6.756   4.350  15.547  0.00  0.00    +0.000 A 
ATOM     22  C   UNL     1       5.400   4.073  15.399  0.00  0.00    +0.000 A 
ATOM     23  C   UNL     1       4.468   4.680  16.244  0.00  0.00    +0.000 A 
ENDBRANCH   8  18
BRANCH   4  24
ATOM     24  N   UNL     1      -0.011   9.099  21.400  0.00  0.00    +0.000 N 
ATOM     25  H   UNL     1       0.200   8.626  22.272  0.00  0.00    +0.000 HD
BRANCH  24  26
ATOM     26  C   UNL     1      -0.658  10.340  21.623  0.00  0.00    +0.000 A 
ATOM     27  C   UNL     1      -0.813  10.905  22.895  0.00  0.00    +0.000 A 
ATOM     28  C   UNL     1      -1.379  12.172  23.061  0.00  0.00    +0.000 A 
ATOM     29  C   UNL     1      -1.800  12.895  21.950  0.00  0.00    +0.000 A 
ATOM     30  C   UNL     1      -1.666  12.349  20.678  0.00  0.00    +0.000 A 
ATOM     31  C   UNL     1      -1.096  11.081  20.515  0.00  0.00    +0.000 A 
ENDBRANCH  24  26
ENDBRANCH   4  24
TORSDOF 4
ENDMDL
MODEL 6
REMARK VINA RESULT:      -7.7      3.551      7.167
REMARK  Name = 
REMARK  4 active torsions:
REMARK  status: ('A' for Active; 'I' for Inactive)
REMARK    1  A    between atoms: C_4  and  N_5
REMARK    2  A    between atoms: N_5  and  C_6
REMARK    3  A    between atoms: C_14  and  C_15
REMARK    4  A    between atoms: C_21  and  C_22
REMARK                            x       y       z     vdW  Elec       q    Type
REMARK                         _______ _______ _______ _____ _____    ______ ____
ROOT
ATOM      1  O   UNL     1       2.354  10.433  17.366  0.00  0.00    +0.000 OA
ATOM      2  C   UNL     1       2.052   9.621  18.234  0.00  0.00    +0.000 A 
ATOM      3  C   UNL     1       1.068   9.907  19.314  0.00  0.00    +0.000 A 
ATOM      4  C   UNL     1       0.775   8.987  20.258  0.00  0.00    +0.000 A 
ATOM      5  N   UNL     1       1.350   7.730  20.182  0.00  0.00    +0.000 N 
ATOM      6  C   UNL     1       2.302   7.409  19.269  0.00  0.00    +0.000 A 
ATOM      7  C   UNL     1       3.096   6.307  19.035  0.00  0.00    +0.000 A 
ATOM      8  C   UNL     1       3.880   6.671  17.875  0.00  0.00    +0.000 A 
ATOM      9  N   UNL     1       3.565   7.905  17.444  0.00  0.00    +0.000 NA
ATOM     10  N   UNL     1       2.627   8.344  18.312  0.00  0.00    +0.000 N 
ATOM     11  H   UNL     1       1.082   7.078  20.913  0.00  0.00    +0.000 HD
ENDROOT
BRANCH   7  12
ATOM     12  C   UNL     1       3.094   5.090  19.842  0.00  0.00    +0.000 A 
ATOM     13  C   UNL     1       2.125   4.899  20.836  0.00  0.00    +0.000 A 
ATOM     14  C   UNL     1       1.963   3.653  21.447  0.00  0.00    +0.000 A 
ATOM     15  C   UNL     1       2.826   2.608  21.132  0.00  0.00    +0.000 A 
ATOM     16  C   UNL     1       3.855   2.810  20.215  0.00  0.00    +0.000 A 
ATOM     17  C   UNL     1       3.979   4.039  19.560  0.00  0.00    +0.000 A 
ENDBRANCH   7  12
BRANCH   8  18
ATOM     18  C   UNL     1       4.878   5.873  17.145  0.00  0.00    +0.000 A 
ATOM     19  C   UNL     1       4.462   4.839  16.295  0.00  0.00    +0.000 A 
ATOM     20  C   UNL     1       5.392   3.966  15.721  0.00  0.00    +0.000 A 
ATOM     21  C   UNL     1       6.750   4.111  15.998  0.00  0.00    +0.000 A 
ATOM     22  C   UNL     1       7.183   5.168  16.795  0.00  0.00    +0.000 A 
ATOM     23  C   UNL     1       6.255   6.066  17.329  0.00  0.00    +0.000 A 
ENDBRANCH   8  18
BRANCH   4  24
ATOM     24  N   UNL     1      -0.113   9.273  21.274  0.00  0.00    +0.000 N 
ATOM     25  H   UNL     1       0.044   8.749  22.129  0.00  0.00    +0.000 HD
BRANCH  24  26
ATOM     26  C   UNL     1      -0.718  10.527  21.536  0.00  0.00    +0.000 A 
ATOM     27  C   UNL     1      -1.249  11.346  20.530  0.00  0.00    +0.000 A 
ATOM     28  C   UNL     1      -1.914  12.535  20.841  0.00  0.00    +0.000 A 
ATOM     29  C   UNL     1      -2.059  12.924  22.168  0.00  0.00    +0.000 A 
ATOM     30  C   UNL     1      -1.530  12.132  23.182  0.00  0.00    +0.000 A 
ATOM     31  C   UNL     1      -0.866  10.940  22.868  0.00  0.00    +0.000 A 
ENDBRANCH  24  26
ENDBRANCH   4  24
TORSDOF 4
ENDMDL
MODEL 7
REMARK VINA RESULT:      -7.7      3.782      7.081
REMARK  Name = 
REMARK  4 active torsions:
REMARK  status: ('A' for Active; 'I' for Inactive)
REMARK    1  A    between atoms: C_4  and  N_5
REMARK    2  A    between atoms: N_5  and  C_6
REMARK    3  A    between atoms: C_14  and  C_15
REMARK    4  A    between atoms: C_21  and  C_22
REMARK                            x       y       z     vdW  Elec       q    Type
REMARK                         _______ _______ _______ _____ _____    ______ ____
ROOT
ATOM      1  O   UNL     1       2.844  10.900  17.426  0.00  0.00    +0.000 OA
ATOM      2  C   UNL     1       2.254  10.071  18.110  0.00  0.00    +0.000 A 
ATOM      3  C   UNL     1       1.109  10.409  18.998  0.00  0.00    +0.000 A 
ATOM      4  C   UNL     1       0.496   9.465  19.745  0.00  0.00    +0.000 A 
ATOM      5  N   UNL     1       0.899   8.145  19.632  0.00  0.00    +0.000 N 
ATOM      6  C   UNL     1       1.973   7.761  18.895  0.00  0.00    +0.000 A 
ATOM      7  C   UNL     1       2.642   6.574  18.691  0.00  0.00    +0.000 A 
ATOM      8  C   UNL     1       3.700   6.914  17.765  0.00  0.00    +0.000 A 
ATOM      9  N   UNL     1       3.656   8.217  17.434  0.00  0.00    +0.000 NA
ATOM     10  N   UNL     1       2.620   8.717  18.144  0.00  0.00    +0.000 N 
ATOM     11  H   UNL     1       0.394   7.479  20.209  0.00  0.00    +0.000 HD
ENDROOT
BRANCH   7  12
ATOM     12  C   UNL     1       2.302   5.304  19.326  0.00  0.00    +0.000 A 
ATOM     13  C   UNL     1       2.552   5.104  20.691  0.00  0.00    +0.000 A 
ATOM     14  C   UNL     1       2.020   3.999  21.360  0.00  0.00    +0.000 A 
ATOM     15  C   UNL     1       1.306   3.037  20.654  0.00  0.00    +0.000 A 
ATOM     16  C   UNL     1       1.130   3.173  19.278  0.00  0.00    +0.000 A 
ATOM     17  C   UNL     1       1.611   4.309  18.620  0.00  0.00    +0.000 A 
ENDBRANCH   7  12
BRANCH   8  18
ATOM     18  C   UNL     1       4.715   6.038  17.157  0.00  0.00    +0.000 A 
ATOM     19  C   UNL     1       5.534   5.244  17.972  0.00  0.00    +0.000 A 
ATOM     20  C   UNL     1       6.608   4.531  17.430  0.00  0.00    +0.000 A 
ATOM     21  C   UNL     1       6.882   4.612  16.066  0.00  0.00    +0.000 A 
ATOM     22  C   UNL     1       6.044   5.351  15.235  0.00  0.00    +0.000 A 
ATOM     23  C   UNL     1       4.944   6.024  15.773  0.00  0.00    +0.000 A 
ENDBRANCH   8  18
BRANCH   4  24
ATOM     24  N   UNL     1      -0.543   9.792  20.590  0.00  0.00    +0.000 N 
ATOM     25  H   UNL     1      -0.724   9.109  21.317  0.00  0.00    +0.000 HD
BRANCH  24  26
ATOM     26  C   UNL     1      -0.917  11.097  20.996  0.00  0.00    +0.000 A 
ATOM     27  C   UNL     1      -0.489  11.678  22.198  0.00  0.00    +0.000 A 
ATOM     28  C   UNL     1      -0.811  12.999  22.519  0.00  0.00    +0.000 A 
ATOM     29  C   UNL     1      -1.569  13.763  21.638  0.00  0.00    +0.000 A 
ATOM     30  C   UNL     1      -2.013  13.204  20.444  0.00  0.00    +0.000 A 
ATOM     31  C   UNL     1      -1.687  11.881  20.124  0.00  0.00    +0.000 A 
ENDBRANCH  24  26
ENDBRANCH   4  24
TORSDOF 4
ENDMDL
MODEL 8
REMARK VINA RESULT:      -7.5      3.985      5.723
REMARK  Name = 
REMARK  4 active torsions:
REMARK  status: ('A' for Active; 'I' for Inactive)
REMARK    1  A    between atoms: C_4  and  N_5
REMARK    2  A    between atoms: N_5  and  C_6
REMARK    3  A    between atoms: C_14  and  C_15
REMARK    4  A    between atoms: C_21  and  C_22
REMARK                            x       y       z     vdW  Elec       q    Type
REMARK                         _______ _______ _______ _____ _____    ______ ____
ROOT
ATOM      1  O   UNL     1      -0.083   9.560  21.420  0.00  0.00    +0.000 OA
ATOM      2  C   UNL     1       0.672   9.511  20.456  0.00  0.00    +0.000 A 
ATOM      3  C   UNL     1       0.999  10.694  19.613  0.00  0.00    +0.000 A 
ATOM      4  C   UNL     1       1.827  10.592  18.551  0.00  0.00    +0.000 A 
ATOM      5  N   UNL     1       2.436   9.378  18.280  0.00  0.00    +0.000 N 
ATOM      6  C   UNL     1       2.145   8.238  18.959  0.00  0.00    +0.000 A 
ATOM      7  C   UNL     1       2.507   6.914  18.841  0.00  0.00    +0.000 A 
ATOM      8  C   UNL     1       1.811   6.256  19.926  0.00  0.00    +0.000 A 
ATOM      9  N   UNL     1       1.090   7.135  20.645  0.00  0.00    +0.000 NA
ATOM     10  N   UNL     1       1.286   8.323  20.032  0.00  0.00    +0.000 N 
ATOM     11  H   UNL     1       3.056   9.366  17.476  0.00  0.00    +0.000 HD
ENDROOT
BRANCH   7  12
ATOM     12  C   UNL     1       3.388   6.377  17.808  0.00  0.00    +0.000 A 
ATOM     13  C   UNL     1       4.342   7.200  17.193  0.00  0.00    +0.000 A 
ATOM     14  C   UNL     1       5.342   6.653  16.385  0.00  0.00    +0.000 A 
ATOM     15  C   UNL     1       5.347   5.288  16.114  0.00  0.00    +0.000 A 
ATOM     16  C   UNL     1       4.350   4.472  16.642  0.00  0.00    +0.000 A 
ATOM     17  C   UNL     1       3.384   5.010  17.499  0.00  0.00    +0.000 A 
ENDBRANCH   7  12
BRANCH   8  18
ATOM     18  C   UNL     1       1.845   4.839  20.322  0.00  0.00    +0.000 A 
ATOM     19  C   UNL     1       1.095   3.894  19.607  0.00  0.00    +0.000 A 
ATOM     20  C   UNL     1       0.984   2.576  20.063  0.00  0.00    +0.000 A 
ATOM     21  C   UNL     1       1.614   2.190  21.244  0.00  0.00    +0.000 A 
ATOM     22  C   UNL     1       2.408   3.102  21.933  0.00  0.00    +0.000 A 
ATOM     23  C   UNL     1       2.555   4.405  21.451  0.00  0.00    +0.000 A 
ENDBRANCH   8  18
BRANCH   4  24
ATOM     24  N   UNL     1       2.098  11.685  17.755  0.00  0.00    +0.000 N 
ATOM     25  H   UNL     1       1.794  11.589  16.792  0.00  0.00    +0.000 HD
BRANCH  24  26
ATOM     26  C   UNL     1       2.111  13.041  18.166  0.00  0.00    +0.000 A 
ATOM     27  C   UNL     1       3.280  13.812  18.226  0.00  0.00    +0.000 A 
ATOM     28  C   UNL     1       3.235  15.170  18.553  0.00  0.00    +0.000 A 
ATOM     29  C   UNL     1       2.016  15.780  18.824  0.00  0.00    +0.000 A 
ATOM     30  C   UNL     1       0.844  15.031  18.781  0.00  0.00    +0.000 A 
ATOM     31  C   UNL     1       0.891  13.672  18.451  0.00  0.00    +0.000 A 
ENDBRANCH  24  26
ENDBRANCH   4  24
TORSDOF 4
ENDMDL
MODEL 9
REMARK VINA RESULT:      -7.4      3.924      6.981
REMARK  Name = 
REMARK  4 active torsions:
REMARK  status: ('A' for Active; 'I' for Inactive)
REMARK    1  A    between atoms: C_4  and  N_5
REMARK    2  A    between atoms: N_5  and  C_6
REMARK    3  A    between atoms: C_14  and  C_15
REMARK    4  A    between atoms: C_21  and  C_22
REMARK                            x       y       z     vdW  Elec       q    Type
REMARK                         _______ _______ _______ _____ _____    ______ ____
ROOT
ATOM      1  O   UNL     1       2.551  10.752  17.640  0.00  0.00    +0.000 OA
ATOM      2  C   UNL     1       2.021   9.977  18.428  0.00  0.00    +0.000 A 
ATOM      3  C   UNL     1       1.031  10.406  19.455  0.00  0.00    +0.000 A 
ATOM      4  C   UNL     1       0.481   9.520  20.313  0.00  0.00    +0.000 A 
ATOM      5  N   UNL     1       0.793   8.177  20.192  0.00  0.00    +0.000 N 
ATOM      6  C   UNL     1       1.731   7.711  19.328  0.00  0.00    +0.000 A 
ATOM      7  C   UNL     1       2.300   6.482  19.076  0.00  0.00    +0.000 A 
ATOM      8  C   UNL     1       3.234   6.734  18.000  0.00  0.00    +0.000 A 
ATOM      9  N   UNL     1       3.213   8.028  17.632  0.00  0.00    +0.000 NA
ATOM     10  N   UNL     1       2.316   8.606  18.460  0.00  0.00    +0.000 N 
ATOM     11  H   UNL     1       0.339   7.558  20.858  0.00  0.00    +0.000 HD
ENDROOT
BRANCH   7  12
ATOM     12  C   UNL     1       1.985   5.252  19.798  0.00  0.00    +0.000 A 
ATOM     13  C   UNL     1       1.214   4.252  19.191  0.00  0.00    +0.000 A 
ATOM     14  C   UNL     1       1.106   2.984  19.768  0.00  0.00    +0.000 A 
ATOM     15  C   UNL     1       1.696   2.730  21.002  0.00  0.00    +0.000 A 
ATOM     16  C   UNL     1       2.387   3.743  21.663  0.00  0.00    +0.000 A 
ATOM     17  C   UNL     1       2.545   4.994  21.057  0.00  0.00    +0.000 A 
ENDBRANCH   7  12
BRANCH   8  18
ATOM     18  C   UNL     1       4.105   5.784  17.290  0.00  0.00    +0.000 A 
ATOM     19  C   UNL     1       4.996   6.248  16.312  0.00  0.00    +0.000 A 
ATOM     20  C   UNL     1       5.712   5.350  15.513  0.00  0.00    +0.000 A 
ATOM     21  C   UNL     1       5.538   3.978  15.676  0.00  0.00    +0.000 A 
ATOM     22  C   UNL     1       4.700   3.502  16.681  0.00  0.00    +0.000 A 
ATOM     23  C   UNL     1       4.022   4.401  17.508  0.00  0.00    +0.000 A 
ENDBRANCH   8  18
BRANCH   4  24
ATOM     24  N   UNL     1      -0.410   9.931  21.282  0.00  0.00    +0.000 N 
ATOM     25  H   UNL     1      -0.581   9.248  22.012  0.00  0.00    +0.000 HD
BRANCH  24  26
ATOM     26  C   UNL     1      -0.587  11.256  21.754  0.00  0.00    +0.000 A 
ATOM     27  C   UNL     1      -1.513  11.597  22.750  0.00  0.00    +0.000 A 
ATOM     28  C   UNL     1      -1.594  12.900  23.247  0.00  0.00    +0.000 A 
ATOM     29  C   UNL     1      -0.746  13.886  22.755  0.00  0.00    +0.000 A 
ATOM     30  C   UNL     1       0.174  13.572  21.759  0.00  0.00    +0.000 A 
ATOM     31  C   UNL     1       0.254  12.265  21.264  0.00  0.00    +0.000 A 
ENDBRANCH  24  26
ENDBRANCH   4  24
TORSDOF 4
ENDMDL
