MODEL 1
REMARK VINA RESULT:      -6.6      0.000      0.000
REMARK  Name = 
REMARK  6 active torsions:
REMARK  status: ('A' for Active; 'I' for Inactive)
REMARK    1  A    between atoms: C_1  and  C_2
REMARK    2  A    between atoms: C_5  and  C_6
REMARK    3  A    between atoms: C_7  and  C_8
REMARK    4  A    between atoms: C_8  and  C_10
REMARK    5  A    between atoms: C_13  and  N_14
REMARK    6  A    between atoms: C_16  and  O_17
REMARK                            x       y       z     vdW  Elec       q    Type
REMARK                         _______ _______ _______ _____ _____    ______ ____
ROOT
ATOM      1  C   UNL     1       4.915   4.506  17.802  0.00  0.00    +0.000 A 
ATOM      2  C   UNL     1       4.554   4.351  16.457  0.00  0.00    +0.000 A 
ATOM      3  C   UNL     1       5.483   4.607  15.439  0.00  0.00    +0.000 A 
ATOM      4  C   UNL     1       6.774   5.050  15.740  0.00  0.00    +0.000 A 
ATOM      5  C   UNL     1       7.154   5.136  17.080  0.00  0.00    +0.000 A 
ATOM      6  C   UNL     1       6.234   4.882  18.102  0.00  0.00    +0.000 A 
ENDROOT
BRANCH   4   7
ATOM      7  N   UNL     1       7.738   5.167  14.735  0.00  0.00    +0.000 N 
ATOM      8  H   UNL     1       8.667   5.401  15.071  0.00  0.00    +0.000 HD
ATOM      9  H   UNL     1       7.752   4.400  14.069  0.00  0.00    +0.000 HD
ENDBRANCH   4   7
BRANCH   1  10
ATOM     10  C   UNL     1       3.889   4.214  18.848  0.00  0.00    +0.000 C 
ATOM     11  O   UNL     1       3.649   3.059  19.189  0.00  0.00    +0.000 OA
BRANCH  10  13
ATOM     12  C   UNL     1       3.063   6.541  18.749  0.00  0.00    +0.000 C 
ATOM     13  C   UNL     1       3.136   5.371  19.399  0.00  0.00    +0.000 C 
BRANCH  12  18
ATOM     14  C   UNL     1       0.148  10.949  19.028  0.00  0.00    +0.000 C 
ATOM     15  C   UNL     1       0.857   9.680  19.353  0.00  0.00    +0.000 A 
ATOM     16  C   UNL     1       0.894   9.011  20.554  0.00  0.00    +0.000 A 
ATOM     17  C   UNL     1       1.680   7.825  20.481  0.00  0.00    +0.000 A 
ATOM     18  C   UNL     1       2.237   7.605  19.229  0.00  0.00    +0.000 A 
ATOM     19  S   UNL     1       1.768   8.870  18.154  0.00  0.00    +0.000 S 
ENDBRANCH  12  18
ENDBRANCH  10  13
ENDBRANCH   1  10
BRANCH   6  20
ATOM     20  O   UNL     1       6.660   4.973  19.400  0.00  0.00    +0.000 OA
ATOM     21  H   UNL     1       6.017   4.543  19.987  0.00  0.00    +0.000 HD
ENDBRANCH   6  20
TORSDOF 5
ENDMDL
MODEL 2
REMARK VINA RESULT:      -6.6      4.768      6.027
REMARK  Name = 
REMARK  6 active torsions:
REMARK  status: ('A' for Active; 'I' for Inactive)
REMARK    1  A    between atoms: C_1  and  C_2
REMARK    2  A    between atoms: C_5  and  C_6
REMARK    3  A    between atoms: C_7  and  C_8
REMARK    4  A    between atoms: C_8  and  C_10
REMARK    5  A    between atoms: C_13  and  N_14
REMARK    6  A    between atoms: C_16  and  O_17
REMARK                            x       y       z     vdW  Elec       q    Type
REMARK                         _______ _______ _______ _____ _____    ______ ____
ROOT
ATOM      1  C   UNL     1       5.823   6.188  17.666  0.00  0.00    +0.000 A 
ATOM      2  C   UNL     1       4.700   7.015  17.536  0.00  0.00    +0.000 A 
ATOM      3  C   UNL     1       3.454   6.602  18.025  0.00  0.00    +0.000 A 
ATOM      4  C   UNL     1       3.297   5.348  18.623  0.00  0.00    +0.000 A 
ATOM      5  C   UNL     1       4.430   4.555  18.815  0.00  0.00    +0.000 A 
ATOM      6  C   UNL     1       5.677   4.960  18.330  0.00  0.00    +0.000 A 
ENDROOT
BRANCH   4   7
ATOM      7  N   UNL     1       2.091   4.997  19.235  0.00  0.00    +0.000 N 
ATOM      8  H   UNL     1       2.147   4.178  19.833  0.00  0.00    +0.000 HD
ATOM      9  H   UNL     1       1.602   5.767  19.682  0.00  0.00    +0.000 HD
ENDBRANCH   4   7
BRANCH   1  10
ATOM     10  C   UNL     1       7.130   6.680  17.133  0.00  0.00    +0.000 C 
ATOM     11  O   UNL     1       7.595   6.226  16.091  0.00  0.00    +0.000 OA
BRANCH  10  13
ATOM     12  C   UNL     1       8.030   8.946  17.533  0.00  0.00    +0.000 C 
ATOM     13  C   UNL     1       7.861   7.683  17.951  0.00  0.00    +0.000 C 
BRANCH  12  18
ATOM     14  C   UNL     1       9.841  13.530  19.459  0.00  0.00    +0.000 C 
ATOM     15  C   UNL     1       9.473  12.098  19.285  0.00  0.00    +0.000 A 
ATOM     16  C   UNL     1       9.663  11.058  20.166  0.00  0.00    +0.000 A 
ATOM     17  C   UNL     1       9.178   9.823  19.648  0.00  0.00    +0.000 A 
ATOM     18  C   UNL     1       8.628   9.932  18.379  0.00  0.00    +0.000 A 
ATOM     19  S   UNL     1       8.710  11.572  17.848  0.00  0.00    +0.000 S 
ENDBRANCH  12  18
ENDBRANCH  10  13
ENDBRANCH   1  10
BRANCH   6  20
ATOM     20  O   UNL     1       6.757   4.149  18.552  0.00  0.00    +0.000 OA
ATOM     21  H   UNL     1       6.598   3.597  19.336  0.00  0.00    +0.000 HD
ENDBRANCH   6  20
TORSDOF 5
ENDMDL
MODEL 3
REMARK VINA RESULT:      -6.5      4.374      7.594
REMARK  Name = 
REMARK  6 active torsions:
REMARK  status: ('A' for Active; 'I' for Inactive)
REMARK    1  A    between atoms: C_1  and  C_2
REMARK    2  A    between atoms: C_5  and  C_6
REMARK    3  A    between atoms: C_7  and  C_8
REMARK    4  A    between atoms: C_8  and  C_10
REMARK    5  A    between atoms: C_13  and  N_14
REMARK    6  A    between atoms: C_16  and  O_17
REMARK                            x       y       z     vdW  Elec       q    Type
REMARK                         _______ _______ _______ _____ _____    ______ ____
ROOT
ATOM      1  C   UNL     1       1.162   9.264  19.604  0.00  0.00    +0.000 A 
ATOM      2  C   UNL     1       1.459   8.396  20.663  0.00  0.00    +0.000 A 
ATOM      3  C   UNL     1       0.848   8.566  21.912  0.00  0.00    +0.000 A 
ATOM      4  C   UNL     1      -0.044   9.619  22.138  0.00  0.00    +0.000 A 
ATOM      5  C   UNL     1      -0.391  10.440  21.065  0.00  0.00    +0.000 A 
ATOM      6  C   UNL     1       0.214  10.277  19.815  0.00  0.00    +0.000 A 
ENDROOT
BRANCH   4   7
ATOM      7  N   UNL     1      -0.758   9.702  23.337  0.00  0.00    +0.000 N 
ATOM      8  H   UNL     1      -0.445  10.440  23.960  0.00  0.00    +0.000 HD
ATOM      9  H   UNL     1      -1.768   9.690  23.231  0.00  0.00    +0.000 HD
ENDBRANCH   4   7
BRANCH   1  10
ATOM     10  C   UNL     1       1.837   9.035  18.291  0.00  0.00    +0.000 C 
ATOM     11  O   UNL     1       2.051   9.969  17.522  0.00  0.00    +0.000 OA
BRANCH  10  13
ATOM     12  C   UNL     1       3.443   7.217  17.822  0.00  0.00    +0.000 C 
ATOM     13  C   UNL     1       2.173   7.632  17.938  0.00  0.00    +0.000 C 
BRANCH  12  18
ATOM     14  C   UNL     1       3.391   1.928  18.002  0.00  0.00    +0.000 C 
ATOM     15  C   UNL     1       3.720   3.345  17.683  0.00  0.00    +0.000 A 
ATOM     16  C   UNL     1       4.689   3.822  16.831  0.00  0.00    +0.000 A 
ATOM     17  C   UNL     1       4.706   5.246  16.783  0.00  0.00    +0.000 A 
ATOM     18  C   UNL     1       3.755   5.839  17.601  0.00  0.00    +0.000 A 
ATOM     19  S   UNL     1       2.843   4.619  18.412  0.00  0.00    +0.000 S 
ENDBRANCH  12  18
ENDBRANCH  10  13
ENDBRANCH   1  10
BRANCH   6  20
ATOM     20  O   UNL     1      -0.169  11.104  18.793  0.00  0.00    +0.000 OA
ATOM     21  H   UNL     1       0.607  11.567  18.436  0.00  0.00    +0.000 HD
ENDBRANCH   6  20
TORSDOF 5
ENDMDL
MODEL 4
REMARK VINA RESULT:      -6.5      1.762      2.108
REMARK  Name = 
REMARK  6 active torsions:
REMARK  status: ('A' for Active; 'I' for Inactive)
REMARK    1  A    between atoms: C_1  and  C_2
REMARK    2  A    between atoms: C_5  and  C_6
REMARK    3  A    between atoms: C_7  and  C_8
REMARK    4  A    between atoms: C_8  and  C_10
REMARK    5  A    between atoms: C_13  and  N_14
REMARK    6  A    between atoms: C_16  and  O_17
REMARK                            x       y       z     vdW  Elec       q    Type
REMARK                         _______ _______ _______ _____ _____    ______ ____
ROOT
ATOM      1  C   UNL     1       4.412   5.591  18.428  0.00  0.00    +0.000 A 
ATOM      2  C   UNL     1       4.426   6.567  17.423  0.00  0.00    +0.000 A 
ATOM      3  C   UNL     1       5.437   6.574  16.454  0.00  0.00    +0.000 A 
ATOM      4  C   UNL     1       6.468   5.629  16.485  0.00  0.00    +0.000 A 
ATOM      5  C   UNL     1       6.414   4.616  17.443  0.00  0.00    +0.000 A 
ATOM      6  C   UNL     1       5.408   4.602  18.414  0.00  0.00    +0.000 A 
ENDROOT
BRANCH   4   7
ATOM      7  N   UNL     1       7.392   5.550  15.440  0.00  0.00    +0.000 N 
ATOM      8  H   UNL     1       8.247   5.055  15.673  0.00  0.00    +0.000 HD
ATOM      9  H   UNL     1       7.003   5.248  14.551  0.00  0.00    +0.000 HD
ENDBRANCH   4   7
BRANCH   1  10
ATOM     10  C   UNL     1       3.307   5.625  19.433  0.00  0.00    +0.000 C 
ATOM     11  O   UNL     1       3.087   4.660  20.160  0.00  0.00    +0.000 OA
BRANCH  10  13
ATOM     12  C   UNL     1       1.969   7.336  20.612  0.00  0.00    +0.000 C 
ATOM     13  C   UNL     1       2.457   6.844  19.464  0.00  0.00    +0.000 C 
BRANCH  12  18
ATOM     14  C   UNL     1      -0.689  11.600  22.272  0.00  0.00    +0.000 C 
ATOM     15  C   UNL     1       0.009  10.586  21.432  0.00  0.00    +0.000 A 
ATOM     16  C   UNL     1       0.208  10.601  20.071  0.00  0.00    +0.000 A 
ATOM     17  C   UNL     1       0.921   9.453  19.623  0.00  0.00    +0.000 A 
ATOM     18  C   UNL     1       1.254   8.574  20.643  0.00  0.00    +0.000 A 
ATOM     19  S   UNL     1       0.685   9.191  22.151  0.00  0.00    +0.000 S 
ENDBRANCH  12  18
ENDBRANCH  10  13
ENDBRANCH   1  10
BRANCH   6  20
ATOM     20  O   UNL     1       5.397   3.581  19.326  0.00  0.00    +0.000 OA
ATOM     21  H   UNL     1       5.212   2.740  18.875  0.00  0.00    +0.000 HD
ENDBRANCH   6  20
TORSDOF 5
ENDMDL
MODEL 5
REMARK VINA RESULT:      -6.5      1.123      1.357
REMARK  Name = 
REMARK  6 active torsions:
REMARK  status: ('A' for Active; 'I' for Inactive)
REMARK    1  A    between atoms: C_1  and  C_2
REMARK    2  A    between atoms: C_5  and  C_6
REMARK    3  A    between atoms: C_7  and  C_8
REMARK    4  A    between atoms: C_8  and  C_10
REMARK    5  A    between atoms: C_13  and  N_14
REMARK    6  A    between atoms: C_16  and  O_17
REMARK                            x       y       z     vdW  Elec       q    Type
REMARK                         _______ _______ _______ _____ _____    ______ ____
ROOT
ATOM      1  C   UNL     1       4.465   5.352  18.181  0.00  0.00    +0.000 A 
ATOM      2  C   UNL     1       4.342   6.251  17.114  0.00  0.00    +0.000 A 
ATOM      3  C   UNL     1       5.337   6.326  16.131  0.00  0.00    +0.000 A 
ATOM      4  C   UNL     1       6.485   5.533  16.209  0.00  0.00    +0.000 A 
ATOM      5  C   UNL     1       6.575   4.590  17.234  0.00  0.00    +0.000 A 
ATOM      6  C   UNL     1       5.586   4.508  18.218  0.00  0.00    +0.000 A 
ENDROOT
BRANCH   4   7
ATOM      7  N   UNL     1       7.405   5.507  15.158  0.00  0.00    +0.000 N 
ATOM      8  H   UNL     1       8.377   5.497  15.451  0.00  0.00    +0.000 HD
ATOM      9  H   UNL     1       7.213   4.812  14.442  0.00  0.00    +0.000 HD
ENDBRANCH   4   7
BRANCH   1  10
ATOM     10  C   UNL     1       3.373   5.308  19.199  0.00  0.00    +0.000 C 
ATOM     11  O   UNL     1       3.260   4.350  19.960  0.00  0.00    +0.000 OA
BRANCH  10  13
ATOM     12  C   UNL     1       2.199   7.189  20.290  0.00  0.00    +0.000 C 
ATOM     13  C   UNL     1       2.402   6.433  19.201  0.00  0.00    +0.000 C 
BRANCH  12  18
ATOM     14  C   UNL     1      -0.311  11.558  18.675  0.00  0.00    +0.000 C 
ATOM     15  C   UNL     1       0.167  10.396  19.475  0.00  0.00    +0.000 A 
ATOM     16  C   UNL     1      -0.208  10.027  20.746  0.00  0.00    +0.000 A 
ATOM     17  C   UNL     1       0.468   8.852  21.183  0.00  0.00    +0.000 A 
ATOM     18  C   UNL     1       1.354   8.341  20.245  0.00  0.00    +0.000 A 
ATOM     19  S   UNL     1       1.327   9.322  18.826  0.00  0.00    +0.000 S 
ENDBRANCH  12  18
ENDBRANCH  10  13
ENDBRANCH   1  10
BRANCH   6  20
ATOM     20  O   UNL     1       5.718   3.559  19.197  0.00  0.00    +0.000 OA
ATOM     21  H   UNL     1       5.607   2.674  18.813  0.00  0.00    +0.000 HD
ENDBRANCH   6  20
TORSDOF 5
ENDMDL
MODEL 6
REMARK VINA RESULT:      -6.4      0.922      1.199
REMARK  Name = 
REMARK  6 active torsions:
REMARK  status: ('A' for Active; 'I' for Inactive)
REMARK    1  A    between atoms: C_1  and  C_2
REMARK    2  A    between atoms: C_5  and  C_6
REMARK    3  A    between atoms: C_7  and  C_8
REMARK    4  A    between atoms: C_8  and  C_10
REMARK    5  A    between atoms: C_13  and  N_14
REMARK    6  A    between atoms: C_16  and  O_17
REMARK                            x       y       z     vdW  Elec       q    Type
REMARK                         _______ _______ _______ _____ _____    ______ ____
ROOT
ATOM      1  C   UNL     1       5.121   4.597  17.490  0.00  0.00    +0.000 A 
ATOM      2  C   UNL     1       4.627   4.576  16.180  0.00  0.00    +0.000 A 
ATOM      3  C   UNL     1       5.491   4.759  15.093  0.00  0.00    +0.000 A 
ATOM      4  C   UNL     1       6.854   4.997  15.291  0.00  0.00    +0.000 A 
ATOM      5  C   UNL     1       7.357   4.948  16.592  0.00  0.00    +0.000 A 
ATOM      6  C   UNL     1       6.501   4.765  17.682  0.00  0.00    +0.000 A 
ENDROOT
BRANCH   4   7
ATOM      7  N   UNL     1       7.735   5.038  14.206  0.00  0.00    +0.000 N 
ATOM      8  H   UNL     1       8.407   4.277  14.184  0.00  0.00    +0.000 HD
ATOM      9  H   UNL     1       7.291   5.185  13.305  0.00  0.00    +0.000 HD
ENDBRANCH   4   7
BRANCH   1  10
ATOM     10  C   UNL     1       4.158   4.390  18.613  0.00  0.00    +0.000 C 
ATOM     11  O   UNL     1       4.037   3.289  19.145  0.00  0.00    +0.000 OA
BRANCH  10  13
ATOM     12  C   UNL     1       3.307   6.689  18.298  0.00  0.00    +0.000 C 
ATOM     13  C   UNL     1       3.315   5.550  19.006  0.00  0.00    +0.000 C 
BRANCH  12  18
ATOM     14  C   UNL     1      -0.002   9.912  20.879  0.00  0.00    +0.000 C 
ATOM     15  C   UNL     1       0.851   9.272  19.839  0.00  0.00    +0.000 A 
ATOM     16  C   UNL     1       1.052   9.674  18.539  0.00  0.00    +0.000 A 
ATOM     17  C   UNL     1       1.941   8.806  17.843  0.00  0.00    +0.000 A 
ATOM     18  C   UNL     1       2.405   7.751  18.615  0.00  0.00    +0.000 A 
ATOM     19  S   UNL     1       1.738   7.857  20.203  0.00  0.00    +0.000 S 
ENDBRANCH  12  18
ENDBRANCH  10  13
ENDBRANCH   1  10
BRANCH   6  20
ATOM     20  O   UNL     1       7.047   4.717  18.937  0.00  0.00    +0.000 OA
ATOM     21  H   UNL     1       7.922   5.139  18.931  0.00  0.00    +0.000 HD
ENDBRANCH   6  20
TORSDOF 5
ENDMDL
MODEL 7
REMARK VINA RESULT:      -6.4      2.898      3.749
REMARK  Name = 
REMARK  6 active torsions:
REMARK  status: ('A' for Active; 'I' for Inactive)
REMARK    1  A    between atoms: C_1  and  C_2
REMARK    2  A    between atoms: C_5  and  C_6
REMARK    3  A    between atoms: C_7  and  C_8
REMARK    4  A    between atoms: C_8  and  C_10
REMARK    5  A    between atoms: C_13  and  N_14
REMARK    6  A    between atoms: C_16  and  O_17
REMARK                            x       y       z     vdW  Elec       q    Type
REMARK                         _______ _______ _______ _____ _____    ______ ____
ROOT
ATOM      1  C   UNL     1       3.117   5.391  18.182  0.00  0.00    +0.000 A 
ATOM      2  C   UNL     1       1.872   4.911  17.754  0.00  0.00    +0.000 A 
ATOM      3  C   UNL     1       1.524   3.568  17.948  0.00  0.00    +0.000 A 
ATOM      4  C   UNL     1       2.419   2.673  18.543  0.00  0.00    +0.000 A 
ATOM      5  C   UNL     1       3.629   3.167  19.031  0.00  0.00    +0.000 A 
ATOM      6  C   UNL     1       3.984   4.505  18.841  0.00  0.00    +0.000 A 
ENDROOT
BRANCH   4   7
ATOM      7  N   UNL     1       2.017   1.374  18.864  0.00  0.00    +0.000 N 
ATOM      8  H   UNL     1       2.513   0.645  18.358  0.00  0.00    +0.000 HD
ATOM      9  H   UNL     1       1.960   1.180  19.859  0.00  0.00    +0.000 HD
ENDBRANCH   4   7
BRANCH   1  10
ATOM     10  C   UNL     1       3.436   6.833  17.956  0.00  0.00    +0.000 C 
ATOM     11  O   UNL     1       4.499   7.169  17.439  0.00  0.00    +0.000 OA
BRANCH  10  13
ATOM     12  C   UNL     1       1.996   7.821  19.703  0.00  0.00    +0.000 C 
ATOM     13  C   UNL     1       2.447   7.830  18.440  0.00  0.00    +0.000 C 
BRANCH  12  18
ATOM     14  C   UNL     1      -0.835  10.963  22.884  0.00  0.00    +0.000 C 
ATOM     15  C   UNL     1      -0.188  10.339  21.696  0.00  0.00    +0.000 A 
ATOM     16  C   UNL     1      -0.271  10.730  20.380  0.00  0.00    +0.000 A 
ATOM     17  C   UNL     1       0.489   9.884  19.522  0.00  0.00    +0.000 A 
ATOM     18  C   UNL     1       1.138   8.856  20.191  0.00  0.00    +0.000 A 
ATOM     19  S   UNL     1       0.805   8.960  21.880  0.00  0.00    +0.000 S 
ENDBRANCH  12  18
ENDBRANCH  10  13
ENDBRANCH   1  10
BRANCH   6  20
ATOM     20  O   UNL     1       5.180   4.940  19.347  0.00  0.00    +0.000 OA
ATOM     21  H   UNL     1       5.303   5.881  19.138  0.00  0.00    +0.000 HD
ENDBRANCH   6  20
TORSDOF 5
ENDMDL
MODEL 8
REMARK VINA RESULT:      -6.4      2.873      3.798
REMARK  Name = 
REMARK  6 active torsions:
REMARK  status: ('A' for Active; 'I' for Inactive)
REMARK    1  A    between atoms: C_1  and  C_2
REMARK    2  A    between atoms: C_5  and  C_6
REMARK    3  A    between atoms: C_7  and  C_8
REMARK    4  A    between atoms: C_8  and  C_10
REMARK    5  A    between atoms: C_13  and  N_14
REMARK    6  A    between atoms: C_16  and  O_17
REMARK                            x       y       z     vdW  Elec       q    Type
REMARK                         _______ _______ _______ _____ _____    ______ ____
ROOT
ATOM      1  C   UNL     1       2.777   5.666  18.271  0.00  0.00    +0.000 A 
ATOM      2  C   UNL     1       1.692   4.857  18.634  0.00  0.00    +0.000 A 
ATOM      3  C   UNL     1       1.780   3.463  18.528  0.00  0.00    +0.000 A 
ATOM      4  C   UNL     1       2.935   2.851  18.032  0.00  0.00    +0.000 A 
ATOM      5  C   UNL     1       4.039   3.653  17.738  0.00  0.00    +0.000 A 
ATOM      6  C   UNL     1       3.960   5.045  17.840  0.00  0.00    +0.000 A 
ENDROOT
BRANCH   4   7
ATOM      7  N   UNL     1       3.073   1.461  18.061  0.00  0.00    +0.000 N 
ATOM      8  H   UNL     1       3.982   1.124  17.757  0.00  0.00    +0.000 HD
ATOM      9  H   UNL     1       2.771   1.022  18.926  0.00  0.00    +0.000 HD
ENDBRANCH   4   7
BRANCH   1  10
ATOM     10  C   UNL     1       2.633   7.146  18.409  0.00  0.00    +0.000 C 
ATOM     11  O   UNL     1       3.051   7.903  17.537  0.00  0.00    +0.000 OA
BRANCH  10  13
ATOM     12  C   UNL     1       1.497   8.884  19.749  0.00  0.00    +0.000 C 
ATOM     13  C   UNL     1       2.026   7.654  19.667  0.00  0.00    +0.000 C 
BRANCH  12  18
ATOM     14  C   UNL     1      -1.686  11.495  23.074  0.00  0.00    +0.000 C 
ATOM     15  C   UNL     1      -0.700  10.546  22.487  0.00  0.00    +0.000 A 
ATOM     16  C   UNL     1      -0.007   9.541  23.121  0.00  0.00    +0.000 A 
ATOM     17  C   UNL     1       0.852   8.838  22.228  0.00  0.00    +0.000 A 
ATOM     18  C   UNL     1       0.809   9.317  20.926  0.00  0.00    +0.000 A 
ATOM     19  S   UNL     1      -0.308  10.628  20.825  0.00  0.00    +0.000 S 
ENDBRANCH  12  18
ENDBRANCH  10  13
ENDBRANCH   1  10
BRANCH   6  20
ATOM     20  O   UNL     1       5.074   5.784  17.547  0.00  0.00    +0.000 OA
ATOM     21  H   UNL     1       5.399   5.552  16.661  0.00  0.00    +0.000 HD
ENDBRANCH   6  20
TORSDOF 5
ENDMDL
MODEL 9
REMARK VINA RESULT:      -6.4      2.715      3.689
REMARK  Name = 
REMARK  6 active torsions:
REMARK  status: ('A' for Active; 'I' for Inactive)
REMARK    1  A    between atoms: C_1  and  C_2
REMARK    2  A    between atoms: C_5  and  C_6
REMARK    3  A    between atoms: C_7  and  C_8
REMARK    4  A    between atoms: C_8  and  C_10
REMARK    5  A    between atoms: C_13  and  N_14
REMARK    6  A    between atoms: C_16  and  O_17
REMARK                            x       y       z     vdW  Elec       q    Type
REMARK                         _______ _______ _______ _____ _____    ______ ____
ROOT
ATOM      1  C   UNL     1       3.134   5.475  18.033  0.00  0.00    +0.000 A 
ATOM      2  C   UNL     1       1.834   4.977  17.875  0.00  0.00    +0.000 A 
ATOM      3  C   UNL     1       1.578   3.607  18.014  0.00  0.00    +0.000 A 
ATOM      4  C   UNL     1       2.612   2.706  18.282  0.00  0.00    +0.000 A 
ATOM      5  C   UNL     1       3.894   3.211  18.508  0.00  0.00    +0.000 A 
ATOM      6  C   UNL     1       4.158   4.576  18.372  0.00  0.00    +0.000 A 
ENDROOT
BRANCH   4   7
ATOM      7  N   UNL     1       2.334   1.365  18.560  0.00  0.00    +0.000 N 
ATOM      8  H   UNL     1       2.317   1.137  19.550  0.00  0.00    +0.000 HD
ATOM      9  H   UNL     1       1.532   0.986  18.065  0.00  0.00    +0.000 HD
ENDBRANCH   4   7
BRANCH   1  10
ATOM     10  C   UNL     1       3.353   6.945  17.880  0.00  0.00    +0.000 C 
ATOM     11  O   UNL     1       4.299   7.376  17.226  0.00  0.00    +0.000 OA
BRANCH  10  13
ATOM     12  C   UNL     1       1.723   8.801  17.968  0.00  0.00    +0.000 C 
ATOM     13  C   UNL     1       2.420   7.848  18.604  0.00  0.00    +0.000 C 
BRANCH  12  18
ATOM     14  C   UNL     1      -1.000  11.328  21.736  0.00  0.00    +0.000 C 
ATOM     15  C   UNL     1      -0.535  10.778  20.432  0.00  0.00    +0.000 A 
ATOM     16  C   UNL     1      -1.098  10.947  19.189  0.00  0.00    +0.000 A 
ATOM     17  C   UNL     1      -0.367  10.266  18.174  0.00  0.00    +0.000 A 
ATOM     18  C   UNL     1       0.741   9.582  18.653  0.00  0.00    +0.000 A 
ATOM     19  S   UNL     1       0.867   9.803  20.359  0.00  0.00    +0.000 S 
ENDBRANCH  12  18
ENDBRANCH  10  13
ENDBRANCH   1  10
BRANCH   6  20
ATOM     20  O   UNL     1       5.431   5.020  18.613  0.00  0.00    +0.000 OA
ATOM     21  H   UNL     1       5.450   5.991  18.588  0.00  0.00    +0.000 HD
ENDBRANCH   6  20
TORSDOF 5
ENDMDL
