MODEL 1
REMARK VINA RESULT:      -6.6      0.000      0.000
REMARK  Name = 
REMARK  5 active torsions:
REMARK  status: ('A' for Active; 'I' for Inactive)
REMARK    1  A    between atoms: C_1  and  O_2
REMARK    2  A    between atoms: O_2  and  C_3
REMARK    3  A    between atoms: C_3  and  C_4
REMARK    4  A    between atoms: C_4  and  N_5
REMARK    5  A    between atoms: C_14  and  C_16
REMARK                            x       y       z     vdW  Elec       q    Type
REMARK                         _______ _______ _______ _____ _____    ______ ____
ROOT
ATOM      1  N   UNL     1       2.584   5.489  19.672  0.00  0.00    +0.000 N 
ATOM      2  C   UNL     1       2.595   6.877  19.403  0.00  0.00    +0.000 C 
ATOM      3  O   UNL     1       2.146   7.763  20.121  0.00  0.00    +0.000 OA
ATOM      4  C   UNL     1       3.219   7.108  18.028  0.00  0.00    +0.000 C 
ATOM      5  C   UNL     1       3.955   5.796  17.889  0.00  0.00    +0.000 C 
ATOM      6  C   UNL     1       2.946   4.816  18.465  0.00  0.00    +0.000 C 
ATOM      7  C   UNL     1       3.757   3.535  18.349  0.00  0.00    +0.000 C 
ATOM      8  C   UNL     1       4.404   3.713  16.951  0.00  0.00    +0.000 C 
ATOM      9  N   UNL     1       4.363   5.158  16.680  0.00  0.00    +0.000 N 
ATOM     10  C   UNL     1       5.006   5.879  15.696  0.00  0.00    +0.000 C 
ATOM     11  O   UNL     1       4.893   7.108  15.643  0.00  0.00    +0.000 OA
ENDROOT
BRANCH  10  12
ATOM     12  C   UNL     1       5.868   5.192  14.762  0.00  0.00    +0.000 A 
ATOM     13  C   UNL     1       5.643   4.188  13.837  0.00  0.00    +0.000 A 
ATOM     14  C   UNL     1       6.857   3.918  13.167  0.00  0.00    +0.000 A 
ATOM     15  C   UNL     1       7.808   4.759  13.694  0.00  0.00    +0.000 A 
ATOM     16  N   UNL     1       7.199   5.538  14.639  0.00  0.00    +0.000 N 
ATOM     17  H   UNL     1       7.635   6.290  15.163  0.00  0.00    +0.000 HD
ENDBRANCH  10  12
BRANCH   1  18
ATOM     18  C   UNL     1       1.795   4.908  20.754  0.00  0.00    +0.000 C 
BRANCH  18  19
ATOM     19  C   UNL     1       0.802   3.832  20.304  0.00  0.00    +0.000 C 
BRANCH  19  21
ATOM     20  C   UNL     1       2.234   2.615  21.723  0.00  0.00    +0.000 C 
ATOM     21  O   UNL     1       1.235   2.534  20.714  0.00  0.00    +0.000 OA
ENDBRANCH  19  21
ENDBRANCH  18  19
ENDBRANCH   1  18
TORSDOF 4
ENDMDL
MODEL 2
REMARK VINA RESULT:      -6.5      2.885      5.967
REMARK  Name = 
REMARK  5 active torsions:
REMARK  status: ('A' for Active; 'I' for Inactive)
REMARK    1  A    between atoms: C_1  and  O_2
REMARK    2  A    between atoms: O_2  and  C_3
REMARK    3  A    between atoms: C_3  and  C_4
REMARK    4  A    between atoms: C_4  and  N_5
REMARK    5  A    between atoms: C_14  and  C_16
REMARK                            x       y       z     vdW  Elec       q    Type
REMARK                         _______ _______ _______ _____ _____    ______ ____
ROOT
ATOM      1  N   UNL     1       4.010   4.556  18.727  0.00  0.00    +0.000 N 
ATOM      2  C   UNL     1       4.532   5.070  17.517  0.00  0.00    +0.000 C 
ATOM      3  O   UNL     1       5.268   4.483  16.733  0.00  0.00    +0.000 OA
ATOM      4  C   UNL     1       4.069   6.517  17.356  0.00  0.00    +0.000 C 
ATOM      5  C   UNL     1       2.894   6.486  18.305  0.00  0.00    +0.000 C 
ATOM      6  C   UNL     1       3.445   5.651  19.449  0.00  0.00    +0.000 C 
ATOM      7  C   UNL     1       2.212   5.610  20.337  0.00  0.00    +0.000 C 
ATOM      8  C   UNL     1       1.708   7.072  20.222  0.00  0.00    +0.000 C 
ATOM      9  N   UNL     1       2.299   7.594  18.980  0.00  0.00    +0.000 N 
ATOM     10  C   UNL     1       1.997   8.748  18.289  0.00  0.00    +0.000 C 
ATOM     11  O   UNL     1       2.568   9.011  17.225  0.00  0.00    +0.000 OA
ENDROOT
BRANCH  10  12
ATOM     12  C   UNL     1       0.957   9.621  18.785  0.00  0.00    +0.000 A 
ATOM     13  C   UNL     1       0.758  10.249  20.001  0.00  0.00    +0.000 A 
ATOM     14  C   UNL     1      -0.426  11.016  19.918  0.00  0.00    +0.000 A 
ATOM     15  C   UNL     1      -0.935  10.842  18.654  0.00  0.00    +0.000 A 
ATOM     16  N   UNL     1      -0.084  10.018  17.970  0.00  0.00    +0.000 N 
ATOM     17  H   UNL     1      -0.169   9.749  16.994  0.00  0.00    +0.000 HD
ENDBRANCH  10  12
BRANCH   1  18
ATOM     18  C   UNL     1       4.498   3.316  19.325  0.00  0.00    +0.000 C 
BRANCH  18  19
ATOM     19  C   UNL     1       3.445   2.209  19.432  0.00  0.00    +0.000 C 
BRANCH  19  21
ATOM     20  C   UNL     1       1.198   2.329  18.740  0.00  0.00    +0.000 C 
ATOM     21  O   UNL     1       2.553   2.243  18.318  0.00  0.00    +0.000 OA
ENDBRANCH  19  21
ENDBRANCH  18  19
ENDBRANCH   1  18
TORSDOF 4
ENDMDL
MODEL 3
REMARK VINA RESULT:      -6.3      2.894      6.025
REMARK  Name = 
REMARK  5 active torsions:
REMARK  status: ('A' for Active; 'I' for Inactive)
REMARK    1  A    between atoms: C_1  and  O_2
REMARK    2  A    between atoms: O_2  and  C_3
REMARK    3  A    between atoms: C_3  and  C_4
REMARK    4  A    between atoms: C_4  and  N_5
REMARK    5  A    between atoms: C_14  and  C_16
REMARK                            x       y       z     vdW  Elec       q    Type
REMARK                         _______ _______ _______ _____ _____    ______ ____
ROOT
ATOM      1  N   UNL     1       3.874   4.792  18.794  0.00  0.00    +0.000 N 
ATOM      2  C   UNL     1       4.358   5.296  17.565  0.00  0.00    +0.000 C 
ATOM      3  O   UNL     1       5.065   4.701  16.760  0.00  0.00    +0.000 OA
ATOM      4  C   UNL     1       3.897   6.745  17.410  0.00  0.00    +0.000 C 
ATOM      5  C   UNL     1       2.754   6.726  18.398  0.00  0.00    +0.000 C 
ATOM      6  C   UNL     1       3.338   5.894  19.528  0.00  0.00    +0.000 C 
ATOM      7  C   UNL     1       2.135   5.865  20.457  0.00  0.00    +0.000 C 
ATOM      8  C   UNL     1       1.635   7.330  20.348  0.00  0.00    +0.000 C 
ATOM      9  N   UNL     1       2.188   7.841  19.085  0.00  0.00    +0.000 N 
ATOM     10  C   UNL     1       1.869   8.992  18.397  0.00  0.00    +0.000 C 
ATOM     11  O   UNL     1       2.405   9.245  17.314  0.00  0.00    +0.000 OA
ENDROOT
BRANCH  10  12
ATOM     12  C   UNL     1       0.850   9.873  18.921  0.00  0.00    +0.000 A 
ATOM     13  C   UNL     1      -0.460  10.120  18.553  0.00  0.00    +0.000 A 
ATOM     14  C   UNL     1      -1.003  11.069  19.448  0.00  0.00    +0.000 A 
ATOM     15  C   UNL     1      -0.017  11.390  20.348  0.00  0.00    +0.000 A 
ATOM     16  N   UNL     1       1.090  10.649  20.038  0.00  0.00    +0.000 N 
ATOM     17  H   UNL     1       1.961  10.632  20.558  0.00  0.00    +0.000 HD
ENDBRANCH  10  12
BRANCH   1  18
ATOM     18  C   UNL     1       4.376   3.553  19.383  0.00  0.00    +0.000 C 
BRANCH  18  19
ATOM     19  C   UNL     1       3.283   2.558  19.785  0.00  0.00    +0.000 C 
BRANCH  19  21
ATOM     20  C   UNL     1       1.722   2.523  21.547  0.00  0.00    +0.000 C 
ATOM     21  O   UNL     1       3.101   2.544  21.201  0.00  0.00    +0.000 OA
ENDBRANCH  19  21
ENDBRANCH  18  19
ENDBRANCH   1  18
TORSDOF 4
ENDMDL
MODEL 4
REMARK VINA RESULT:      -6.2      0.970      1.077
REMARK  Name = 
REMARK  5 active torsions:
REMARK  status: ('A' for Active; 'I' for Inactive)
REMARK    1  A    between atoms: C_1  and  O_2
REMARK    2  A    between atoms: O_2  and  C_3
REMARK    3  A    between atoms: C_3  and  C_4
REMARK    4  A    between atoms: C_4  and  N_5
REMARK    5  A    between atoms: C_14  and  C_16
REMARK                            x       y       z     vdW  Elec       q    Type
REMARK                         _______ _______ _______ _____ _____    ______ ____
ROOT
ATOM      1  N   UNL     1       1.867   4.618  19.795  0.00  0.00    +0.000 N 
ATOM      2  C   UNL     1       2.153   5.987  20.002  0.00  0.00    +0.000 C 
ATOM      3  O   UNL     1       1.767   6.680  20.936  0.00  0.00    +0.000 OA
ATOM      4  C   UNL     1       2.993   6.498  18.832  0.00  0.00    +0.000 C 
ATOM      5  C   UNL     1       3.505   5.171  18.324  0.00  0.00    +0.000 C 
ATOM      6  C   UNL     1       2.272   4.292  18.464  0.00  0.00    +0.000 C 
ATOM      7  C   UNL     1       2.859   2.971  17.994  0.00  0.00    +0.000 C 
ATOM      8  C   UNL     1       3.716   3.434  16.787  0.00  0.00    +0.000 C 
ATOM      9  N   UNL     1       3.962   4.868  17.007  0.00  0.00    +0.000 N 
ATOM     10  C   UNL     1       4.849   5.708  16.369  0.00  0.00    +0.000 C 
ATOM     11  O   UNL     1       4.958   6.888  16.716  0.00  0.00    +0.000 OA
ENDROOT
BRANCH  10  12
ATOM     12  C   UNL     1       5.703   5.180  15.329  0.00  0.00    +0.000 A 
ATOM     13  C   UNL     1       5.466   4.344  14.252  0.00  0.00    +0.000 A 
ATOM     14  C   UNL     1       6.676   4.183  13.539  0.00  0.00    +0.000 A 
ATOM     15  C   UNL     1       7.634   4.920  14.191  0.00  0.00    +0.000 A 
ATOM     16  N   UNL     1       7.035   5.535  15.256  0.00  0.00    +0.000 N 
ATOM     17  H   UNL     1       7.479   6.188  15.894  0.00  0.00    +0.000 HD
ENDBRANCH  10  12
BRANCH   1  18
ATOM     18  C   UNL     1       0.847   3.908  20.561  0.00  0.00    +0.000 C 
BRANCH  18  19
ATOM     19  C   UNL     1       1.364   2.676  21.311  0.00  0.00    +0.000 C 
BRANCH  19  21
ATOM     20  C   UNL     1       3.661   2.162  21.272  0.00  0.00    +0.000 C 
ATOM     21  O   UNL     1       2.641   2.933  21.895  0.00  0.00    +0.000 OA
ENDBRANCH  19  21
ENDBRANCH  18  19
ENDBRANCH   1  18
TORSDOF 4
ENDMDL
MODEL 5
REMARK VINA RESULT:      -6.2      2.585      6.783
REMARK  Name = 
REMARK  5 active torsions:
REMARK  status: ('A' for Active; 'I' for Inactive)
REMARK    1  A    between atoms: C_1  and  O_2
REMARK    2  A    between atoms: O_2  and  C_3
REMARK    3  A    between atoms: C_3  and  C_4
REMARK    4  A    between atoms: C_4  and  N_5
REMARK    5  A    between atoms: C_14  and  C_16
REMARK                            x       y       z     vdW  Elec       q    Type
REMARK                         _______ _______ _______ _____ _____    ______ ____
ROOT
ATOM      1  N   UNL     1       4.933   4.635  18.094  0.00  0.00    +0.000 N 
ATOM      2  C   UNL     1       4.494   3.950  19.251  0.00  0.00    +0.000 C 
ATOM      3  O   UNL     1       4.932   2.889  19.680  0.00  0.00    +0.000 OA
ATOM      4  C   UNL     1       3.332   4.724  19.870  0.00  0.00    +0.000 C 
ATOM      5  C   UNL     1       3.583   6.067  19.225  0.00  0.00    +0.000 C 
ATOM      6  C   UNL     1       3.978   5.660  17.814  0.00  0.00    +0.000 C 
ATOM      7  C   UNL     1       4.268   7.035  17.236  0.00  0.00    +0.000 C 
ATOM      8  C   UNL     1       3.098   7.864  17.826  0.00  0.00    +0.000 C 
ATOM      9  N   UNL     1       2.634   7.108  19.000  0.00  0.00    +0.000 N 
ATOM     10  C   UNL     1       1.783   7.503  20.010  0.00  0.00    +0.000 C 
ATOM     11  O   UNL     1       1.536   6.746  20.954  0.00  0.00    +0.000 OA
ENDROOT
BRANCH  10  12
ATOM     12  C   UNL     1       1.230   8.838  19.991  0.00  0.00    +0.000 A 
ATOM     13  C   UNL     1       0.735   9.636  18.975  0.00  0.00    +0.000 A 
ATOM     14  C   UNL     1       0.292  10.853  19.540  0.00  0.00    +0.000 A 
ATOM     15  C   UNL     1       0.526  10.783  20.892  0.00  0.00    +0.000 A 
ATOM     16  N   UNL     1       1.072   9.557  21.158  0.00  0.00    +0.000 N 
ATOM     17  H   UNL     1       1.303   9.194  22.078  0.00  0.00    +0.000 HD
ENDBRANCH  10  12
BRANCH   1  18
ATOM     18  C   UNL     1       5.819   4.019  17.109  0.00  0.00    +0.000 C 
BRANCH  18  19
ATOM     19  C   UNL     1       7.236   4.599  17.085  0.00  0.00    +0.000 C 
BRANCH  19  21
ATOM     20  C   UNL     1       6.770   4.734  14.781  0.00  0.00    +0.000 C 
ATOM     21  O   UNL     1       7.475   5.313  15.872  0.00  0.00    +0.000 OA
ENDBRANCH  19  21
ENDBRANCH  18  19
ENDBRANCH   1  18
TORSDOF 4
ENDMDL
MODEL 6
REMARK VINA RESULT:      -6.1      2.864      6.644
REMARK  Name = 
REMARK  5 active torsions:
REMARK  status: ('A' for Active; 'I' for Inactive)
REMARK    1  A    between atoms: C_1  and  O_2
REMARK    2  A    between atoms: O_2  and  C_3
REMARK    3  A    between atoms: C_3  and  C_4
REMARK    4  A    between atoms: C_4  and  N_5
REMARK    5  A    between atoms: C_14  and  C_16
REMARK                            x       y       z     vdW  Elec       q    Type
REMARK                         _______ _______ _______ _____ _____    ______ ____
ROOT
ATOM      1  N   UNL     1       4.852   4.726  18.089  0.00  0.00    +0.000 N 
ATOM      2  C   UNL     1       4.424   4.019  19.236  0.00  0.00    +0.000 C 
ATOM      3  O   UNL     1       4.866   2.950  19.641  0.00  0.00    +0.000 OA
ATOM      4  C   UNL     1       3.267   4.780  19.882  0.00  0.00    +0.000 C 
ATOM      5  C   UNL     1       3.511   6.134  19.260  0.00  0.00    +0.000 C 
ATOM      6  C   UNL     1       3.893   5.756  17.839  0.00  0.00    +0.000 C 
ATOM      7  C   UNL     1       4.177   7.143  17.285  0.00  0.00    +0.000 C 
ATOM      8  C   UNL     1       3.011   7.959  17.902  0.00  0.00    +0.000 C 
ATOM      9  N   UNL     1       2.560   7.180  19.065  0.00  0.00    +0.000 N 
ATOM     10  C   UNL     1       1.718   7.553  20.091  0.00  0.00    +0.000 C 
ATOM     11  O   UNL     1       1.480   6.778  21.022  0.00  0.00    +0.000 OA
ENDROOT
BRANCH  10  12
ATOM     12  C   UNL     1       1.164   8.888  20.103  0.00  0.00    +0.000 A 
ATOM     13  C   UNL     1       0.970   9.817  21.111  0.00  0.00    +0.000 A 
ATOM     14  C   UNL     1       0.410  10.982  20.541  0.00  0.00    +0.000 A 
ATOM     15  C   UNL     1       0.266  10.748  19.195  0.00  0.00    +0.000 A 
ATOM     16  N   UNL     1       0.743   9.492  18.936  0.00  0.00    +0.000 N 
ATOM     17  H   UNL     1       0.816   9.060  18.020  0.00  0.00    +0.000 HD
ENDBRANCH  10  12
BRANCH   1  18
ATOM     18  C   UNL     1       5.728   4.131  17.084  0.00  0.00    +0.000 C 
BRANCH  18  19
ATOM     19  C   UNL     1       7.161   4.671  17.097  0.00  0.00    +0.000 C 
BRANCH  19  21
ATOM     20  C   UNL     1       7.887   5.765  19.051  0.00  0.00    +0.000 C 
ATOM     21  O   UNL     1       7.754   4.514  18.386  0.00  0.00    +0.000 OA
ENDBRANCH  19  21
ENDBRANCH  18  19
ENDBRANCH   1  18
TORSDOF 4
ENDMDL
MODEL 7
REMARK VINA RESULT:      -6.0      3.307      6.537
REMARK  Name = 
REMARK  5 active torsions:
REMARK  status: ('A' for Active; 'I' for Inactive)
REMARK    1  A    between atoms: C_1  and  O_2
REMARK    2  A    between atoms: O_2  and  C_3
REMARK    3  A    between atoms: C_3  and  C_4
REMARK    4  A    between atoms: C_4  and  N_5
REMARK    5  A    between atoms: C_14  and  C_16
REMARK                            x       y       z     vdW  Elec       q    Type
REMARK                         _______ _______ _______ _____ _____    ______ ____
ROOT
ATOM      1  N   UNL     1       3.164   5.220  19.110  0.00  0.00    +0.000 N 
ATOM      2  C   UNL     1       2.517   4.962  20.341  0.00  0.00    +0.000 C 
ATOM      3  O   UNL     1       2.621   3.948  21.021  0.00  0.00    +0.000 OA
ATOM      4  C   UNL     1       1.609   6.144  20.678  0.00  0.00    +0.000 C 
ATOM      5  C   UNL     1       2.251   7.184  19.790  0.00  0.00    +0.000 C 
ATOM      6  C   UNL     1       2.550   6.376  18.537  0.00  0.00    +0.000 C 
ATOM      7  C   UNL     1       3.236   7.451  17.711  0.00  0.00    +0.000 C 
ATOM      8  C   UNL     1       2.337   8.680  18.008  0.00  0.00    +0.000 C 
ATOM      9  N   UNL     1       1.647   8.366  19.268  0.00  0.00    +0.000 N 
ATOM     10  C   UNL     1       0.918   9.196  20.092  0.00  0.00    +0.000 C 
ATOM     11  O   UNL     1       0.440   8.771  21.149  0.00  0.00    +0.000 OA
ENDROOT
BRANCH  10  12
ATOM     12  C   UNL     1       0.771  10.591  19.744  0.00  0.00    +0.000 A 
ATOM     13  C   UNL     1       0.074  11.242  18.742  0.00  0.00    +0.000 A 
ATOM     14  C   UNL     1       0.265  12.634  18.897  0.00  0.00    +0.000 A 
ATOM     15  C   UNL     1       1.078  12.813  19.990  0.00  0.00    +0.000 A 
ATOM     16  N   UNL     1       1.361  11.579  20.508  0.00  0.00    +0.000 N 
ATOM     17  H   UNL     1       1.897  11.394  21.350  0.00  0.00    +0.000 HD
ENDBRANCH  10  12
BRANCH   1  18
ATOM     18  C   UNL     1       3.861   4.179  18.360  0.00  0.00    +0.000 C 
BRANCH  18  19
ATOM     19  C   UNL     1       3.036   3.555  17.230  0.00  0.00    +0.000 C 
BRANCH  19  21
ATOM     20  C   UNL     1       3.490   1.607  18.471  0.00  0.00    +0.000 C 
ATOM     21  O   UNL     1       2.578   2.252  17.592  0.00  0.00    +0.000 OA
ENDBRANCH  19  21
ENDBRANCH  18  19
ENDBRANCH   1  18
TORSDOF 4
ENDMDL
MODEL 8
REMARK VINA RESULT:      -6.0      2.511      6.736
REMARK  Name = 
REMARK  5 active torsions:
REMARK  status: ('A' for Active; 'I' for Inactive)
REMARK    1  A    between atoms: C_1  and  O_2
REMARK    2  A    between atoms: O_2  and  C_3
REMARK    3  A    between atoms: C_3  and  C_4
REMARK    4  A    between atoms: C_4  and  N_5
REMARK    5  A    between atoms: C_14  and  C_16
REMARK                            x       y       z     vdW  Elec       q    Type
REMARK                         _______ _______ _______ _____ _____    ______ ____
ROOT
ATOM      1  N   UNL     1       4.443   4.316  17.338  0.00  0.00    +0.000 N 
ATOM      2  C   UNL     1       3.891   3.349  18.209  0.00  0.00    +0.000 C 
ATOM      3  O   UNL     1       4.159   2.154  18.236  0.00  0.00    +0.000 OA
ATOM      4  C   UNL     1       2.850   4.025  19.100  0.00  0.00    +0.000 C 
ATOM      5  C   UNL     1       3.308   5.456  18.939  0.00  0.00    +0.000 C 
ATOM      6  C   UNL     1       3.656   5.502  17.460  0.00  0.00    +0.000 C 
ATOM      7  C   UNL     1       4.157   6.934  17.372  0.00  0.00    +0.000 C 
ATOM      8  C   UNL     1       3.116   7.673  18.253  0.00  0.00    +0.000 C 
ATOM      9  N   UNL     1       2.529   6.638  19.118  0.00  0.00    +0.000 N 
ATOM     10  C   UNL     1       1.734   6.783  20.234  0.00  0.00    +0.000 C 
ATOM     11  O   UNL     1       1.363   5.794  20.875  0.00  0.00    +0.000 OA
ENDROOT
BRANCH  10  12
ATOM     12  C   UNL     1       1.388   8.110  20.691  0.00  0.00    +0.000 A 
ATOM     13  C   UNL     1       0.753   9.178  20.083  0.00  0.00    +0.000 A 
ATOM     14  C   UNL     1       0.653  10.230  21.021  0.00  0.00    +0.000 A 
ATOM     15  C   UNL     1       1.231   9.792  22.187  0.00  0.00    +0.000 A 
ATOM     16  N   UNL     1       1.652   8.506  21.987  0.00  0.00    +0.000 N 
ATOM     17  H   UNL     1       2.071   7.900  22.686  0.00  0.00    +0.000 HD
ENDBRANCH  10  12
BRANCH   1  18
ATOM     18  C   UNL     1       5.239   3.951  16.169  0.00  0.00    +0.000 C 
BRANCH  18  19
ATOM     19  C   UNL     1       6.698   4.412  16.230  0.00  0.00    +0.000 C 
BRANCH  19  21
ATOM     20  C   UNL     1       7.546   5.677  18.025  0.00  0.00    +0.000 C 
ATOM     21  O   UNL     1       7.189   4.378  17.570  0.00  0.00    +0.000 OA
ENDBRANCH  19  21
ENDBRANCH  18  19
ENDBRANCH   1  18
TORSDOF 4
ENDMDL
MODEL 9
REMARK VINA RESULT:      -6.0      3.465      6.640
REMARK  Name = 
REMARK  5 active torsions:
REMARK  status: ('A' for Active; 'I' for Inactive)
REMARK    1  A    between atoms: C_1  and  O_2
REMARK    2  A    between atoms: O_2  and  C_3
REMARK    3  A    between atoms: C_3  and  C_4
REMARK    4  A    between atoms: C_4  and  N_5
REMARK    5  A    between atoms: C_14  and  C_16
REMARK                            x       y       z     vdW  Elec       q    Type
REMARK                         _______ _______ _______ _____ _____    ______ ____
ROOT
ATOM      1  N   UNL     1       3.078   5.540  19.176  0.00  0.00    +0.000 N 
ATOM      2  C   UNL     1       2.411   5.336  20.406  0.00  0.00    +0.000 C 
ATOM      3  O   UNL     1       2.510   4.357  21.136  0.00  0.00    +0.000 OA
ATOM      4  C   UNL     1       1.489   6.525  20.671  0.00  0.00    +0.000 C 
ATOM      5  C   UNL     1       2.139   7.526  19.745  0.00  0.00    +0.000 C 
ATOM      6  C   UNL     1       2.466   6.662  18.538  0.00  0.00    +0.000 C 
ATOM      7  C   UNL     1       3.159   7.703  17.674  0.00  0.00    +0.000 C 
ATOM      8  C   UNL     1       2.246   8.937  17.895  0.00  0.00    +0.000 C 
ATOM      9  N   UNL     1       1.535   8.677  19.157  0.00  0.00    +0.000 N 
ATOM     10  C   UNL     1       0.786   9.540  19.928  0.00  0.00    +0.000 C 
ATOM     11  O   UNL     1       0.292   9.162  20.995  0.00  0.00    +0.000 OA
ENDROOT
BRANCH  10  12
ATOM     12  C   UNL     1       0.635  10.916  19.511  0.00  0.00    +0.000 A 
ATOM     13  C   UNL     1       1.411  12.046  19.700  0.00  0.00    +0.000 A 
ATOM     14  C   UNL     1       0.790  13.129  19.037  0.00  0.00    +0.000 A 
ATOM     15  C   UNL     1      -0.357  12.646  18.455  0.00  0.00    +0.000 A 
ATOM     16  N   UNL     1      -0.431  11.307  18.727  0.00  0.00    +0.000 N 
ATOM     17  H   UNL     1      -1.142  10.668  18.385  0.00  0.00    +0.000 HD
ENDBRANCH  10  12
BRANCH   1  18
ATOM     18  C   UNL     1       3.796   4.470  18.489  0.00  0.00    +0.000 C 
BRANCH  18  19
ATOM     19  C   UNL     1       3.127   3.990  17.197  0.00  0.00    +0.000 C 
BRANCH  19  21
ATOM     20  C   UNL     1       2.086   2.170  18.269  0.00  0.00    +0.000 C 
ATOM     21  O   UNL     1       1.889   3.335  17.476  0.00  0.00    +0.000 OA
ENDBRANCH  19  21
ENDBRANCH  18  19
ENDBRANCH   1  18
TORSDOF 4
ENDMDL
