MODEL 1
REMARK VINA RESULT:      -8.8      0.000      0.000
REMARK  Name = 
REMARK  4 active torsions:
REMARK  status: ('A' for Active; 'I' for Inactive)
REMARK    1  A    between atoms: C_1  and  C_2
REMARK    2  A    between atoms: C_6  and  C_7
REMARK    3  A    between atoms: C_11  and  C_12
REMARK    4  A    between atoms: C_20  and  N_21
REMARK                            x       y       z     vdW  Elec       q    Type
REMARK                         _______ _______ _______ _____ _____    ______ ____
ROOT
ATOM      1  C   UNL     1       0.767   9.586  21.023  0.00  0.00    +0.000 A 
ATOM      2  C   UNL     1       0.217   8.796  22.074  0.00  0.00    +0.000 A 
ATOM      3  C   UNL     1      -0.567   9.336  23.092  0.00  0.00    +0.000 A 
ATOM      4  C   UNL     1      -0.832  10.690  23.080  0.00  0.00    +0.000 A 
ATOM      5  C   UNL     1      -0.280  11.490  22.072  0.00  0.00    +0.000 A 
ATOM      6  C   UNL     1      -0.710  12.880  21.994  0.00  0.00    +0.000 A 
ATOM      7  O   UNL     1      -1.455  13.389  22.817  0.00  0.00    +0.000 OA
ATOM      8  C   UNL     1      -0.213  13.654  20.864  0.00  0.00    +0.000 A 
ATOM      9  C   UNL     1       0.762  13.180  20.071  0.00  0.00    +0.000 A 
ATOM     10  O   UNL     1       1.166  11.830  20.156  0.00  0.00    +0.000 OA
ATOM     11  C   UNL     1       0.564  10.983  21.077  0.00  0.00    +0.000 A 
ENDROOT
BRANCH   1  16
ATOM     12  C   UNL     1       2.539   6.788  19.117  0.00  0.00    +0.000 A 
ATOM     13  C   UNL     1       2.691   7.382  17.862  0.00  0.00    +0.000 A 
ATOM     14  C   UNL     1       2.186   8.663  17.606  0.00  0.00    +0.000 A 
ATOM     15  C   UNL     1       1.554   9.400  18.613  0.00  0.00    +0.000 A 
ATOM     16  C   UNL     1       1.392   8.860  19.889  0.00  0.00    +0.000 A 
ATOM     17  C   UNL     1       1.869   7.541  20.099  0.00  0.00    +0.000 A 
BRANCH  12  23
ATOM     18  C   UNL     1       0.947   4.231  20.341  0.00  0.00    +0.000 C 
ATOM     19  C   UNL     1       2.387   4.312  19.955  0.00  0.00    +0.000 A 
ATOM     20  C   UNL     1       3.293   3.215  20.158  0.00  0.00    +0.000 A 
ATOM     21  C   UNL     1       4.572   3.490  19.747  0.00  0.00    +0.000 A 
ATOM     22  S   UNL     1       4.693   5.048  19.074  0.00  0.00    +0.000 S 
ATOM     23  C   UNL     1       3.038   5.423  19.418  0.00  0.00    +0.000 A 
ENDBRANCH  12  23
ENDBRANCH   1  16
BRANCH   9  24
ATOM     24  N   UNL     1       1.427  14.006  19.149  0.00  0.00    +0.000 N 
ATOM     25  C   UNL     1       2.472  13.532  18.218  0.00  0.00    +0.000 C 
ATOM     26  C   UNL     1       3.702  14.460  18.290  0.00  0.00    +0.000 C 
ATOM     27  O   UNL     1       3.353  15.817  17.972  0.00  0.00    +0.000 OA
ATOM     28  C   UNL     1       2.392  16.304  18.915  0.00  0.00    +0.000 C 
ATOM     29  C   UNL     1       1.119  15.445  18.934  0.00  0.00    +0.000 C 
ENDBRANCH   9  24
TORSDOF 3
ENDMDL
MODEL 2
REMARK VINA RESULT:      -8.6      0.780      1.209
REMARK  Name = 
REMARK  4 active torsions:
REMARK  status: ('A' for Active; 'I' for Inactive)
REMARK    1  A    between atoms: C_1  and  C_2
REMARK    2  A    between atoms: C_6  and  C_7
REMARK    3  A    between atoms: C_11  and  C_12
REMARK    4  A    between atoms: C_20  and  N_21
REMARK                            x       y       z     vdW  Elec       q    Type
REMARK                         _______ _______ _______ _____ _____    ______ ____
ROOT
ATOM      1  C   UNL     1       0.742   9.616  21.014  0.00  0.00    +0.000 A 
ATOM      2  C   UNL     1       0.177   8.843  22.070  0.00  0.00    +0.000 A 
ATOM      3  C   UNL     1      -0.611   9.400  23.075  0.00  0.00    +0.000 A 
ATOM      4  C   UNL     1      -0.866  10.756  23.045  0.00  0.00    +0.000 A 
ATOM      5  C   UNL     1      -0.301  11.540  22.031  0.00  0.00    +0.000 A 
ATOM      6  C   UNL     1      -0.719  12.932  21.933  0.00  0.00    +0.000 A 
ATOM      7  O   UNL     1      -1.467  13.455  22.745  0.00  0.00    +0.000 OA
ATOM      8  C   UNL     1      -0.208  13.688  20.799  0.00  0.00    +0.000 A 
ATOM      9  C   UNL     1       0.770  13.198  20.020  0.00  0.00    +0.000 A 
ATOM     10  O   UNL     1       1.164  11.847  20.124  0.00  0.00    +0.000 OA
ATOM     11  C   UNL     1       0.549  11.015  21.050  0.00  0.00    +0.000 A 
ENDROOT
BRANCH   1  16
ATOM     12  C   UNL     1       2.505   6.782  19.155  0.00  0.00    +0.000 A 
ATOM     13  C   UNL     1       2.675   7.360  17.896  0.00  0.00    +0.000 A 
ATOM     14  C   UNL     1       2.185   8.643  17.621  0.00  0.00    +0.000 A 
ATOM     15  C   UNL     1       1.550   9.397  18.614  0.00  0.00    +0.000 A 
ATOM     16  C   UNL     1       1.370   8.872  19.894  0.00  0.00    +0.000 A 
ATOM     17  C   UNL     1       1.833   7.551  20.122  0.00  0.00    +0.000 A 
BRANCH  12  23
ATOM     18  C   UNL     1       5.475   5.506  18.807  0.00  0.00    +0.000 C 
ATOM     19  C   UNL     1       4.248   4.834  19.325  0.00  0.00    +0.000 A 
ATOM     20  C   UNL     1       4.236   3.443  19.688  0.00  0.00    +0.000 A 
ATOM     21  C   UNL     1       3.011   3.014  20.131  0.00  0.00    +0.000 A 
ATOM     22  S   UNL     1       1.875   4.279  20.161  0.00  0.00    +0.000 S 
ATOM     23  C   UNL     1       2.988   5.415  19.476  0.00  0.00    +0.000 A 
ENDBRANCH  12  23
ENDBRANCH   1  16
BRANCH   9  24
ATOM     24  N   UNL     1       1.449  14.008  19.093  0.00  0.00    +0.000 N 
ATOM     25  C   UNL     1       2.521  13.524  18.200  0.00  0.00    +0.000 C 
ATOM     26  C   UNL     1       3.739  14.467  18.279  0.00  0.00    +0.000 C 
ATOM     27  O   UNL     1       3.383  15.811  17.918  0.00  0.00    +0.000 OA
ATOM     28  C   UNL     1       2.394  16.311  18.824  0.00  0.00    +0.000 C 
ATOM     29  C   UNL     1       1.130  15.438  18.835  0.00  0.00    +0.000 C 
ENDBRANCH   9  24
TORSDOF 3
ENDMDL
MODEL 3
REMARK VINA RESULT:      -8.5      4.450      8.301
REMARK  Name = 
REMARK  4 active torsions:
REMARK  status: ('A' for Active; 'I' for Inactive)
REMARK    1  A    between atoms: C_1  and  C_2
REMARK    2  A    between atoms: C_6  and  C_7
REMARK    3  A    between atoms: C_11  and  C_12
REMARK    4  A    between atoms: C_20  and  N_21
REMARK                            x       y       z     vdW  Elec       q    Type
REMARK                         _______ _______ _______ _____ _____    ______ ____
ROOT
ATOM      1  C   UNL     1       2.054   5.381  19.774  0.00  0.00    +0.000 A 
ATOM      2  C   UNL     1       0.988   4.772  20.497  0.00  0.00    +0.000 A 
ATOM      3  C   UNL     1       1.083   3.496  21.048  0.00  0.00    +0.000 A 
ATOM      4  C   UNL     1       2.261   2.792  20.899  0.00  0.00    +0.000 A 
ATOM      5  C   UNL     1       3.313   3.360  20.170  0.00  0.00    +0.000 A 
ATOM      6  C   UNL     1       4.594   2.665  20.168  0.00  0.00    +0.000 A 
ATOM      7  O   UNL     1       4.755   1.577  20.698  0.00  0.00    +0.000 OA
ATOM      8  C   UNL     1       5.700   3.339  19.504  0.00  0.00    +0.000 A 
ATOM      9  C   UNL     1       5.497   4.427  18.743  0.00  0.00    +0.000 A 
ATOM     10  O   UNL     1       4.252   5.092  18.756  0.00  0.00    +0.000 OA
ATOM     11  C   UNL     1       3.218   4.612  19.550  0.00  0.00    +0.000 A 
ENDROOT
BRANCH   1  16
ATOM     12  C   UNL     1       0.922   9.019  20.063  0.00  0.00    +0.000 A 
ATOM     13  C   UNL     1       1.450   9.551  18.886  0.00  0.00    +0.000 A 
ATOM     14  C   UNL     1       2.210   8.760  18.015  0.00  0.00    +0.000 A 
ATOM     15  C   UNL     1       2.425   7.404  18.280  0.00  0.00    +0.000 A 
ATOM     16  C   UNL     1       1.906   6.818  19.435  0.00  0.00    +0.000 A 
ATOM     17  C   UNL     1       1.184   7.661  20.319  0.00  0.00    +0.000 A 
BRANCH  12  23
ATOM     18  C   UNL     1      -0.961  11.611  19.512  0.00  0.00    +0.000 C 
ATOM     19  C   UNL     1      -0.669  10.956  20.821  0.00  0.00    +0.000 A 
ATOM     20  C   UNL     1      -1.174  11.475  22.062  0.00  0.00    +0.000 A 
ATOM     21  C   UNL     1      -0.787  10.736  23.151  0.00  0.00    +0.000 A 
ATOM     22  S   UNL     1       0.145   9.388  22.696  0.00  0.00    +0.000 S 
ATOM     23  C   UNL     1       0.134   9.832  21.022  0.00  0.00    +0.000 A 
ENDBRANCH  12  23
ENDBRANCH   1  16
BRANCH   9  24
ATOM     24  N   UNL     1       6.499   4.931  17.895  0.00  0.00    +0.000 N 
ATOM     25  C   UNL     1       7.413   6.032  18.259  0.00  0.00    +0.000 C 
ATOM     26  C   UNL     1       7.445   7.084  17.131  0.00  0.00    +0.000 C 
ATOM     27  O   UNL     1       7.863   6.503  15.886  0.00  0.00    +0.000 OA
ATOM     28  C   UNL     1       6.940   5.482  15.493  0.00  0.00    +0.000 C 
ATOM     29  C   UNL     1       6.821   4.376  16.553  0.00  0.00    +0.000 C 
ENDBRANCH   9  24
TORSDOF 3
ENDMDL
MODEL 4
REMARK VINA RESULT:      -8.5      0.607      1.078
REMARK  Name = 
REMARK  4 active torsions:
REMARK  status: ('A' for Active; 'I' for Inactive)
REMARK    1  A    between atoms: C_1  and  C_2
REMARK    2  A    between atoms: C_6  and  C_7
REMARK    3  A    between atoms: C_11  and  C_12
REMARK    4  A    between atoms: C_20  and  N_21
REMARK                            x       y       z     vdW  Elec       q    Type
REMARK                         _______ _______ _______ _____ _____    ______ ____
ROOT
ATOM      1  C   UNL     1       0.592   9.668  21.139  0.00  0.00    +0.000 A 
ATOM      2  C   UNL     1      -0.119   8.783  22.001  0.00  0.00    +0.000 A 
ATOM      3  C   UNL     1      -0.947   9.233  23.027  0.00  0.00    +0.000 A 
ATOM      4  C   UNL     1      -1.095  10.592  23.215  0.00  0.00    +0.000 A 
ATOM      5  C   UNL     1      -0.386  11.481  22.397  0.00  0.00    +0.000 A 
ATOM      6  C   UNL     1      -0.688  12.901  22.512  0.00  0.00    +0.000 A 
ATOM      7  O   UNL     1      -1.462  13.346  23.346  0.00  0.00    +0.000 OA
ATOM      8  C   UNL     1      -0.025  13.788  21.567  0.00  0.00    +0.000 A 
ATOM      9  C   UNL     1       0.977  13.349  20.787  0.00  0.00    +0.000 A 
ATOM     10  O   UNL     1       1.257  11.970  20.683  0.00  0.00    +0.000 OA
ATOM     11  C   UNL     1       0.503  11.053  21.404  0.00  0.00    +0.000 A 
ENDROOT
BRANCH   1  16
ATOM     12  C   UNL     1       2.525   7.134  19.032  0.00  0.00    +0.000 A 
ATOM     13  C   UNL     1       2.639   7.829  17.826  0.00  0.00    +0.000 A 
ATOM     14  C   UNL     1       2.057   9.093  17.666  0.00  0.00    +0.000 A 
ATOM     15  C   UNL     1       1.384   9.712  18.724  0.00  0.00    +0.000 A 
ATOM     16  C   UNL     1       1.257   9.069  19.955  0.00  0.00    +0.000 A 
ATOM     17  C   UNL     1       1.813   7.769  20.066  0.00  0.00    +0.000 A 
BRANCH  12  23
ATOM     18  C   UNL     1       1.214   4.507  20.429  0.00  0.00    +0.000 C 
ATOM     19  C   UNL     1       2.577   4.643  19.837  0.00  0.00    +0.000 A 
ATOM     20  C   UNL     1       3.538   3.574  19.883  0.00  0.00    +0.000 A 
ATOM     21  C   UNL     1       4.733   3.899  19.293  0.00  0.00    +0.000 A 
ATOM     22  S   UNL     1       4.704   5.469  18.639  0.00  0.00    +0.000 S 
ATOM     23  C   UNL     1       3.106   5.783  19.230  0.00  0.00    +0.000 A 
ENDBRANCH  12  23
ENDBRANCH   1  16
BRANCH   9  24
ATOM     24  N   UNL     1       1.793  14.239  20.066  0.00  0.00    +0.000 N 
ATOM     25  C   UNL     1       1.607  15.704  20.053  0.00  0.00    +0.000 C 
ATOM     26  C   UNL     1       1.618  16.223  18.600  0.00  0.00    +0.000 C 
ATOM     27  O   UNL     1       2.846  15.888  17.935  0.00  0.00    +0.000 OA
ATOM     28  C   UNL     1       2.997  14.465  17.883  0.00  0.00    +0.000 C 
ATOM     29  C   UNL     1       2.991  13.834  19.284  0.00  0.00    +0.000 C 
ENDBRANCH   9  24
TORSDOF 3
ENDMDL
MODEL 5
REMARK VINA RESULT:      -8.4      4.542      8.405
REMARK  Name = 
REMARK  4 active torsions:
REMARK  status: ('A' for Active; 'I' for Inactive)
REMARK    1  A    between atoms: C_1  and  C_2
REMARK    2  A    between atoms: C_6  and  C_7
REMARK    3  A    between atoms: C_11  and  C_12
REMARK    4  A    between atoms: C_20  and  N_21
REMARK                            x       y       z     vdW  Elec       q    Type
REMARK                         _______ _______ _______ _____ _____    ______ ____
ROOT
ATOM      1  C   UNL     1       2.204   5.962  19.681  0.00  0.00    +0.000 A 
ATOM      2  C   UNL     1       1.486   5.509  20.827  0.00  0.00    +0.000 A 
ATOM      3  C   UNL     1       1.733   4.281  21.435  0.00  0.00    +0.000 A 
ATOM      4  C   UNL     1       2.721   3.468  20.916  0.00  0.00    +0.000 A 
ATOM      5  C   UNL     1       3.422   3.880  19.775  0.00  0.00    +0.000 A 
ATOM      6  C   UNL     1       4.563   3.080  19.351  0.00  0.00    +0.000 A 
ATOM      7  O   UNL     1       4.871   2.030  19.893  0.00  0.00    +0.000 OA
ATOM      8  C   UNL     1       5.344   3.598  18.236  0.00  0.00    +0.000 A 
ATOM      9  C   UNL     1       4.904   4.632  17.499  0.00  0.00    +0.000 A 
ATOM     10  O   UNL     1       3.799   5.400  17.925  0.00  0.00    +0.000 OA
ATOM     11  C   UNL     1       3.146   5.079  19.107  0.00  0.00    +0.000 A 
ENDROOT
BRANCH   1  16
ATOM     12  C   UNL     1       1.103   9.615  19.882  0.00  0.00    +0.000 A 
ATOM     13  C   UNL     1       1.451  10.063  18.607  0.00  0.00    +0.000 A 
ATOM     14  C   UNL     1       2.082   9.212  17.691  0.00  0.00    +0.000 A 
ATOM     15  C   UNL     1       2.341   7.876  18.014  0.00  0.00    +0.000 A 
ATOM     16  C   UNL     1       1.998   7.373  19.270  0.00  0.00    +0.000 A 
ATOM     17  C   UNL     1       1.408   8.277  20.190  0.00  0.00    +0.000 A 
BRANCH  12  23
ATOM     18  C   UNL     1      -0.524   8.820  22.582  0.00  0.00    +0.000 C 
ATOM     19  C   UNL     1      -0.259  10.187  22.045  0.00  0.00    +0.000 A 
ATOM     20  C   UNL     1      -0.784  11.368  22.673  0.00  0.00    +0.000 A 
ATOM     21  C   UNL     1      -0.435  12.524  22.022  0.00  0.00    +0.000 A 
ATOM     22  S   UNL     1       0.561  12.212  20.678  0.00  0.00    +0.000 S 
ATOM     23  C   UNL     1       0.458  10.496  20.888  0.00  0.00    +0.000 A 
ENDBRANCH  12  23
ENDBRANCH   1  16
BRANCH   9  24
ATOM     24  N   UNL     1       5.508   4.974  16.277  0.00  0.00    +0.000 N 
ATOM     25  C   UNL     1       4.936   4.654  14.953  0.00  0.00    +0.000 C 
ATOM     26  C   UNL     1       6.009   4.000  14.060  0.00  0.00    +0.000 C 
ATOM     27  O   UNL     1       7.148   4.860  13.896  0.00  0.00    +0.000 OA
ATOM     28  C   UNL     1       7.749   5.116  15.170  0.00  0.00    +0.000 C 
ATOM     29  C   UNL     1       6.762   5.765  16.152  0.00  0.00    +0.000 C 
ENDBRANCH   9  24
TORSDOF 3
ENDMDL
MODEL 6
REMARK VINA RESULT:      -8.3      4.464      8.240
REMARK  Name = 
REMARK  4 active torsions:
REMARK  status: ('A' for Active; 'I' for Inactive)
REMARK    1  A    between atoms: C_1  and  C_2
REMARK    2  A    between atoms: C_6  and  C_7
REMARK    3  A    between atoms: C_11  and  C_12
REMARK    4  A    between atoms: C_20  and  N_21
REMARK                            x       y       z     vdW  Elec       q    Type
REMARK                         _______ _______ _______ _____ _____    ______ ____
ROOT
ATOM      1  C   UNL     1       2.101   5.586  19.672  0.00  0.00    +0.000 A 
ATOM      2  C   UNL     1       1.042   5.061  20.468  0.00  0.00    +0.000 A 
ATOM      3  C   UNL     1       1.110   3.814  21.086  0.00  0.00    +0.000 A 
ATOM      4  C   UNL     1       2.253   3.057  20.932  0.00  0.00    +0.000 A 
ATOM      5  C   UNL     1       3.296   3.541  20.133  0.00  0.00    +0.000 A 
ATOM      6  C   UNL     1       4.549   2.796  20.123  0.00  0.00    +0.000 A 
ATOM      7  O   UNL     1       4.689   1.733  20.707  0.00  0.00    +0.000 OA
ATOM      8  C   UNL     1       5.653   3.388  19.380  0.00  0.00    +0.000 A 
ATOM      9  C   UNL     1       5.460   4.439  18.567  0.00  0.00    +0.000 A 
ATOM     10  O   UNL     1       4.243   5.153  18.590  0.00  0.00    +0.000 OA
ATOM     11  C   UNL     1       3.225   4.759  19.448  0.00  0.00    +0.000 A 
ENDROOT
BRANCH   1  16
ATOM     12  C   UNL     1       1.205   9.296  19.843  0.00  0.00    +0.000 A 
ATOM     13  C   UNL     1       1.629   9.726  18.584  0.00  0.00    +0.000 A 
ATOM     14  C   UNL     1       2.245   8.840  17.690  0.00  0.00    +0.000 A 
ATOM     15  C   UNL     1       2.414   7.491  18.019  0.00  0.00    +0.000 A 
ATOM     16  C   UNL     1       1.993   7.007  19.258  0.00  0.00    +0.000 A 
ATOM     17  C   UNL     1       1.420   7.942  20.157  0.00  0.00    +0.000 A 
BRANCH  12  23
ATOM     18  C   UNL     1      -0.530   8.592  22.501  0.00  0.00    +0.000 C 
ATOM     19  C   UNL     1      -0.189   9.942  21.964  0.00  0.00    +0.000 A 
ATOM     20  C   UNL     1      -0.678  11.149  22.571  0.00  0.00    +0.000 A 
ATOM     21  C   UNL     1      -0.261  12.284  21.923  0.00  0.00    +0.000 A 
ATOM     22  S   UNL     1       0.757  11.920  20.610  0.00  0.00    +0.000 S 
ATOM     23  C   UNL     1       0.572  10.211  20.825  0.00  0.00    +0.000 A 
ENDBRANCH  12  23
ENDBRANCH   1  16
BRANCH   9  24
ATOM     24  N   UNL     1       6.446   4.855  17.655  0.00  0.00    +0.000 N 
ATOM     25  C   UNL     1       7.390   5.963  17.905  0.00  0.00    +0.000 C 
ATOM     26  C   UNL     1       7.408   6.922  16.698  0.00  0.00    +0.000 C 
ATOM     27  O   UNL     1       7.780   6.237  15.491  0.00  0.00    +0.000 OA
ATOM     28  C   UNL     1       6.828   5.206  15.206  0.00  0.00    +0.000 C 
ATOM     29  C   UNL     1       6.720   4.190  16.353  0.00  0.00    +0.000 C 
ENDBRANCH   9  24
TORSDOF 3
ENDMDL
MODEL 7
REMARK VINA RESULT:      -8.3      4.507      8.492
REMARK  Name = 
REMARK  4 active torsions:
REMARK  status: ('A' for Active; 'I' for Inactive)
REMARK    1  A    between atoms: C_1  and  C_2
REMARK    2  A    between atoms: C_6  and  C_7
REMARK    3  A    between atoms: C_11  and  C_12
REMARK    4  A    between atoms: C_20  and  N_21
REMARK                            x       y       z     vdW  Elec       q    Type
REMARK                         _______ _______ _______ _____ _____    ______ ____
ROOT
ATOM      1  C   UNL     1       2.173   5.742  19.729  0.00  0.00    +0.000 A 
ATOM      2  C   UNL     1       1.456   5.224  20.847  0.00  0.00    +0.000 A 
ATOM      3  C   UNL     1       1.723   3.974  21.401  0.00  0.00    +0.000 A 
ATOM      4  C   UNL     1       2.730   3.205  20.854  0.00  0.00    +0.000 A 
ATOM      5  C   UNL     1       3.431   3.682  19.739  0.00  0.00    +0.000 A 
ATOM      6  C   UNL     1       4.590   2.924  19.288  0.00  0.00    +0.000 A 
ATOM      7  O   UNL     1       4.916   1.856  19.785  0.00  0.00    +0.000 OA
ATOM      8  C   UNL     1       5.369   3.507  18.205  0.00  0.00    +0.000 A 
ATOM      9  C   UNL     1       4.915   4.564  17.512  0.00  0.00    +0.000 A 
ATOM     10  O   UNL     1       3.792   5.290  17.962  0.00  0.00    +0.000 OA
ATOM     11  C   UNL     1       3.136   4.904  19.123  0.00  0.00    +0.000 A 
ENDROOT
BRANCH   1  16
ATOM     12  C   UNL     1       0.856   9.317  20.006  0.00  0.00    +0.000 A 
ATOM     13  C   UNL     1       1.335   9.866  18.815  0.00  0.00    +0.000 A 
ATOM     14  C   UNL     1       2.122   9.107  17.938  0.00  0.00    +0.000 A 
ATOM     15  C   UNL     1       2.412   7.767  18.211  0.00  0.00    +0.000 A 
ATOM     16  C   UNL     1       1.943   7.166  19.380  0.00  0.00    +0.000 A 
ATOM     17  C   UNL     1       1.193   7.978  20.269  0.00  0.00    +0.000 A 
BRANCH  12  23
ATOM     18  C   UNL     1      -0.976  11.955  19.503  0.00  0.00    +0.000 C 
ATOM     19  C   UNL     1      -0.741  11.239  20.791  0.00  0.00    +0.000 A 
ATOM     20  C   UNL     1      -1.285  11.709  22.035  0.00  0.00    +0.000 A 
ATOM     21  C   UNL     1      -0.947  10.917  23.103  0.00  0.00    +0.000 A 
ATOM     22  S   UNL     1      -0.013   9.579  22.623  0.00  0.00    +0.000 S 
ATOM     23  C   UNL     1       0.042  10.098  20.971  0.00  0.00    +0.000 A 
ENDBRANCH  12  23
ENDBRANCH   1  16
BRANCH   9  24
ATOM     24  N   UNL     1       5.521   4.972  16.311  0.00  0.00    +0.000 N 
ATOM     25  C   UNL     1       4.988   4.664  14.968  0.00  0.00    +0.000 C 
ATOM     26  C   UNL     1       6.108   4.092  14.076  0.00  0.00    +0.000 C 
ATOM     27  O   UNL     1       7.204   5.012  13.958  0.00  0.00    +0.000 OA
ATOM     28  C   UNL     1       7.770   5.260  15.249  0.00  0.00    +0.000 C 
ATOM     29  C   UNL     1       6.735   5.829  16.232  0.00  0.00    +0.000 C 
ENDBRANCH   9  24
TORSDOF 3
ENDMDL
MODEL 8
REMARK VINA RESULT:      -8.2      0.991      1.667
REMARK  Name = 
REMARK  4 active torsions:
REMARK  status: ('A' for Active; 'I' for Inactive)
REMARK    1  A    between atoms: C_1  and  C_2
REMARK    2  A    between atoms: C_6  and  C_7
REMARK    3  A    between atoms: C_11  and  C_12
REMARK    4  A    between atoms: C_20  and  N_21
REMARK                            x       y       z     vdW  Elec       q    Type
REMARK                         _______ _______ _______ _____ _____    ______ ____
ROOT
ATOM      1  C   UNL     1       0.576   9.691  21.108  0.00  0.00    +0.000 A 
ATOM      2  C   UNL     1      -0.132   8.798  21.963  0.00  0.00    +0.000 A 
ATOM      3  C   UNL     1      -0.955   9.237  22.998  0.00  0.00    +0.000 A 
ATOM      4  C   UNL     1      -1.101  10.594  23.202  0.00  0.00    +0.000 A 
ATOM      5  C   UNL     1      -0.394  11.491  22.391  0.00  0.00    +0.000 A 
ATOM      6  C   UNL     1      -0.694  12.910  22.524  0.00  0.00    +0.000 A 
ATOM      7  O   UNL     1      -1.463  13.347  23.366  0.00  0.00    +0.000 OA
ATOM      8  C   UNL     1      -0.033  13.807  21.585  0.00  0.00    +0.000 A 
ATOM      9  C   UNL     1       0.965  13.376  20.796  0.00  0.00    +0.000 A 
ATOM     10  O   UNL     1       1.242  11.997  20.676  0.00  0.00    +0.000 OA
ATOM     11  C   UNL     1       0.490  11.074  21.389  0.00  0.00    +0.000 A 
ENDROOT
BRANCH   1  16
ATOM     12  C   UNL     1       2.565   7.216  18.984  0.00  0.00    +0.000 A 
ATOM     13  C   UNL     1       2.614   7.896  17.766  0.00  0.00    +0.000 A 
ATOM     14  C   UNL     1       1.972   9.130  17.604  0.00  0.00    +0.000 A 
ATOM     15  C   UNL     1       1.300   9.735  18.672  0.00  0.00    +0.000 A 
ATOM     16  C   UNL     1       1.235   9.105  19.915  0.00  0.00    +0.000 A 
ATOM     17  C   UNL     1       1.853   7.833  20.029  0.00  0.00    +0.000 A 
BRANCH  12  23
ATOM     18  C   UNL     1       5.414   6.119  17.867  0.00  0.00    +0.000 C 
ATOM     19  C   UNL     1       4.422   5.389  18.709  0.00  0.00    +0.000 A 
ATOM     20  C   UNL     1       4.606   4.015  19.085  0.00  0.00    +0.000 A 
ATOM     21  C   UNL     1       3.580   3.524  19.851  0.00  0.00    +0.000 A 
ATOM     22  S   UNL     1       2.407   4.715  20.166  0.00  0.00    +0.000 S 
ATOM     23  C   UNL     1       3.211   5.894  19.185  0.00  0.00    +0.000 A 
ENDBRANCH  12  23
ENDBRANCH   1  16
BRANCH   9  24
ATOM     24  N   UNL     1       1.779  14.272  20.083  0.00  0.00    +0.000 N 
ATOM     25  C   UNL     1       1.579  15.736  20.065  0.00  0.00    +0.000 C 
ATOM     26  C   UNL     1       1.599  16.253  18.612  0.00  0.00    +0.000 C 
ATOM     27  O   UNL     1       2.837  15.929  17.959  0.00  0.00    +0.000 OA
ATOM     28  C   UNL     1       3.002  14.507  17.911  0.00  0.00    +0.000 C 
ATOM     29  C   UNL     1       2.989  13.879  19.313  0.00  0.00    +0.000 C 
ENDBRANCH   9  24
TORSDOF 3
ENDMDL
MODEL 9
REMARK VINA RESULT:      -8.0      5.094      8.168
REMARK  Name = 
REMARK  4 active torsions:
REMARK  status: ('A' for Active; 'I' for Inactive)
REMARK    1  A    between atoms: C_1  and  C_2
REMARK    2  A    between atoms: C_6  and  C_7
REMARK    3  A    between atoms: C_11  and  C_12
REMARK    4  A    between atoms: C_20  and  N_21
REMARK                            x       y       z     vdW  Elec       q    Type
REMARK                         _______ _______ _______ _____ _____    ______ ____
ROOT
ATOM      1  C   UNL     1      -1.176  10.714  18.856  0.00  0.00    +0.000 A 
ATOM      2  C   UNL     1      -0.122   9.937  18.293  0.00  0.00    +0.000 A 
ATOM      3  C   UNL     1       0.922   9.417  19.054  0.00  0.00    +0.000 A 
ATOM      4  C   UNL     1       0.936   9.654  20.414  0.00  0.00    +0.000 A 
ATOM      5  C   UNL     1      -0.075  10.436  20.986  0.00  0.00    +0.000 A 
ATOM      6  C   UNL     1      -0.122  10.530  22.439  0.00  0.00    +0.000 A 
ATOM      7  O   UNL     1       0.727  10.032  23.162  0.00  0.00    +0.000 OA
ATOM      8  C   UNL     1      -1.253  11.250  23.009  0.00  0.00    +0.000 A 
ATOM      9  C   UNL     1      -2.077  11.977  22.235  0.00  0.00    +0.000 A 
ATOM     10  O   UNL     1      -2.021  11.873  20.829  0.00  0.00    +0.000 OA
ATOM     11  C   UNL     1      -1.096  11.025  20.233  0.00  0.00    +0.000 A 
ENDROOT
BRANCH   1  16
ATOM     12  C   UNL     1      -4.679  11.844  17.836  0.00  0.00    +0.000 A 
ATOM     13  C   UNL     1      -4.658  11.561  16.469  0.00  0.00    +0.000 A 
ATOM     14  C   UNL     1      -3.507  11.049  15.858  0.00  0.00    +0.000 A 
ATOM     15  C   UNL     1      -2.360  10.768  16.608  0.00  0.00    +0.000 A 
ATOM     16  C   UNL     1      -2.335  11.017  17.981  0.00  0.00    +0.000 A 
ATOM     17  C   UNL     1      -3.501  11.583  18.557  0.00  0.00    +0.000 A 
BRANCH  12  23
ATOM     18  C   UNL     1      -6.758  14.118  16.798  0.00  0.00    +0.000 C 
ATOM     19  C   UNL     1      -6.773  13.395  18.103  0.00  0.00    +0.000 A 
ATOM     20  C   UNL     1      -7.734  13.693  19.129  0.00  0.00    +0.000 A 
ATOM     21  C   UNL     1      -7.575  12.926  20.255  0.00  0.00    +0.000 A 
ATOM     22  S   UNL     1      -6.303  11.810  20.080  0.00  0.00    +0.000 S 
ATOM     23  C   UNL     1      -5.873  12.411  18.514  0.00  0.00    +0.000 A 
ENDBRANCH  12  23
ENDBRANCH   1  16
BRANCH   9  24
ATOM     24  N   UNL     1      -3.004  12.876  22.790  0.00  0.00    +0.000 N 
ATOM     25  C   UNL     1      -3.835  12.581  23.976  0.00  0.00    +0.000 C 
ATOM     26  C   UNL     1      -5.309  12.927  23.685  0.00  0.00    +0.000 C 
ATOM     27  O   UNL     1      -5.461  14.309  23.323  0.00  0.00    +0.000 OA
ATOM     28  C   UNL     1      -4.714  14.582  22.132  0.00  0.00    +0.000 C 
ATOM     29  C   UNL     1      -3.221  14.265  22.305  0.00  0.00    +0.000 C 
ENDBRANCH   9  24
TORSDOF 3
ENDMDL
