MODEL 1
REMARK VINA RESULT:      -9.0      0.000      0.000
REMARK  Name = 
REMARK  5 active torsions:
REMARK  status: ('A' for Active; 'I' for Inactive)
REMARK    1  A    between atoms: C_1  and  O_2
REMARK    2  A    between atoms: O_2  and  C_3
REMARK    3  A    between atoms: C_6  and  C_7
REMARK    4  A    between atoms: N_9  and  C_10
REMARK    5  A    between atoms: C_10  and  C_11
REMARK                            x       y       z     vdW  Elec       q    Type
REMARK                         _______ _______ _______ _____ _____    ______ ____
ROOT
ATOM      1  C   UNL     1       4.032   5.988  19.032  0.00  0.00    +0.000 C 
ATOM      2  C   UNL     1       4.965   6.163  17.810  0.00  0.00    +0.000 C 
ATOM      3  N   UNL     1       4.703   5.056  16.849  0.00  0.00    +0.000 NA
ATOM      4  C   UNL     1       3.894   4.047  17.582  0.00  0.00    +0.000 C 
ATOM      5  C   UNL     1       2.442   3.611  17.193  0.00  0.00    +0.000 C 
ATOM      6  C   UNL     1       2.406   2.163  17.742  0.00  0.00    +0.000 C 
ATOM      7  C   UNL     1       2.801   2.238  19.250  0.00  0.00    +0.000 C 
ATOM      8  N   UNL     1       2.821   3.652  19.784  0.00  0.00    +0.000 NA
ATOM      9  C   UNL     1       1.501   4.216  19.492  0.00  0.00    +0.000 C 
ATOM     10  C   UNL     1       1.267   4.272  17.972  0.00  0.00    +0.000 C 
ATOM     11  C   UNL     1       3.865   4.436  19.060  0.00  0.00    +0.000 C 
ENDROOT
BRANCH   1  15
ATOM     12  C   UNL     1       1.129   9.220  19.074  0.00  0.00    +0.000 A 
ATOM     13  C   UNL     1       1.757   8.869  17.884  0.00  0.00    +0.000 A 
ATOM     14  C   UNL     1       2.623   7.775  17.829  0.00  0.00    +0.000 A 
ATOM     15  C   UNL     1       2.900   7.008  18.974  0.00  0.00    +0.000 A 
ATOM     16  C   UNL     1       2.201   7.330  20.151  0.00  0.00    +0.000 A 
ATOM     17  C   UNL     1       1.325   8.427  20.202  0.00  0.00    +0.000 A 
BRANCH  12  19
ATOM     18  C   UNL     1      -1.010  10.249  18.935  0.00  0.00    +0.000 C 
ATOM     19  O   UNL     1       0.403  10.376  19.010  0.00  0.00    +0.000 OA
ENDBRANCH  12  19
ENDBRANCH   1  15
BRANCH   3  20
ATOM     20  C   UNL     1       6.008   4.385  16.527  0.00  0.00    +0.000 C 
BRANCH  20  21
ATOM     21  C   UNL     1       6.449   4.358  15.080  0.00  0.00    +0.000 A 
ATOM     22  C   UNL     1       5.728   3.582  14.147  0.00  0.00    +0.000 A 
ATOM     23  C   UNL     1       6.050   3.630  12.788  0.00  0.00    +0.000 A 
ATOM     24  C   UNL     1       7.083   4.449  12.364  0.00  0.00    +0.000 A 
ATOM     25  F   UNL     1       7.381   4.509  11.052  0.00  0.00    +0.000 F 
ATOM     26  C   UNL     1       7.809   5.215  13.265  0.00  0.00    +0.000 A 
ATOM     27  C   UNL     1       7.496   5.168  14.623  0.00  0.00    +0.000 A 
ENDBRANCH  20  21
ENDBRANCH   3  20
TORSDOF 4
ENDMDL
MODEL 2
REMARK VINA RESULT:      -7.9      0.460      1.032
REMARK  Name = 
REMARK  5 active torsions:
REMARK  status: ('A' for Active; 'I' for Inactive)
REMARK    1  A    between atoms: C_1  and  O_2
REMARK    2  A    between atoms: O_2  and  C_3
REMARK    3  A    between atoms: C_6  and  C_7
REMARK    4  A    between atoms: N_9  and  C_10
REMARK    5  A    between atoms: C_10  and  C_11
REMARK                            x       y       z     vdW  Elec       q    Type
REMARK                         _______ _______ _______ _____ _____    ______ ____
ROOT
ATOM      1  C   UNL     1       4.370   5.787  18.925  0.00  0.00    +0.000 C 
ATOM      2  C   UNL     1       5.208   5.845  17.625  0.00  0.00    +0.000 C 
ATOM      3  N   UNL     1       4.713   4.796  16.693  0.00  0.00    +0.000 NA
ATOM      4  C   UNL     1       3.839   3.899  17.495  0.00  0.00    +0.000 C 
ATOM      5  C   UNL     1       2.313   3.672  17.237  0.00  0.00    +0.000 C 
ATOM      6  C   UNL     1       2.125   2.237  17.788  0.00  0.00    +0.000 C 
ATOM      7  C   UNL     1       2.657   2.240  19.255  0.00  0.00    +0.000 C 
ATOM      8  N   UNL     1       2.918   3.632  19.784  0.00  0.00    +0.000 NA
ATOM      9  C   UNL     1       1.669   4.376  19.609  0.00  0.00    +0.000 C 
ATOM     10  C   UNL     1       1.312   4.480  18.115  0.00  0.00    +0.000 C 
ATOM     11  C   UNL     1       3.993   4.273  18.969  0.00  0.00    +0.000 C 
ENDROOT
BRANCH   1  15
ATOM     12  C   UNL     1       1.245   8.805  18.825  0.00  0.00    +0.000 A 
ATOM     13  C   UNL     1       1.542   8.155  20.018  0.00  0.00    +0.000 A 
ATOM     14  C   UNL     1       2.603   7.249  20.093  0.00  0.00    +0.000 A 
ATOM     15  C   UNL     1       3.389   6.954  18.966  0.00  0.00    +0.000 A 
ATOM     16  C   UNL     1       3.123   7.674  17.788  0.00  0.00    +0.000 A 
ATOM     17  C   UNL     1       2.060   8.589  17.716  0.00  0.00    +0.000 A 
BRANCH  12  19
ATOM     18  C   UNL     1      -0.376   9.933  20.148  0.00  0.00    +0.000 C 
ATOM     19  O   UNL     1       0.114   9.571  18.865  0.00  0.00    +0.000 OA
ENDBRANCH  12  19
ENDBRANCH   1  15
BRANCH   3  20
ATOM     20  C   UNL     1       5.879   3.955  16.258  0.00  0.00    +0.000 C 
BRANCH  20  21
ATOM     21  C   UNL     1       6.393   4.136  14.846  0.00  0.00    +0.000 A 
ATOM     22  C   UNL     1       5.773   3.439  13.786  0.00  0.00    +0.000 A 
ATOM     23  C   UNL     1       6.158   3.677  12.464  0.00  0.00    +0.000 A 
ATOM     24  C   UNL     1       7.152   4.604  12.203  0.00  0.00    +0.000 A 
ATOM     25  F   UNL     1       7.509   4.846  10.927  0.00  0.00    +0.000 F 
ATOM     26  C   UNL     1       7.778   5.296  13.230  0.00  0.00    +0.000 A 
ATOM     27  C   UNL     1       7.403   5.060  14.552  0.00  0.00    +0.000 A 
ENDBRANCH  20  21
ENDBRANCH   3  20
TORSDOF 4
ENDMDL
MODEL 3
REMARK VINA RESULT:      -7.7      0.770      1.183
REMARK  Name = 
REMARK  5 active torsions:
REMARK  status: ('A' for Active; 'I' for Inactive)
REMARK    1  A    between atoms: C_1  and  O_2
REMARK    2  A    between atoms: O_2  and  C_3
REMARK    3  A    between atoms: C_6  and  C_7
REMARK    4  A    between atoms: N_9  and  C_10
REMARK    5  A    between atoms: C_10  and  C_11
REMARK                            x       y       z     vdW  Elec       q    Type
REMARK                         _______ _______ _______ _____ _____    ______ ____
ROOT
ATOM      1  C   UNL     1       4.128   6.607  18.917  0.00  0.00    +0.000 C 
ATOM      2  C   UNL     1       4.915   6.916  17.621  0.00  0.00    +0.000 C 
ATOM      3  N   UNL     1       4.763   5.766  16.688  0.00  0.00    +0.000 NA
ATOM      4  C   UNL     1       4.198   4.648  17.488  0.00  0.00    +0.000 C 
ATOM      5  C   UNL     1       2.813   3.970  17.224  0.00  0.00    +0.000 C 
ATOM      6  C   UNL     1       3.065   2.545  17.776  0.00  0.00    +0.000 C 
ATOM      7  C   UNL     1       3.565   2.708  19.245  0.00  0.00    +0.000 C 
ATOM      8  N   UNL     1       3.392   4.115  19.773  0.00  0.00    +0.000 NA
ATOM      9  C   UNL     1       1.977   4.446  19.593  0.00  0.00    +0.000 C 
ATOM     10  C   UNL     1       1.612   4.438  18.097  0.00  0.00    +0.000 C 
ATOM     11  C   UNL     1       4.227   5.050  18.962  0.00  0.00    +0.000 C 
ENDROOT
BRANCH   1  15
ATOM     12  C   UNL     1       0.732   9.300  19.227  0.00  0.00    +0.000 A 
ATOM     13  C   UNL     1       1.351   9.105  17.997  0.00  0.00    +0.000 A 
ATOM     14  C   UNL     1       2.384   8.175  17.857  0.00  0.00    +0.000 A 
ATOM     15  C   UNL     1       2.840   7.424  18.954  0.00  0.00    +0.000 A 
ATOM     16  C   UNL     1       2.155   7.578  20.171  0.00  0.00    +0.000 A 
ATOM     17  C   UNL     1       1.113   8.509  20.309  0.00  0.00    +0.000 A 
BRANCH  12  19
ATOM     18  C   UNL     1      -0.262  11.088  20.437  0.00  0.00    +0.000 C 
ATOM     19  O   UNL     1      -0.179  10.318  19.247  0.00  0.00    +0.000 OA
ENDBRANCH  12  19
ENDBRANCH   1  15
BRANCH   3  20
ATOM     20  C   UNL     1       6.131   5.317  16.258  0.00  0.00    +0.000 C 
BRANCH  20  21
ATOM     21  C   UNL     1       6.289   4.784  14.851  0.00  0.00    +0.000 A 
ATOM     22  C   UNL     1       7.501   4.997  14.159  0.00  0.00    +0.000 A 
ATOM     23  C   UNL     1       7.710   4.419  12.904  0.00  0.00    +0.000 A 
ATOM     24  C   UNL     1       6.717   3.631  12.347  0.00  0.00    +0.000 A 
ATOM     25  F   UNL     1       6.926   3.059  11.146  0.00  0.00    +0.000 F 
ATOM     26  C   UNL     1       5.516   3.414  13.007  0.00  0.00    +0.000 A 
ATOM     27  C   UNL     1       5.299   3.992  14.257  0.00  0.00    +0.000 A 
ENDBRANCH  20  21
ENDBRANCH   3  20
TORSDOF 4
ENDMDL
MODEL 4
REMARK VINA RESULT:      -7.5      3.568      7.225
REMARK  Name = 
REMARK  5 active torsions:
REMARK  status: ('A' for Active; 'I' for Inactive)
REMARK    1  A    between atoms: C_1  and  O_2
REMARK    2  A    between atoms: O_2  and  C_3
REMARK    3  A    between atoms: C_6  and  C_7
REMARK    4  A    between atoms: N_9  and  C_10
REMARK    5  A    between atoms: C_10  and  C_11
REMARK                            x       y       z     vdW  Elec       q    Type
REMARK                         _______ _______ _______ _____ _____    ______ ____
ROOT
ATOM      1  C   UNL     1       2.469   5.424  17.923  0.00  0.00    +0.000 C 
ATOM      2  C   UNL     1       2.426   6.802  18.628  0.00  0.00    +0.000 C 
ATOM      3  N   UNL     1       2.375   6.580  20.099  0.00  0.00    +0.000 NA
ATOM      4  C   UNL     1       2.054   5.142  20.297  0.00  0.00    +0.000 C 
ATOM      5  C   UNL     1       2.984   4.109  21.015  0.00  0.00    +0.000 C 
ATOM      6  C   UNL     1       1.945   3.100  21.564  0.00  0.00    +0.000 C 
ATOM      7  C   UNL     1       1.080   2.633  20.353  0.00  0.00    +0.000 C 
ATOM      8  N   UNL     1       1.657   3.052  19.020  0.00  0.00    +0.000 NA
ATOM      9  C   UNL     1       3.031   2.545  18.993  0.00  0.00    +0.000 C 
ATOM     10  C   UNL     1       3.864   3.194  20.112  0.00  0.00    +0.000 C 
ATOM     11  C   UNL     1       1.680   4.543  18.942  0.00  0.00    +0.000 C 
ENDROOT
BRANCH   1  15
ATOM     12  C   UNL     1       6.342   4.890  16.028  0.00  0.00    +0.000 A 
ATOM     13  C   UNL     1       6.190   5.832  17.041  0.00  0.00    +0.000 A 
ATOM     14  C   UNL     1       4.979   5.955  17.725  0.00  0.00    +0.000 A 
ATOM     15  C   UNL     1       3.876   5.148  17.403  0.00  0.00    +0.000 A 
ATOM     16  C   UNL     1       4.068   4.151  16.430  0.00  0.00    +0.000 A 
ATOM     17  C   UNL     1       5.288   4.024  15.747  0.00  0.00    +0.000 A 
BRANCH  12  19
ATOM     18  C   UNL     1       7.491   4.950  13.948  0.00  0.00    +0.000 C 
ATOM     19  O   UNL     1       7.536   4.957  15.368  0.00  0.00    +0.000 OA
ENDBRANCH  12  19
ENDBRANCH   1  15
BRANCH   3  20
ATOM     20  C   UNL     1       1.207   7.345  20.656  0.00  0.00    +0.000 C 
BRANCH  20  21
ATOM     21  C   UNL     1       1.156   8.836  20.407  0.00  0.00    +0.000 A 
ATOM     22  C   UNL     1       1.209   9.323  19.083  0.00  0.00    +0.000 A 
ATOM     23  C   UNL     1       1.052  10.687  18.824  0.00  0.00    +0.000 A 
ATOM     24  C   UNL     1       0.840  11.557  19.880  0.00  0.00    +0.000 A 
ATOM     25  F   UNL     1       0.669  12.869  19.628  0.00  0.00    +0.000 F 
ATOM     26  C   UNL     1       0.790  11.101  21.189  0.00  0.00    +0.000 A 
ATOM     27  C   UNL     1       0.952   9.742  21.455  0.00  0.00    +0.000 A 
ENDBRANCH  20  21
ENDBRANCH   3  20
TORSDOF 4
ENDMDL
MODEL 5
REMARK VINA RESULT:      -7.0      4.644      8.392
REMARK  Name = 
REMARK  5 active torsions:
REMARK  status: ('A' for Active; 'I' for Inactive)
REMARK    1  A    between atoms: C_1  and  O_2
REMARK    2  A    between atoms: O_2  and  C_3
REMARK    3  A    between atoms: C_6  and  C_7
REMARK    4  A    between atoms: N_9  and  C_10
REMARK    5  A    between atoms: C_10  and  C_11
REMARK                            x       y       z     vdW  Elec       q    Type
REMARK                         _______ _______ _______ _____ _____    ______ ____
ROOT
ATOM      1  C   UNL     1      -1.043  11.965  19.373  0.00  0.00    +0.000 C 
ATOM      2  C   UNL     1      -0.480  10.525  19.298  0.00  0.00    +0.000 C 
ATOM      3  N   UNL     1       1.001  10.588  19.429  0.00  0.00    +0.000 NA
ATOM      4  C   UNL     1       1.380  12.014  19.249  0.00  0.00    +0.000 C 
ATOM      5  C   UNL     1       2.081  12.897  20.334  0.00  0.00    +0.000 C 
ATOM      6  C   UNL     1       2.849  13.909  19.448  0.00  0.00    +0.000 C 
ATOM      7  C   UNL     1       1.803  14.563  18.493  0.00  0.00    +0.000 C 
ATOM      8  N   UNL     1       0.375  14.253  18.883  0.00  0.00    +0.000 NA
ATOM      9  C   UNL     1       0.236  14.665  20.281  0.00  0.00    +0.000 C 
ATOM     10  C   UNL     1       1.177  13.842  21.179  0.00  0.00    +0.000 C 
ATOM     11  C   UNL     1       0.146  12.782  18.776  0.00  0.00    +0.000 C 
ENDROOT
BRANCH   1  15
ATOM     12  C   UNL     1      -3.231  12.272  23.114  0.00  0.00    +0.000 A 
ATOM     13  C   UNL     1      -2.004  11.618  23.081  0.00  0.00    +0.000 A 
ATOM     14  C   UNL     1      -1.242  11.588  21.911  0.00  0.00    +0.000 A 
ATOM     15  C   UNL     1      -1.697  12.200  20.731  0.00  0.00    +0.000 A 
ATOM     16  C   UNL     1      -2.903  12.920  20.800  0.00  0.00    +0.000 A 
ATOM     17  C   UNL     1      -3.665  12.954  21.980  0.00  0.00    +0.000 A 
BRANCH  12  19
ATOM     18  C   UNL     1      -5.229  12.671  24.339  0.00  0.00    +0.000 C 
ATOM     19  O   UNL     1      -3.920  12.123  24.285  0.00  0.00    +0.000 OA
ENDBRANCH  12  19
ENDBRANCH   1  15
BRANCH   3  20
ATOM     20  C   UNL     1       1.613   9.849  18.272  0.00  0.00    +0.000 C 
BRANCH  20  21
ATOM     21  C   UNL     1       2.139   8.453  18.525  0.00  0.00    +0.000 A 
ATOM     22  C   UNL     1       3.013   7.859  17.589  0.00  0.00    +0.000 A 
ATOM     23  C   UNL     1       3.597   6.618  17.856  0.00  0.00    +0.000 A 
ATOM     24  C   UNL     1       3.313   5.977  19.049  0.00  0.00    +0.000 A 
ATOM     25  F   UNL     1       3.892   4.790  19.314  0.00  0.00    +0.000 F 
ATOM     26  C   UNL     1       2.452   6.540  19.981  0.00  0.00    +0.000 A 
ATOM     27  C   UNL     1       1.862   7.776  19.719  0.00  0.00    +0.000 A 
ENDBRANCH  20  21
ENDBRANCH   3  20
TORSDOF 4
ENDMDL
MODEL 6
REMARK VINA RESULT:      -6.7      3.249      6.134
REMARK  Name = 
REMARK  5 active torsions:
REMARK  status: ('A' for Active; 'I' for Inactive)
REMARK    1  A    between atoms: C_1  and  O_2
REMARK    2  A    between atoms: O_2  and  C_3
REMARK    3  A    between atoms: C_6  and  C_7
REMARK    4  A    between atoms: N_9  and  C_10
REMARK    5  A    between atoms: C_10  and  C_11
REMARK                            x       y       z     vdW  Elec       q    Type
REMARK                         _______ _______ _______ _____ _____    ______ ____
ROOT
ATOM      1  C   UNL     1       0.163  10.882  18.712  0.00  0.00    +0.000 C 
ATOM      2  C   UNL     1       0.784   9.911  17.680  0.00  0.00    +0.000 C 
ATOM      3  N   UNL     1       1.301   8.717  18.404  0.00  0.00    +0.000 NA
ATOM      4  C   UNL     1       1.315   9.073  19.847  0.00  0.00    +0.000 C 
ATOM      5  C   UNL     1       0.481   8.348  20.955  0.00  0.00    +0.000 C 
ATOM      6  C   UNL     1       1.372   8.580  22.201  0.00  0.00    +0.000 C 
ATOM      7  C   UNL     1       1.609  10.118  22.311  0.00  0.00    +0.000 C 
ATOM      8  N   UNL     1       0.714  10.919  21.392  0.00  0.00    +0.000 NA
ATOM      9  C   UNL     1      -0.657  10.512  21.703  0.00  0.00    +0.000 C 
ATOM     10  C   UNL     1      -0.855   9.017  21.395  0.00  0.00    +0.000 C 
ATOM     11  C   UNL     1       1.026  10.569  19.975  0.00  0.00    +0.000 C 
ENDROOT
BRANCH   1  15
ATOM     12  C   UNL     1      -4.137  11.045  18.103  0.00  0.00    +0.000 A 
ATOM     13  C   UNL     1      -3.414   9.944  17.653  0.00  0.00    +0.000 A 
ATOM     14  C   UNL     1      -2.048   9.829  17.920  0.00  0.00    +0.000 A 
ATOM     15  C   UNL     1      -1.359  10.826  18.632  0.00  0.00    +0.000 A 
ATOM     16  C   UNL     1      -2.117  11.894  19.144  0.00  0.00    +0.000 A 
ATOM     17  C   UNL     1      -3.492  12.005  18.880  0.00  0.00    +0.000 A 
BRANCH  12  19
ATOM     18  C   UNL     1      -6.435  10.708  18.605  0.00  0.00    +0.000 C 
ATOM     19  O   UNL     1      -5.433  11.084  17.672  0.00  0.00    +0.000 OA
ENDBRANCH  12  19
ENDBRANCH   1  15
BRANCH   3  20
ATOM     20  C   UNL     1       2.737   8.509  18.015  0.00  0.00    +0.000 C 
BRANCH  20  21
ATOM     21  C   UNL     1       3.217   7.088  17.817  0.00  0.00    +0.000 A 
ATOM     22  C   UNL     1       2.377   6.013  18.180  0.00  0.00    +0.000 A 
ATOM     23  C   UNL     1       2.754   4.696  17.902  0.00  0.00    +0.000 A 
ATOM     24  C   UNL     1       3.958   4.456  17.264  0.00  0.00    +0.000 A 
ATOM     25  F   UNL     1       4.312   3.188  16.979  0.00  0.00    +0.000 F 
ATOM     26  C   UNL     1       4.802   5.497  16.903  0.00  0.00    +0.000 A 
ATOM     27  C   UNL     1       4.435   6.813  17.182  0.00  0.00    +0.000 A 
ENDBRANCH  20  21
ENDBRANCH   3  20
TORSDOF 4
ENDMDL
MODEL 7
REMARK VINA RESULT:      -6.5      4.558      8.260
REMARK  Name = 
REMARK  5 active torsions:
REMARK  status: ('A' for Active; 'I' for Inactive)
REMARK    1  A    between atoms: C_1  and  O_2
REMARK    2  A    between atoms: O_2  and  C_3
REMARK    3  A    between atoms: C_6  and  C_7
REMARK    4  A    between atoms: N_9  and  C_10
REMARK    5  A    between atoms: C_10  and  C_11
REMARK                            x       y       z     vdW  Elec       q    Type
REMARK                         _______ _______ _______ _____ _____    ______ ____
ROOT
ATOM      1  C   UNL     1      -1.075  11.771  19.198  0.00  0.00    +0.000 C 
ATOM      2  C   UNL     1      -0.460  10.353  19.127  0.00  0.00    +0.000 C 
ATOM      3  N   UNL     1       1.009  10.461  19.346  0.00  0.00    +0.000 NA
ATOM      4  C   UNL     1       1.348  11.903  19.219  0.00  0.00    +0.000 C 
ATOM      5  C   UNL     1       1.954  12.783  20.362  0.00  0.00    +0.000 C 
ATOM      6  C   UNL     1       2.738  13.840  19.544  0.00  0.00    +0.000 C 
ATOM      7  C   UNL     1       1.727  14.481  18.543  0.00  0.00    +0.000 C 
ATOM      8  N   UNL     1       0.291  14.115  18.841  0.00  0.00    +0.000 NA
ATOM      9  C   UNL     1       0.056  14.491  20.237  0.00  0.00    +0.000 C 
ATOM     10  C   UNL     1       0.970  13.678  21.171  0.00  0.00    +0.000 C 
ATOM     11  C   UNL     1       0.118  12.640  18.690  0.00  0.00    +0.000 C 
ENDROOT
BRANCH   1  15
ATOM     12  C   UNL     1      -2.834  12.631  23.077  0.00  0.00    +0.000 A 
ATOM     13  C   UNL     1      -3.411  13.152  21.924  0.00  0.00    +0.000 A 
ATOM     14  C   UNL     1      -2.917  12.814  20.662  0.00  0.00    +0.000 A 
ATOM     15  C   UNL     1      -1.815  11.953  20.519  0.00  0.00    +0.000 A 
ATOM     16  C   UNL     1      -1.291  11.376  21.689  0.00  0.00    +0.000 A 
ATOM     17  C   UNL     1      -1.793  11.713  22.957  0.00  0.00    +0.000 A 
BRANCH  12  19
ATOM     18  C   UNL     1      -3.443  14.548  24.342  0.00  0.00    +0.000 C 
ATOM     19  O   UNL     1      -3.341  13.135  24.241  0.00  0.00    +0.000 OA
ENDBRANCH  12  19
ENDBRANCH   1  15
BRANCH   3  20
ATOM     20  C   UNL     1       1.712   9.769  18.213  0.00  0.00    +0.000 C 
BRANCH  20  21
ATOM     21  C   UNL     1       2.243   8.374  18.458  0.00  0.00    +0.000 A 
ATOM     22  C   UNL     1       3.138   7.797  17.531  0.00  0.00    +0.000 A 
ATOM     23  C   UNL     1       3.726   6.557  17.793  0.00  0.00    +0.000 A 
ATOM     24  C   UNL     1       3.425   5.900  18.974  0.00  0.00    +0.000 A 
ATOM     25  F   UNL     1       4.007   4.714  19.235  0.00  0.00    +0.000 F 
ATOM     26  C   UNL     1       2.544   6.446  19.897  0.00  0.00    +0.000 A 
ATOM     27  C   UNL     1       1.950   7.681  19.640  0.00  0.00    +0.000 A 
ENDBRANCH  20  21
ENDBRANCH   3  20
TORSDOF 4
ENDMDL
MODEL 8
REMARK VINA RESULT:      -6.5      3.212      6.154
REMARK  Name = 
REMARK  5 active torsions:
REMARK  status: ('A' for Active; 'I' for Inactive)
REMARK    1  A    between atoms: C_1  and  O_2
REMARK    2  A    between atoms: O_2  and  C_3
REMARK    3  A    between atoms: C_6  and  C_7
REMARK    4  A    between atoms: N_9  and  C_10
REMARK    5  A    between atoms: C_10  and  C_11
REMARK                            x       y       z     vdW  Elec       q    Type
REMARK                         _______ _______ _______ _____ _____    ______ ____
ROOT
ATOM      1  C   UNL     1       0.226  10.833  18.687  0.00  0.00    +0.000 C 
ATOM      2  C   UNL     1       0.838   9.824  17.685  0.00  0.00    +0.000 C 
ATOM      3  N   UNL     1       1.333   8.643  18.445  0.00  0.00    +0.000 NA
ATOM      4  C   UNL     1       1.344   9.039  19.878  0.00  0.00    +0.000 C 
ATOM      5  C   UNL     1       0.493   8.357  21.000  0.00  0.00    +0.000 C 
ATOM      6  C   UNL     1       1.380   8.610  22.245  0.00  0.00    +0.000 C 
ATOM      7  C   UNL     1       1.640  10.147  22.313  0.00  0.00    +0.000 C 
ATOM      8  N   UNL     1       0.762  10.936  21.368  0.00  0.00    +0.000 NA
ATOM      9  C   UNL     1      -0.617  10.557  21.681  0.00  0.00    +0.000 C 
ATOM     10  C   UNL     1      -0.835   9.057  21.413  0.00  0.00    +0.000 C 
ATOM     11  C   UNL     1       1.077  10.541  19.962  0.00  0.00    +0.000 C 
ENDROOT
BRANCH   1  15
ATOM     12  C   UNL     1      -4.068  11.056  18.058  0.00  0.00    +0.000 A 
ATOM     13  C   UNL     1      -3.357   9.951  17.600  0.00  0.00    +0.000 A 
ATOM     14  C   UNL     1      -1.994   9.816  17.872  0.00  0.00    +0.000 A 
ATOM     15  C   UNL     1      -1.297  10.796  18.599  0.00  0.00    +0.000 A 
ATOM     16  C   UNL     1      -2.043  11.868  19.118  0.00  0.00    +0.000 A 
ATOM     17  C   UNL     1      -3.415  12.000  18.849  0.00  0.00    +0.000 A 
BRANCH  12  19
ATOM     18  C   UNL     1      -5.840  12.383  17.193  0.00  0.00    +0.000 C 
ATOM     19  O   UNL     1      -5.361  11.117  17.622  0.00  0.00    +0.000 OA
ENDBRANCH  12  19
ENDBRANCH   1  15
BRANCH   3  20
ATOM     20  C   UNL     1       2.768   8.403  18.071  0.00  0.00    +0.000 C 
BRANCH  20  21
ATOM     21  C   UNL     1       3.182   6.990  17.723  0.00  0.00    +0.000 A 
ATOM     22  C   UNL     1       4.430   6.763  17.106  0.00  0.00    +0.000 A 
ATOM     23  C   UNL     1       4.879   5.459  16.878  0.00  0.00    +0.000 A 
ATOM     24  C   UNL     1       4.088   4.391  17.267  0.00  0.00    +0.000 A 
ATOM     25  F   UNL     1       4.529   3.135  17.064  0.00  0.00    +0.000 F 
ATOM     26  C   UNL     1       2.854   4.593  17.870  0.00  0.00    +0.000 A 
ATOM     27  C   UNL     1       2.398   5.891  18.096  0.00  0.00    +0.000 A 
ENDBRANCH  20  21
ENDBRANCH   3  20
TORSDOF 4
ENDMDL
MODEL 9
REMARK VINA RESULT:      -6.5      3.761      7.476
REMARK  Name = 
REMARK  5 active torsions:
REMARK  status: ('A' for Active; 'I' for Inactive)
REMARK    1  A    between atoms: C_1  and  O_2
REMARK    2  A    between atoms: O_2  and  C_3
REMARK    3  A    between atoms: C_6  and  C_7
REMARK    4  A    between atoms: N_9  and  C_10
REMARK    5  A    between atoms: C_10  and  C_11
REMARK                            x       y       z     vdW  Elec       q    Type
REMARK                         _______ _______ _______ _____ _____    ______ ____
ROOT
ATOM      1  C   UNL     1       2.152   5.435  18.057  0.00  0.00    +0.000 C 
ATOM      2  C   UNL     1       2.001   6.738  18.878  0.00  0.00    +0.000 C 
ATOM      3  N   UNL     1       2.175   6.413  20.320  0.00  0.00    +0.000 NA
ATOM      4  C   UNL     1       2.097   4.933  20.430  0.00  0.00    +0.000 C 
ATOM      5  C   UNL     1       3.254   4.011  20.940  0.00  0.00    +0.000 C 
ATOM      6  C   UNL     1       2.455   2.818  21.520  0.00  0.00    +0.000 C 
ATOM      7  C   UNL     1       1.516   2.304  20.385  0.00  0.00    +0.000 C 
ATOM      8  N   UNL     1       1.847   2.897  19.034  0.00  0.00    +0.000 NA
ATOM      9  C   UNL     1       3.264   2.613  18.800  0.00  0.00    +0.000 C 
ATOM     10  C   UNL     1       4.132   3.308  19.864  0.00  0.00    +0.000 C 
ATOM     11  C   UNL     1       1.640   4.375  19.083  0.00  0.00    +0.000 C 
ENDROOT
BRANCH   1  15
ATOM     12  C   UNL     1       6.178   5.144  16.449  0.00  0.00    +0.000 A 
ATOM     13  C   UNL     1       5.184   4.288  15.986  0.00  0.00    +0.000 A 
ATOM     14  C   UNL     1       3.864   4.425  16.422  0.00  0.00    +0.000 A 
ATOM     15  C   UNL     1       3.503   5.416  17.350  0.00  0.00    +0.000 A 
ATOM     16  C   UNL     1       4.503   6.320  17.751  0.00  0.00    +0.000 A 
ATOM     17  C   UNL     1       5.829   6.185  17.307  0.00  0.00    +0.000 A 
BRANCH  12  19
ATOM     18  C   UNL     1       7.681   4.842  14.632  0.00  0.00    +0.000 C 
ATOM     19  O   UNL     1       7.439   4.824  16.031  0.00  0.00    +0.000 OA
ENDBRANCH  12  19
ENDBRANCH   1  15
BRANCH   3  20
ATOM     20  C   UNL     1       0.991   6.947  21.076  0.00  0.00    +0.000 C 
BRANCH  20  21
ATOM     21  C   UNL     1       0.824   8.449  21.158  0.00  0.00    +0.000 A 
ATOM     22  C   UNL     1       1.094   9.241  20.021  0.00  0.00    +0.000 A 
ATOM     23  C   UNL     1       0.840  10.616  20.042  0.00  0.00    +0.000 A 
ATOM     24  C   UNL     1       0.317  11.192  21.187  0.00  0.00    +0.000 A 
ATOM     25  F   UNL     1       0.055  12.513  21.200  0.00  0.00    +0.000 F 
ATOM     26  C   UNL     1       0.050  10.432  22.317  0.00  0.00    +0.000 A 
ATOM     27  C   UNL     1       0.306   9.061  22.306  0.00  0.00    +0.000 A 
ENDBRANCH  20  21
ENDBRANCH   3  20
TORSDOF 4
ENDMDL
