MODEL 1
REMARK VINA RESULT:      -7.3      0.000      0.000
REMARK  Name = 
REMARK  12 active torsions:
REMARK  status: ('A' for Active; 'I' for Inactive)
REMARK    1  A    between atoms: C_1  and  C_2
REMARK    2  A    between atoms: C_2  and  C_17
REMARK    3  A    between atoms: C_3  and  C_4
REMARK    4  A    between atoms: C_4  and  O_5
REMARK    5  A    between atoms: O_5  and  C_6
REMARK    6  A    between atoms: C_17  and  C_18
REMARK    7  A    between atoms: C_18  and  C_19
REMARK    8  A    between atoms: C_19  and  O_20
REMARK    9  A    between atoms: C_19  and  C_21
REMARK   10  A    between atoms: C_21  and  C_22
REMARK   11  A    between atoms: C_21  and  C_23
REMARK   12  A    between atoms: C_21  and  O_24
REMARK                            x       y       z     vdW  Elec       q    Type
REMARK                         _______ _______ _______ _____ _____    ______ ____
ROOT
ATOM      1  C   UNL     1       4.830   3.524  18.894  0.00  0.00    +0.000 C 
ATOM      2  C   UNL     1       4.148   3.973  17.629  0.00  0.00    +0.000 C 
ATOM      3  C   UNL     1       2.967   4.628  17.594  0.00  0.00    +0.000 C 
ENDROOT
BRANCH   3   4
ATOM      4  C   UNL     1       2.164   5.102  18.768  0.00  0.00    +0.000 C 
BRANCH   4   5
ATOM      5  O   UNL     1       2.878   6.153  19.421  0.00  0.00    +0.000 OA
BRANCH   5   6
ATOM      6  C   UNL     1       2.199   7.334  19.577  0.00  0.00    +0.000 A 
ATOM      7  C   UNL     1       2.040   8.093  18.411  0.00  0.00    +0.000 A 
ATOM      8  C   UNL     1       1.379   9.329  18.442  0.00  0.00    +0.000 A 
ATOM      9  C   UNL     1       0.867   9.815  19.646  0.00  0.00    +0.000 A 
ATOM     10  C   UNL     1       0.186  11.095  19.749  0.00  0.00    +0.000 A 
ATOM     11  C   UNL     1      -0.290  11.494  20.933  0.00  0.00    +0.000 A 
ATOM     12  C   UNL     1      -0.155  10.683  22.154  0.00  0.00    +0.000 A 
ATOM     13  O   UNL     1      -0.620  11.071  23.220  0.00  0.00    +0.000 OA
ATOM     14  O   UNL     1       0.517   9.476  22.037  0.00  0.00    +0.000 OA
ATOM     15  C   UNL     1       1.024   9.044  20.794  0.00  0.00    +0.000 A 
ATOM     16  C   UNL     1       1.682   7.817  20.777  0.00  0.00    +0.000 A 
ENDBRANCH   5   6
ENDBRANCH   4   5
ENDBRANCH   3   4
BRANCH   2  17
ATOM     17  C   UNL     1       4.870   3.616  16.342  0.00  0.00    +0.000 C 
BRANCH  17  18
ATOM     18  C   UNL     1       5.456   4.872  15.690  0.00  0.00    +0.000 C 
BRANCH  18  19
ATOM     19  C   UNL     1       6.892   5.168  16.137  0.00  0.00    +0.000 C 
BRANCH  19  20
ATOM     20  C   UNL     1       7.010   6.346  17.152  0.00  0.00    +0.000 C 
ATOM     21  C   UNL     1       5.688   7.092  17.363  0.00  0.00    +0.000 C 
ATOM     22  C   UNL     1       7.573   5.884  18.496  0.00  0.00    +0.000 C 
BRANCH  20  23
ATOM     23  O   UNL     1       7.939   7.299  16.609  0.00  0.00    +0.000 OA
ATOM     24  H   UNL     1       7.497   7.687  15.827  0.00  0.00    +0.000 HD
ENDBRANCH  20  23
ENDBRANCH  19  20
BRANCH  19  25
ATOM     25  O   UNL     1       7.716   5.463  14.995  0.00  0.00    +0.000 OA
ATOM     26  H   UNL     1       7.302   6.192  14.501  0.00  0.00    +0.000 HD
ENDBRANCH  19  25
ENDBRANCH  18  19
ENDBRANCH  17  18
ENDBRANCH   2  17
TORSDOF 9
ENDMDL
MODEL 2
REMARK VINA RESULT:      -7.1      2.456      8.956
REMARK  Name = 
REMARK  12 active torsions:
REMARK  status: ('A' for Active; 'I' for Inactive)
REMARK    1  A    between atoms: C_1  and  C_2
REMARK    2  A    between atoms: C_2  and  C_17
REMARK    3  A    between atoms: C_3  and  C_4
REMARK    4  A    between atoms: C_4  and  O_5
REMARK    5  A    between atoms: O_5  and  C_6
REMARK    6  A    between atoms: C_17  and  C_18
REMARK    7  A    between atoms: C_18  and  C_19
REMARK    8  A    between atoms: C_19  and  O_20
REMARK    9  A    between atoms: C_19  and  C_21
REMARK   10  A    between atoms: C_21  and  C_22
REMARK   11  A    between atoms: C_21  and  C_23
REMARK   12  A    between atoms: C_21  and  O_24
REMARK                            x       y       z     vdW  Elec       q    Type
REMARK                         _______ _______ _______ _____ _____    ______ ____
ROOT
ATOM      1  C   UNL     1       0.177   9.260  20.561  0.00  0.00    +0.000 C 
ATOM      2  C   UNL     1       0.551  10.378  19.625  0.00  0.00    +0.000 C 
ATOM      3  C   UNL     1       1.170  10.199  18.438  0.00  0.00    +0.000 C 
ENDROOT
BRANCH   3   4
ATOM      4  C   UNL     1       1.521   8.893  17.792  0.00  0.00    +0.000 C 
BRANCH   4   5
ATOM      5  O   UNL     1       2.467   8.210  18.615  0.00  0.00    +0.000 OA
BRANCH   5   6
ATOM      6  C   UNL     1       3.132   7.165  18.028  0.00  0.00    +0.000 A 
ATOM      7  C   UNL     1       2.587   5.897  18.265  0.00  0.00    +0.000 A 
ATOM      8  C   UNL     1       3.185   4.746  17.734  0.00  0.00    +0.000 A 
ATOM      9  C   UNL     1       4.337   4.857  16.954  0.00  0.00    +0.000 A 
ATOM     10  C   UNL     1       5.015   3.702  16.388  0.00  0.00    +0.000 A 
ATOM     11  C   UNL     1       6.109   3.882  15.640  0.00  0.00    +0.000 A 
ATOM     12  C   UNL     1       6.666   5.216  15.360  0.00  0.00    +0.000 A 
ATOM     13  O   UNL     1       7.660   5.346  14.656  0.00  0.00    +0.000 OA
ATOM     14  O   UNL     1       6.016   6.301  15.929  0.00  0.00    +0.000 OA
ATOM     15  C   UNL     1       4.861   6.124  16.719  0.00  0.00    +0.000 A 
ATOM     16  C   UNL     1       4.279   7.275  17.244  0.00  0.00    +0.000 A 
ENDBRANCH   5   6
ENDBRANCH   4   5
ENDBRANCH   3   4
BRANCH   2  17
ATOM     17  C   UNL     1       0.209  11.774  20.113  0.00  0.00    +0.000 C 
BRANCH  17  18
ATOM     18  C   UNL     1      -0.743  12.466  19.133  0.00  0.00    +0.000 C 
BRANCH  18  19
ATOM     19  C   UNL     1      -2.170  11.909  19.184  0.00  0.00    +0.000 C 
BRANCH  19  20
ATOM     20  C   UNL     1      -2.684  11.357  17.819  0.00  0.00    +0.000 C 
ATOM     21  C   UNL     1      -2.400   9.864  17.629  0.00  0.00    +0.000 C 
ATOM     22  C   UNL     1      -4.173  11.639  17.616  0.00  0.00    +0.000 C 
BRANCH  20  23
ATOM     23  O   UNL     1      -1.977  12.048  16.775  0.00  0.00    +0.000 OA
ATOM     24  H   UNL     1      -2.663  12.488  16.235  0.00  0.00    +0.000 HD
ENDBRANCH  20  23
ENDBRANCH  19  20
BRANCH  19  25
ATOM     25  O   UNL     1      -3.083  12.923  19.641  0.00  0.00    +0.000 OA
ATOM     26  H   UNL     1      -3.561  12.575  20.413  0.00  0.00    +0.000 HD
ENDBRANCH  19  25
ENDBRANCH  18  19
ENDBRANCH  17  18
ENDBRANCH   2  17
TORSDOF 9
ENDMDL
MODEL 3
REMARK VINA RESULT:      -6.8      0.874      1.098
REMARK  Name = 
REMARK  12 active torsions:
REMARK  status: ('A' for Active; 'I' for Inactive)
REMARK    1  A    between atoms: C_1  and  C_2
REMARK    2  A    between atoms: C_2  and  C_17
REMARK    3  A    between atoms: C_3  and  C_4
REMARK    4  A    between atoms: C_4  and  O_5
REMARK    5  A    between atoms: O_5  and  C_6
REMARK    6  A    between atoms: C_17  and  C_18
REMARK    7  A    between atoms: C_18  and  C_19
REMARK    8  A    between atoms: C_19  and  O_20
REMARK    9  A    between atoms: C_19  and  C_21
REMARK   10  A    between atoms: C_21  and  C_22
REMARK   11  A    between atoms: C_21  and  C_23
REMARK   12  A    between atoms: C_21  and  O_24
REMARK                            x       y       z     vdW  Elec       q    Type
REMARK                         _______ _______ _______ _____ _____    ______ ____
ROOT
ATOM      1  C   UNL     1       4.796   3.414  18.836  0.00  0.00    +0.000 C 
ATOM      2  C   UNL     1       4.392   4.119  17.569  0.00  0.00    +0.000 C 
ATOM      3  C   UNL     1       3.310   4.921  17.458  0.00  0.00    +0.000 C 
ENDROOT
BRANCH   3   4
ATOM      4  C   UNL     1       2.373   5.328  18.554  0.00  0.00    +0.000 C 
BRANCH   4   5
ATOM      5  O   UNL     1       2.984   6.365  19.322  0.00  0.00    +0.000 OA
BRANCH   5   6
ATOM      6  C   UNL     1       2.220   7.482  19.540  0.00  0.00    +0.000 A 
ATOM      7  C   UNL     1       2.037   8.310  18.426  0.00  0.00    +0.000 A 
ATOM      8  C   UNL     1       1.290   9.493  18.523  0.00  0.00    +0.000 A 
ATOM      9  C   UNL     1       0.714   9.854  19.743  0.00  0.00    +0.000 A 
ATOM     10  C   UNL     1      -0.058  11.073  19.915  0.00  0.00    +0.000 A 
ATOM     11  C   UNL     1      -0.591  11.352  21.108  0.00  0.00    +0.000 A 
ATOM     12  C   UNL     1      -0.430  10.467  22.274  0.00  0.00    +0.000 A 
ATOM     13  O   UNL     1      -0.947  10.744  23.349  0.00  0.00    +0.000 OA
ATOM     14  O   UNL     1       0.329   9.320  22.092  0.00  0.00    +0.000 OA
ATOM     15  C   UNL     1       0.896   9.015  20.837  0.00  0.00    +0.000 A 
ATOM     16  C   UNL     1       1.640   7.840  20.755  0.00  0.00    +0.000 A 
ENDBRANCH   5   6
ENDBRANCH   4   5
ENDBRANCH   3   4
BRANCH   2  17
ATOM     17  C   UNL     1       5.281   3.853  16.368  0.00  0.00    +0.000 C 
BRANCH  17  18
ATOM     18  C   UNL     1       6.713   4.319  16.647  0.00  0.00    +0.000 C 
BRANCH  18  19
ATOM     19  C   UNL     1       6.928   5.810  16.364  0.00  0.00    +0.000 C 
BRANCH  19  20
ATOM     20  C   UNL     1       6.977   6.697  17.645  0.00  0.00    +0.000 C 
ATOM     21  C   UNL     1       7.473   5.941  18.882  0.00  0.00    +0.000 C 
ATOM     22  C   UNL     1       7.814   7.959  17.430  0.00  0.00    +0.000 C 
BRANCH  20  23
ATOM     23  O   UNL     1       5.635   7.124  17.932  0.00  0.00    +0.000 OA
ATOM     24  H   UNL     1       5.069   6.692  17.262  0.00  0.00    +0.000 HD
ENDBRANCH  20  23
ENDBRANCH  19  20
BRANCH  19  25
ATOM     25  O   UNL     1       5.889   6.306  15.502  0.00  0.00    +0.000 OA
ATOM     26  H   UNL     1       6.303   6.855  14.813  0.00  0.00    +0.000 HD
ENDBRANCH  19  25
ENDBRANCH  18  19
ENDBRANCH  17  18
ENDBRANCH   2  17
TORSDOF 9
ENDMDL
MODEL 4
REMARK VINA RESULT:      -6.8      2.575      4.311
REMARK  Name = 
REMARK  12 active torsions:
REMARK  status: ('A' for Active; 'I' for Inactive)
REMARK    1  A    between atoms: C_1  and  C_2
REMARK    2  A    between atoms: C_2  and  C_17
REMARK    3  A    between atoms: C_3  and  C_4
REMARK    4  A    between atoms: C_4  and  O_5
REMARK    5  A    between atoms: O_5  and  C_6
REMARK    6  A    between atoms: C_17  and  C_18
REMARK    7  A    between atoms: C_18  and  C_19
REMARK    8  A    between atoms: C_19  and  O_20
REMARK    9  A    between atoms: C_19  and  C_21
REMARK   10  A    between atoms: C_21  and  C_22
REMARK   11  A    between atoms: C_21  and  C_23
REMARK   12  A    between atoms: C_21  and  O_24
REMARK                            x       y       z     vdW  Elec       q    Type
REMARK                         _______ _______ _______ _____ _____    ______ ____
ROOT
ATOM      1  C   UNL     1       5.411   5.911  17.861  0.00  0.00    +0.000 C 
ATOM      2  C   UNL     1       3.958   5.596  17.626  0.00  0.00    +0.000 C 
ATOM      3  C   UNL     1       2.955   6.491  17.761  0.00  0.00    +0.000 C 
ENDROOT
BRANCH   3   4
ATOM      4  C   UNL     1       3.085   7.950  18.077  0.00  0.00    +0.000 C 
BRANCH   4   5
ATOM      5  O   UNL     1       1.796   8.558  17.990  0.00  0.00    +0.000 OA
BRANCH   5   6
ATOM      6  C   UNL     1       1.245   8.970  19.176  0.00  0.00    +0.000 A 
ATOM      7  C   UNL     1       1.654   8.255  20.308  0.00  0.00    +0.000 A 
ATOM      8  C   UNL     1       1.149   8.569  21.578  0.00  0.00    +0.000 A 
ATOM      9  C   UNL     1       0.229   9.608  21.724  0.00  0.00    +0.000 A 
ATOM     10  C   UNL     1      -0.345   9.973  23.009  0.00  0.00    +0.000 A 
ATOM     11  C   UNL     1      -1.213  10.987  23.079  0.00  0.00    +0.000 A 
ATOM     12  C   UNL     1      -1.620  11.763  21.895  0.00  0.00    +0.000 A 
ATOM     13  O   UNL     1      -2.405  12.699  21.998  0.00  0.00    +0.000 OA
ATOM     14  O   UNL     1      -1.077  11.383  20.677  0.00  0.00    +0.000 OA
ATOM     15  C   UNL     1      -0.160  10.315  20.591  0.00  0.00    +0.000 A 
ATOM     16  C   UNL     1       0.331  10.011  19.324  0.00  0.00    +0.000 A 
ENDBRANCH   5   6
ENDBRANCH   4   5
ENDBRANCH   3   4
BRANCH   2  17
ATOM     17  C   UNL     1       3.662   4.158  17.239  0.00  0.00    +0.000 C 
BRANCH  17  18
ATOM     18  C   UNL     1       3.473   3.295  18.491  0.00  0.00    +0.000 C 
BRANCH  18  19
ATOM     19  C   UNL     1       2.001   3.095  18.869  0.00  0.00    +0.000 C 
BRANCH  19  20
ATOM     20  C   UNL     1       1.693   3.356  20.375  0.00  0.00    +0.000 C 
ATOM     21  C   UNL     1       2.676   2.657  21.319  0.00  0.00    +0.000 C 
ATOM     22  C   UNL     1       1.631   4.850  20.692  0.00  0.00    +0.000 C 
BRANCH  20  23
ATOM     23  O   UNL     1       0.393   2.810  20.655  0.00  0.00    +0.000 OA
ATOM     24  H   UNL     1      -0.093   3.511  21.134  0.00  0.00    +0.000 HD
ENDBRANCH  20  23
ENDBRANCH  19  20
BRANCH  19  25
ATOM     25  O   UNL     1       1.581   1.760  18.539  0.00  0.00    +0.000 OA
ATOM     26  H   UNL     1       0.743   1.582  19.002  0.00  0.00    +0.000 HD
ENDBRANCH  19  25
ENDBRANCH  18  19
ENDBRANCH  17  18
ENDBRANCH   2  17
TORSDOF 9
ENDMDL
MODEL 5
REMARK VINA RESULT:      -6.8      2.939      8.953
REMARK  Name = 
REMARK  12 active torsions:
REMARK  status: ('A' for Active; 'I' for Inactive)
REMARK    1  A    between atoms: C_1  and  C_2
REMARK    2  A    between atoms: C_2  and  C_17
REMARK    3  A    between atoms: C_3  and  C_4
REMARK    4  A    between atoms: C_4  and  O_5
REMARK    5  A    between atoms: O_5  and  C_6
REMARK    6  A    between atoms: C_17  and  C_18
REMARK    7  A    between atoms: C_18  and  C_19
REMARK    8  A    between atoms: C_19  and  O_20
REMARK    9  A    between atoms: C_19  and  C_21
REMARK   10  A    between atoms: C_21  and  C_22
REMARK   11  A    between atoms: C_21  and  C_23
REMARK   12  A    between atoms: C_21  and  O_24
REMARK                            x       y       z     vdW  Elec       q    Type
REMARK                         _______ _______ _______ _____ _____    ______ ____
ROOT
ATOM      1  C   UNL     1       0.868   9.103  20.681  0.00  0.00    +0.000 C 
ATOM      2  C   UNL     1       0.519   9.896  19.449  0.00  0.00    +0.000 C 
ATOM      3  C   UNL     1       1.259   9.908  18.319  0.00  0.00    +0.000 C 
ENDROOT
BRANCH   3   4
ATOM      4  C   UNL     1       2.487   9.095  18.036  0.00  0.00    +0.000 C 
BRANCH   4   5
ATOM      5  O   UNL     1       2.269   7.758  18.488  0.00  0.00    +0.000 OA
BRANCH   5   6
ATOM      6  C   UNL     1       3.032   6.790  17.889  0.00  0.00    +0.000 A 
ATOM      7  C   UNL     1       2.581   5.476  18.066  0.00  0.00    +0.000 A 
ATOM      8  C   UNL     1       3.284   4.394  17.518  0.00  0.00    +0.000 A 
ATOM      9  C   UNL     1       4.448   4.621  16.781  0.00  0.00    +0.000 A 
ATOM     10  C   UNL     1       5.231   3.544  16.199  0.00  0.00    +0.000 A 
ATOM     11  C   UNL     1       6.329   3.834  15.495  0.00  0.00    +0.000 A 
ATOM     12  C   UNL     1       6.788   5.216  15.277  0.00  0.00    +0.000 A 
ATOM     13  O   UNL     1       7.790   5.447  14.610  0.00  0.00    +0.000 OA
ATOM     14  O   UNL     1       6.037   6.226  15.859  0.00  0.00    +0.000 OA
ATOM     15  C   UNL     1       4.877   5.933  16.604  0.00  0.00    +0.000 A 
ATOM     16  C   UNL     1       4.190   7.016  17.147  0.00  0.00    +0.000 A 
ENDBRANCH   5   6
ENDBRANCH   4   5
ENDBRANCH   3   4
BRANCH   2  17
ATOM     17  C   UNL     1      -0.740  10.737  19.555  0.00  0.00    +0.000 C 
BRANCH  17  18
ATOM     18  C   UNL     1      -1.789  10.260  18.546  0.00  0.00    +0.000 C 
BRANCH  18  19
ATOM     19  C   UNL     1      -2.511  11.411  17.837  0.00  0.00    +0.000 C 
BRANCH  19  20
ATOM     20  C   UNL     1      -3.598  10.946  16.821  0.00  0.00    +0.000 C 
ATOM     21  C   UNL     1      -4.885  11.774  16.896  0.00  0.00    +0.000 C 
ATOM     22  C   UNL     1      -3.066  10.930  15.387  0.00  0.00    +0.000 C 
BRANCH  20  23
ATOM     23  O   UNL     1      -3.957   9.594  17.153  0.00  0.00    +0.000 OA
ATOM     24  H   UNL     1      -4.188   9.164  16.306  0.00  0.00    +0.000 HD
ENDBRANCH  20  23
ENDBRANCH  19  20
BRANCH  19  25
ATOM     25  O   UNL     1      -1.562  12.242  17.146  0.00  0.00    +0.000 OA
ATOM     26  H   UNL     1      -1.855  13.166  17.223  0.00  0.00    +0.000 HD
ENDBRANCH  19  25
ENDBRANCH  18  19
ENDBRANCH  17  18
ENDBRANCH   2  17
TORSDOF 9
ENDMDL
MODEL 6
REMARK VINA RESULT:      -6.7      5.680      8.549
REMARK  Name = 
REMARK  12 active torsions:
REMARK  status: ('A' for Active; 'I' for Inactive)
REMARK    1  A    between atoms: C_1  and  C_2
REMARK    2  A    between atoms: C_2  and  C_17
REMARK    3  A    between atoms: C_3  and  C_4
REMARK    4  A    between atoms: C_4  and  O_5
REMARK    5  A    between atoms: O_5  and  C_6
REMARK    6  A    between atoms: C_17  and  C_18
REMARK    7  A    between atoms: C_18  and  C_19
REMARK    8  A    between atoms: C_19  and  O_20
REMARK    9  A    between atoms: C_19  and  C_21
REMARK   10  A    between atoms: C_21  and  C_22
REMARK   11  A    between atoms: C_21  and  C_23
REMARK   12  A    between atoms: C_21  and  O_24
REMARK                            x       y       z     vdW  Elec       q    Type
REMARK                         _______ _______ _______ _____ _____    ______ ____
ROOT
ATOM      1  C   UNL     1       7.864   5.925  18.639  0.00  0.00    +0.000 C 
ATOM      2  C   UNL     1       6.994   6.788  17.764  0.00  0.00    +0.000 C 
ATOM      3  C   UNL     1       7.226   8.096  17.516  0.00  0.00    +0.000 C 
ENDROOT
BRANCH   3   4
ATOM      4  C   UNL     1       8.402   8.906  17.974  0.00  0.00    +0.000 C 
BRANCH   4   5
ATOM      5  O   UNL     1       8.029  10.284  18.004  0.00  0.00    +0.000 OA
BRANCH   5   6
ATOM      6  C   UNL     1       9.037  11.174  18.268  0.00  0.00    +0.000 A 
ATOM      7  C   UNL     1       9.994  10.739  19.193  0.00  0.00    +0.000 A 
ATOM      8  C   UNL     1      11.066  11.564  19.562  0.00  0.00    +0.000 A 
ATOM      9  C   UNL     1      11.190  12.836  19.000  0.00  0.00    +0.000 A 
ATOM     10  C   UNL     1      12.268  13.746  19.351  0.00  0.00    +0.000 A 
ATOM     11  C   UNL     1      12.333  14.946  18.766  0.00  0.00    +0.000 A 
ATOM     12  C   UNL     1      11.349  15.394  17.767  0.00  0.00    +0.000 A 
ATOM     13  O   UNL     1      11.448  16.494  17.237  0.00  0.00    +0.000 OA
ATOM     14  O   UNL     1      10.317  14.518  17.465  0.00  0.00    +0.000 OA
ATOM     15  C   UNL     1      10.238  13.250  18.075  0.00  0.00    +0.000 A 
ATOM     16  C   UNL     1       9.166  12.441  17.704  0.00  0.00    +0.000 A 
ENDBRANCH   5   6
ENDBRANCH   4   5
ENDBRANCH   3   4
BRANCH   2  17
ATOM     17  C   UNL     1       5.781   6.095  17.172  0.00  0.00    +0.000 C 
BRANCH  17  18
ATOM     18  C   UNL     1       4.803   5.688  18.278  0.00  0.00    +0.000 C 
BRANCH  18  19
ATOM     19  C   UNL     1       4.422   4.205  18.231  0.00  0.00    +0.000 C 
BRANCH  19  20
ATOM     20  C   UNL     1       2.974   3.907  18.727  0.00  0.00    +0.000 C 
ATOM     21  C   UNL     1       2.710   4.413  20.149  0.00  0.00    +0.000 C 
ATOM     22  C   UNL     1       1.919   4.460  17.768  0.00  0.00    +0.000 C 
BRANCH  20  23
ATOM     23  O   UNL     1       2.809   2.479  18.759  0.00  0.00    +0.000 OA
ATOM     24  H   UNL     1       2.695   2.203  17.828  0.00  0.00    +0.000 HD
ENDBRANCH  20  23
ENDBRANCH  19  20
BRANCH  19  25
ATOM     25  O   UNL     1       5.344   3.429  19.016  0.00  0.00    +0.000 OA
ATOM     26  H   UNL     1       4.845   2.723  19.462  0.00  0.00    +0.000 HD
ENDBRANCH  19  25
ENDBRANCH  18  19
ENDBRANCH  17  18
ENDBRANCH   2  17
TORSDOF 9
ENDMDL
MODEL 7
REMARK VINA RESULT:      -6.7      3.218      8.609
REMARK  Name = 
REMARK  12 active torsions:
REMARK  status: ('A' for Active; 'I' for Inactive)
REMARK    1  A    between atoms: C_1  and  C_2
REMARK    2  A    between atoms: C_2  and  C_17
REMARK    3  A    between atoms: C_3  and  C_4
REMARK    4  A    between atoms: C_4  and  O_5
REMARK    5  A    between atoms: O_5  and  C_6
REMARK    6  A    between atoms: C_17  and  C_18
REMARK    7  A    between atoms: C_18  and  C_19
REMARK    8  A    between atoms: C_19  and  O_20
REMARK    9  A    between atoms: C_19  and  C_21
REMARK   10  A    between atoms: C_21  and  C_22
REMARK   11  A    between atoms: C_21  and  C_23
REMARK   12  A    between atoms: C_21  and  O_24
REMARK                            x       y       z     vdW  Elec       q    Type
REMARK                         _______ _______ _______ _____ _____    ______ ____
ROOT
ATOM      1  C   UNL     1       1.947  12.052  18.381  0.00  0.00    +0.000 C 
ATOM      2  C   UNL     1       0.807  11.167  18.813  0.00  0.00    +0.000 C 
ATOM      3  C   UNL     1       0.663   9.877  18.438  0.00  0.00    +0.000 C 
ENDROOT
BRANCH   3   4
ATOM      4  C   UNL     1       1.618   9.065  17.618  0.00  0.00    +0.000 C 
BRANCH   4   5
ATOM      5  O   UNL     1       2.659   8.580  18.467  0.00  0.00    +0.000 OA
BRANCH   5   6
ATOM      6  C   UNL     1       2.498   7.307  18.948  0.00  0.00    +0.000 A 
ATOM      7  C   UNL     1       1.886   7.214  20.204  0.00  0.00    +0.000 A 
ATOM      8  C   UNL     1       1.680   5.968  20.814  0.00  0.00    +0.000 A 
ATOM      9  C   UNL     1       2.085   4.800  20.165  0.00  0.00    +0.000 A 
ATOM     10  C   UNL     1       1.915   3.479  20.748  0.00  0.00    +0.000 A 
ATOM     11  C   UNL     1       2.315   2.402  20.066  0.00  0.00    +0.000 A 
ATOM     12  C   UNL     1       2.928   2.493  18.731  0.00  0.00    +0.000 A 
ATOM     13  O   UNL     1       3.268   1.483  18.125  0.00  0.00    +0.000 OA
ATOM     14  O   UNL     1       3.100   3.764  18.203  0.00  0.00    +0.000 OA
ATOM     15  C   UNL     1       2.682   4.908  18.913  0.00  0.00    +0.000 A 
ATOM     16  C   UNL     1       2.896   6.140  18.299  0.00  0.00    +0.000 A 
ENDBRANCH   5   6
ENDBRANCH   4   5
ENDBRANCH   3   4
BRANCH   2  17
ATOM     17  C   UNL     1      -0.227  11.832  19.703  0.00  0.00    +0.000 C 
BRANCH  17  18
ATOM     18  C   UNL     1      -1.267  12.572  18.856  0.00  0.00    +0.000 C 
BRANCH  18  19
ATOM     19  C   UNL     1      -2.632  11.876  18.834  0.00  0.00    +0.000 C 
BRANCH  19  20
ATOM     20  C   UNL     1      -2.994  11.233  17.461  0.00  0.00    +0.000 C 
ATOM     21  C   UNL     1      -2.871   9.706  17.461  0.00  0.00    +0.000 C 
ATOM     22  C   UNL     1      -4.388  11.648  16.989  0.00  0.00    +0.000 C 
BRANCH  20  23
ATOM     23  O   UNL     1      -2.055  11.723  16.489  0.00  0.00    +0.000 OA
ATOM     24  H   UNL     1      -2.593  12.081  15.755  0.00  0.00    +0.000 HD
ENDBRANCH  20  23
ENDBRANCH  19  20
BRANCH  19  25
ATOM     25  O   UNL     1      -3.669  12.807  19.192  0.00  0.00    +0.000 OA
ATOM     26  H   UNL     1      -4.378  12.741  18.529  0.00  0.00    +0.000 HD
ENDBRANCH  19  25
ENDBRANCH  18  19
ENDBRANCH  17  18
ENDBRANCH   2  17
TORSDOF 9
ENDMDL
MODEL 8
REMARK VINA RESULT:      -6.7      2.678      8.663
REMARK  Name = 
REMARK  12 active torsions:
REMARK  status: ('A' for Active; 'I' for Inactive)
REMARK    1  A    between atoms: C_1  and  C_2
REMARK    2  A    between atoms: C_2  and  C_17
REMARK    3  A    between atoms: C_3  and  C_4
REMARK    4  A    between atoms: C_4  and  O_5
REMARK    5  A    between atoms: O_5  and  C_6
REMARK    6  A    between atoms: C_17  and  C_18
REMARK    7  A    between atoms: C_18  and  C_19
REMARK    8  A    between atoms: C_19  and  O_20
REMARK    9  A    between atoms: C_19  and  C_21
REMARK   10  A    between atoms: C_21  and  C_22
REMARK   11  A    between atoms: C_21  and  C_23
REMARK   12  A    between atoms: C_21  and  O_24
REMARK                            x       y       z     vdW  Elec       q    Type
REMARK                         _______ _______ _______ _____ _____    ______ ____
ROOT
ATOM      1  C   UNL     1      -0.167   9.992  21.989  0.00  0.00    +0.000 C 
ATOM      2  C   UNL     1       0.170  10.565  20.638  0.00  0.00    +0.000 C 
ATOM      3  C   UNL     1       0.967   9.957  19.732  0.00  0.00    +0.000 C 
ENDROOT
BRANCH   3   4
ATOM      4  C   UNL     1       1.587   8.597  19.847  0.00  0.00    +0.000 C 
BRANCH   4   5
ATOM      5  O   UNL     1       1.804   8.077  18.534  0.00  0.00    +0.000 OA
BRANCH   5   6
ATOM      6  C   UNL     1       2.885   7.248  18.387  0.00  0.00    +0.000 A 
ATOM      7  C   UNL     1       3.045   6.286  19.392  0.00  0.00    +0.000 A 
ATOM      8  C   UNL     1       4.123   5.389  19.364  0.00  0.00    +0.000 A 
ATOM      9  C   UNL     1       5.052   5.449  18.324  0.00  0.00    +0.000 A 
ATOM     10  C   UNL     1       6.199   4.560  18.245  0.00  0.00    +0.000 A 
ATOM     11  C   UNL     1       7.043   4.664  17.214  0.00  0.00    +0.000 A 
ATOM     12  C   UNL     1       6.860   5.652  16.138  0.00  0.00    +0.000 A 
ATOM     13  O   UNL     1       7.644   5.708  15.197  0.00  0.00    +0.000 OA
ATOM     14  O   UNL     1       5.771   6.503  16.245  0.00  0.00    +0.000 OA
ATOM     15  C   UNL     1       4.873   6.403  17.328  0.00  0.00    +0.000 A 
ATOM     16  C   UNL     1       3.809   7.302  17.346  0.00  0.00    +0.000 A 
ENDBRANCH   5   6
ENDBRANCH   4   5
ENDBRANCH   3   4
BRANCH   2  17
ATOM     17  C   UNL     1      -0.433  11.927  20.343  0.00  0.00    +0.000 C 
BRANCH  17  18
ATOM     18  C   UNL     1      -1.809  11.772  19.689  0.00  0.00    +0.000 C 
BRANCH  18  19
ATOM     19  C   UNL     1      -1.829  12.197  18.216  0.00  0.00    +0.000 C 
BRANCH  19  20
ATOM     20  C   UNL     1      -2.459  11.139  17.260  0.00  0.00    +0.000 C 
ATOM     21  C   UNL     1      -1.686   9.817  17.234  0.00  0.00    +0.000 C 
ATOM     22  C   UNL     1      -3.930  10.882  17.589  0.00  0.00    +0.000 C 
BRANCH  20  23
ATOM     23  O   UNL     1      -2.411  11.673  15.926  0.00  0.00    +0.000 OA
ATOM     24  H   UNL     1      -2.094  10.942  15.358  0.00  0.00    +0.000 HD
ENDBRANCH  20  23
ENDBRANCH  19  20
BRANCH  19  25
ATOM     25  O   UNL     1      -0.493  12.485  17.765  0.00  0.00    +0.000 OA
ATOM     26  H   UNL     1      -0.364  13.449  17.794  0.00  0.00    +0.000 HD
ENDBRANCH  19  25
ENDBRANCH  18  19
ENDBRANCH  17  18
ENDBRANCH   2  17
TORSDOF 9
ENDMDL
MODEL 9
REMARK VINA RESULT:      -6.6      5.883      8.181
REMARK  Name = 
REMARK  12 active torsions:
REMARK  status: ('A' for Active; 'I' for Inactive)
REMARK    1  A    between atoms: C_1  and  C_2
REMARK    2  A    between atoms: C_2  and  C_17
REMARK    3  A    between atoms: C_3  and  C_4
REMARK    4  A    between atoms: C_4  and  O_5
REMARK    5  A    between atoms: O_5  and  C_6
REMARK    6  A    between atoms: C_17  and  C_18
REMARK    7  A    between atoms: C_18  and  C_19
REMARK    8  A    between atoms: C_19  and  O_20
REMARK    9  A    between atoms: C_19  and  C_21
REMARK   10  A    between atoms: C_21  and  C_22
REMARK   11  A    between atoms: C_21  and  C_23
REMARK   12  A    between atoms: C_21  and  O_24
REMARK                            x       y       z     vdW  Elec       q    Type
REMARK                         _______ _______ _______ _____ _____    ______ ____
ROOT
ATOM      1  C   UNL     1       8.075   6.010  19.147  0.00  0.00    +0.000 C 
ATOM      2  C   UNL     1       7.564   6.779  17.958  0.00  0.00    +0.000 C 
ATOM      3  C   UNL     1       7.794   8.093  17.747  0.00  0.00    +0.000 C 
ENDROOT
BRANCH   3   4
ATOM      4  C   UNL     1       8.649   9.003  18.577  0.00  0.00    +0.000 C 
BRANCH   4   5
ATOM      5  O   UNL     1       9.012  10.139  17.791  0.00  0.00    +0.000 OA
BRANCH   5   6
ATOM      6  C   UNL     1       9.449  11.237  18.486  0.00  0.00    +0.000 A 
ATOM      7  C   UNL     1       9.715  11.020  19.843  0.00  0.00    +0.000 A 
ATOM      8  C   UNL     1      10.151  12.067  20.667  0.00  0.00    +0.000 A 
ATOM      9  C   UNL     1      10.328  13.345  20.133  0.00  0.00    +0.000 A 
ATOM     10  C   UNL     1      10.761  14.477  20.936  0.00  0.00    +0.000 A 
ATOM     11  C   UNL     1      10.921  15.671  20.358  0.00  0.00    +0.000 A 
ATOM     12  C   UNL     1      10.675  15.896  18.924  0.00  0.00    +0.000 A 
ATOM     13  O   UNL     1      10.848  17.000  18.422  0.00  0.00    +0.000 OA
ATOM     14  O   UNL     1      10.241  14.807  18.182  0.00  0.00    +0.000 OA
ATOM     15  C   UNL     1      10.069  13.542  18.781  0.00  0.00    +0.000 A 
ATOM     16  C   UNL     1       9.631  12.511  17.953  0.00  0.00    +0.000 A 
ENDBRANCH   5   6
ENDBRANCH   4   5
ENDBRANCH   3   4
BRANCH   2  17
ATOM     17  C   UNL     1       6.719   5.978  16.983  0.00  0.00    +0.000 C 
BRANCH  17  18
ATOM     18  C   UNL     1       6.275   4.658  17.620  0.00  0.00    +0.000 C 
BRANCH  18  19
ATOM     19  C   UNL     1       5.123   3.983  16.867  0.00  0.00    +0.000 C 
BRANCH  19  20
ATOM     20  C   UNL     1       4.079   3.291  17.795  0.00  0.00    +0.000 C 
ATOM     21  C   UNL     1       4.239   3.671  19.270  0.00  0.00    +0.000 C 
ATOM     22  C   UNL     1       2.645   3.559  17.336  0.00  0.00    +0.000 C 
BRANCH  20  23
ATOM     23  O   UNL     1       4.292   1.871  17.709  0.00  0.00    +0.000 OA
ATOM     24  H   UNL     1       4.840   1.732  16.911  0.00  0.00    +0.000 HD
ENDBRANCH  20  23
ENDBRANCH  19  20
BRANCH  19  25
ATOM     25  O   UNL     1       5.637   3.006  15.945  0.00  0.00    +0.000 OA
ATOM     26  H   UNL     1       6.191   3.466  15.291  0.00  0.00    +0.000 HD
ENDBRANCH  19  25
ENDBRANCH  18  19
ENDBRANCH  17  18
ENDBRANCH   2  17
TORSDOF 9
ENDMDL
