MODEL 1
REMARK VINA RESULT:      -8.1      0.000      0.000
REMARK  Name = 
REMARK  6 active torsions:
REMARK  status: ('A' for Active; 'I' for Inactive)
REMARK    1  A    between atoms: C_2  and  N_3
REMARK    2  A    between atoms: C_2  and  N_10
REMARK    3  A    between atoms: N_3  and  C_4
REMARK    4  A    between atoms: N_10  and  C_11
REMARK    5  A    between atoms: C_14  and  N_15
REMARK    6  A    between atoms: C_16  and  C_17
REMARK                            x       y       z     vdW  Elec       q    Type
REMARK                         _______ _______ _______ _____ _____    ______ ____
ROOT
ATOM      1  C   UNL     1       6.022   4.850  17.456  0.00  0.00    +0.000 A 
ATOM      2  C   UNL     1       6.781   4.801  18.624  0.00  0.00    +0.000 A 
ATOM      3  C   UNL     1       7.567   5.896  18.991  0.00  0.00    +0.000 A 
ATOM      4  C   UNL     1       7.645   7.034  18.182  0.00  0.00    +0.000 A 
ATOM      5  C   UNL     1       6.857   7.088  17.031  0.00  0.00    +0.000 A 
ATOM      6  C   UNL     1       6.062   6.000  16.664  0.00  0.00    +0.000 A 
ENDROOT
BRANCH   1   7
ATOM      7  N   UNL     1       5.308   3.693  17.086  0.00  0.00    +0.000 N 
ATOM      8  H   UNL     1       5.689   3.154  16.314  0.00  0.00    +0.000 HD
BRANCH   7  10
ATOM      9  S   UNL     1       3.824   1.831  18.172  0.00  0.00    +0.000 S 
ATOM     10  C   UNL     1       4.038   3.332  17.466  0.00  0.00    +0.000 C 
BRANCH  10  11
ATOM     11  N   UNL     1       3.100   4.328  17.351  0.00  0.00    +0.000 N 
ATOM     12  H   UNL     1       2.771   4.479  16.403  0.00  0.00    +0.000 HD
BRANCH  11  13
ATOM     13  C   UNL     1       2.636   5.228  18.321  0.00  0.00    +0.000 A 
ATOM     14  C   UNL     1       2.125   4.717  19.510  0.00  0.00    +0.000 A 
ATOM     15  C   UNL     1       1.735   5.575  20.541  0.00  0.00    +0.000 A 
ATOM     16  C   UNL     1       1.897   6.953  20.393  0.00  0.00    +0.000 A 
ATOM     17  C   UNL     1       2.431   7.465  19.213  0.00  0.00    +0.000 A 
ATOM     18  C   UNL     1       2.790   6.608  18.176  0.00  0.00    +0.000 A 
ENDBRANCH  11  13
ENDBRANCH  10  11
ENDBRANCH   7  10
ENDBRANCH   1   7
BRANCH   4  19
ATOM     19  N   UNL     1       8.514   8.057  18.590  0.00  0.00    +0.000 NA
ATOM     20  C   UNL     1       8.293   9.275  18.217  0.00  0.00    +0.000 C 
BRANCH  20  21
ATOM     21  C   UNL     1       9.225  10.364  18.563  0.00  0.00    +0.000 A 
ATOM     22  C   UNL     1       9.864  11.090  17.549  0.00  0.00    +0.000 A 
ATOM     23  C   UNL     1      10.741  12.123  17.881  0.00  0.00    +0.000 A 
ATOM     24  C   UNL     1      10.974  12.426  19.222  0.00  0.00    +0.000 A 
ATOM     25 BR   UNL     1      12.178  13.812  19.670  0.00  0.00    +0.000 Br
ATOM     26  C   UNL     1      10.330  11.713  20.235  0.00  0.00    +0.000 A 
ATOM     27  C   UNL     1       9.447  10.681  19.905  0.00  0.00    +0.000 A 
ENDBRANCH  20  21
ENDBRANCH   4  19
TORSDOF 6
ENDMDL
MODEL 2
REMARK VINA RESULT:      -8.0      0.450      1.061
REMARK  Name = 
REMARK  6 active torsions:
REMARK  status: ('A' for Active; 'I' for Inactive)
REMARK    1  A    between atoms: C_2  and  N_3
REMARK    2  A    between atoms: C_2  and  N_10
REMARK    3  A    between atoms: N_3  and  C_4
REMARK    4  A    between atoms: N_10  and  C_11
REMARK    5  A    between atoms: C_14  and  N_15
REMARK    6  A    between atoms: C_16  and  C_17
REMARK                            x       y       z     vdW  Elec       q    Type
REMARK                         _______ _______ _______ _____ _____    ______ ____
ROOT
ATOM      1  C   UNL     1       5.854   4.918  17.387  0.00  0.00    +0.000 A 
ATOM      2  C   UNL     1       6.703   4.867  18.492  0.00  0.00    +0.000 A 
ATOM      3  C   UNL     1       7.494   5.974  18.814  0.00  0.00    +0.000 A 
ATOM      4  C   UNL     1       7.486   7.125  18.019  0.00  0.00    +0.000 A 
ATOM      5  C   UNL     1       6.609   7.179  16.934  0.00  0.00    +0.000 A 
ATOM      6  C   UNL     1       5.809   6.080  16.613  0.00  0.00    +0.000 A 
ENDROOT
BRANCH   1   7
ATOM      7  N   UNL     1       5.136   3.751  17.056  0.00  0.00    +0.000 N 
ATOM      8  H   UNL     1       5.464   3.234  16.247  0.00  0.00    +0.000 HD
BRANCH   7  10
ATOM      9  S   UNL     1       3.779   1.834  18.209  0.00  0.00    +0.000 S 
ATOM     10  C   UNL     1       3.909   3.357  17.531  0.00  0.00    +0.000 C 
BRANCH  10  11
ATOM     11  N   UNL     1       2.949   4.339  17.523  0.00  0.00    +0.000 N 
ATOM     12  H   UNL     1       2.479   4.451  16.630  0.00  0.00    +0.000 HD
BRANCH  11  13
ATOM     13  C   UNL     1       2.621   5.269  18.519  0.00  0.00    +0.000 A 
ATOM     14  C   UNL     1       2.690   6.625  18.211  0.00  0.00    +0.000 A 
ATOM     15  C   UNL     1       2.287   7.585  19.143  0.00  0.00    +0.000 A 
ATOM     16  C   UNL     1       1.773   7.181  20.375  0.00  0.00    +0.000 A 
ATOM     17  C   UNL     1       1.680   5.824  20.675  0.00  0.00    +0.000 A 
ATOM     18  C   UNL     1       2.112   4.871  19.757  0.00  0.00    +0.000 A 
ENDBRANCH  11  13
ENDBRANCH  10  11
ENDBRANCH   7  10
ENDBRANCH   1   7
BRANCH   4  19
ATOM     19  N   UNL     1       8.364   8.160  18.375  0.00  0.00    +0.000 NA
ATOM     20  C   UNL     1       8.049   9.387  18.116  0.00  0.00    +0.000 C 
BRANCH  20  21
ATOM     21  C   UNL     1       8.979  10.494  18.406  0.00  0.00    +0.000 A 
ATOM     22  C   UNL     1       8.909  11.681  17.665  0.00  0.00    +0.000 A 
ATOM     23  C   UNL     1       9.786  12.729  17.947  0.00  0.00    +0.000 A 
ATOM     24  C   UNL     1      10.728  12.585  18.966  0.00  0.00    +0.000 A 
ATOM     25 BR   UNL     1      11.929  13.997  19.332  0.00  0.00    +0.000 Br
ATOM     26  C   UNL     1      10.792  11.408  19.715  0.00  0.00    +0.000 A 
ATOM     27  C   UNL     1       9.910  10.360  19.438  0.00  0.00    +0.000 A 
ENDBRANCH  20  21
ENDBRANCH   4  19
TORSDOF 6
ENDMDL
MODEL 3
REMARK VINA RESULT:      -7.9      0.918      1.846
REMARK  Name = 
REMARK  6 active torsions:
REMARK  status: ('A' for Active; 'I' for Inactive)
REMARK    1  A    between atoms: C_2  and  N_3
REMARK    2  A    between atoms: C_2  and  N_10
REMARK    3  A    between atoms: N_3  and  C_4
REMARK    4  A    between atoms: N_10  and  C_11
REMARK    5  A    between atoms: C_14  and  N_15
REMARK    6  A    between atoms: C_16  and  C_17
REMARK                            x       y       z     vdW  Elec       q    Type
REMARK                         _______ _______ _______ _____ _____    ______ ____
ROOT
ATOM      1  C   UNL     1       6.343   5.056  17.912  0.00  0.00    +0.000 A 
ATOM      2  C   UNL     1       6.046   6.021  16.952  0.00  0.00    +0.000 A 
ATOM      3  C   UNL     1       6.725   7.242  16.957  0.00  0.00    +0.000 A 
ATOM      4  C   UNL     1       7.674   7.538  17.941  0.00  0.00    +0.000 A 
ATOM      5  C   UNL     1       7.990   6.552  18.879  0.00  0.00    +0.000 A 
ATOM      6  C   UNL     1       7.321   5.326  18.872  0.00  0.00    +0.000 A 
ENDROOT
BRANCH   1   7
ATOM      7  N   UNL     1       5.578   3.872  17.914  0.00  0.00    +0.000 N 
ATOM      8  H   UNL     1       5.822   3.176  17.217  0.00  0.00    +0.000 HD
BRANCH   7  10
ATOM      9  S   UNL     1       4.390   2.539  19.826  0.00  0.00    +0.000 S 
ATOM     10  C   UNL     1       4.392   3.640  18.567  0.00  0.00    +0.000 C 
BRANCH  10  11
ATOM     11  N   UNL     1       3.360   4.465  18.194  0.00  0.00    +0.000 N 
ATOM     12  H   UNL     1       2.961   4.244  17.287  0.00  0.00    +0.000 HD
BRANCH  11  13
ATOM     13  C   UNL     1       2.875   5.621  18.822  0.00  0.00    +0.000 A 
ATOM     14  C   UNL     1       2.888   6.818  18.113  0.00  0.00    +0.000 A 
ATOM     15  C   UNL     1       2.333   7.976  18.665  0.00  0.00    +0.000 A 
ATOM     16  C   UNL     1       1.725   7.921  19.919  0.00  0.00    +0.000 A 
ATOM     17  C   UNL     1       1.689   6.718  20.620  0.00  0.00    +0.000 A 
ATOM     18  C   UNL     1       2.270   5.575  20.080  0.00  0.00    +0.000 A 
ENDBRANCH  11  13
ENDBRANCH  10  11
ENDBRANCH   7  10
ENDBRANCH   1   7
BRANCH   4  19
ATOM     19  N   UNL     1       8.255   8.814  17.914  0.00  0.00    +0.000 NA
ATOM     20  C   UNL     1       8.852   9.271  18.967  0.00  0.00    +0.000 C 
BRANCH  20  21
ATOM     21  C   UNL     1       9.408  10.637  19.000  0.00  0.00    +0.000 A 
ATOM     22  C   UNL     1      10.268  11.019  20.037  0.00  0.00    +0.000 A 
ATOM     23  C   UNL     1      10.797  12.309  20.062  0.00  0.00    +0.000 A 
ATOM     24  C   UNL     1      10.464  13.211  19.050  0.00  0.00    +0.000 A 
ATOM     25 BR   UNL     1      11.164  14.965  19.097  0.00  0.00    +0.000 Br
ATOM     26  C   UNL     1       9.617  12.830  18.008  0.00  0.00    +0.000 A 
ATOM     27  C   UNL     1       9.090  11.535  17.979  0.00  0.00    +0.000 A 
ENDBRANCH  20  21
ENDBRANCH   4  19
TORSDOF 6
ENDMDL
MODEL 4
REMARK VINA RESULT:      -7.9      1.518      2.297
REMARK  Name = 
REMARK  6 active torsions:
REMARK  status: ('A' for Active; 'I' for Inactive)
REMARK    1  A    between atoms: C_2  and  N_3
REMARK    2  A    between atoms: C_2  and  N_10
REMARK    3  A    between atoms: N_3  and  C_4
REMARK    4  A    between atoms: N_10  and  C_11
REMARK    5  A    between atoms: C_14  and  N_15
REMARK    6  A    between atoms: C_16  and  C_17
REMARK                            x       y       z     vdW  Elec       q    Type
REMARK                         _______ _______ _______ _____ _____    ______ ____
ROOT
ATOM      1  C   UNL     1       6.614   5.239  17.715  0.00  0.00    +0.000 A 
ATOM      2  C   UNL     1       6.557   6.410  16.960  0.00  0.00    +0.000 A 
ATOM      3  C   UNL     1       7.327   7.516  17.331  0.00  0.00    +0.000 A 
ATOM      4  C   UNL     1       8.126   7.490  18.479  0.00  0.00    +0.000 A 
ATOM      5  C   UNL     1       8.202   6.302  19.209  0.00  0.00    +0.000 A 
ATOM      6  C   UNL     1       7.443   5.190  18.838  0.00  0.00    +0.000 A 
ENDROOT
BRANCH   1   7
ATOM      7  N   UNL     1       5.762   4.179  17.348  0.00  0.00    +0.000 N 
ATOM      8  H   UNL     1       5.851   3.322  17.886  0.00  0.00    +0.000 HD
BRANCH   7  10
ATOM      9  S   UNL     1       5.795   3.765  14.764  0.00  0.00    +0.000 S 
ATOM     10  C   UNL     1       5.004   4.064  16.208  0.00  0.00    +0.000 C 
BRANCH  10  11
ATOM     11  N   UNL     1       3.647   4.065  16.418  0.00  0.00    +0.000 N 
ATOM     12  H   UNL     1       3.112   4.479  15.662  0.00  0.00    +0.000 HD
BRANCH  11  13
ATOM     13  C   UNL     1       2.926   3.694  17.562  0.00  0.00    +0.000 A 
ATOM     14  C   UNL     1       2.397   4.698  18.368  0.00  0.00    +0.000 A 
ATOM     15  C   UNL     1       1.595   4.376  19.467  0.00  0.00    +0.000 A 
ATOM     16  C   UNL     1       1.290   3.042  19.733  0.00  0.00    +0.000 A 
ATOM     17  C   UNL     1       1.798   2.037  18.913  0.00  0.00    +0.000 A 
ATOM     18  C   UNL     1       2.622   2.359  17.838  0.00  0.00    +0.000 A 
ENDBRANCH  11  13
ENDBRANCH  10  11
ENDBRANCH   7  10
ENDBRANCH   1   7
BRANCH   4  19
ATOM     19  N   UNL     1       8.809   8.668  18.816  0.00  0.00    +0.000 NA
ATOM     20  C   UNL     1       8.511   9.776  18.220  0.00  0.00    +0.000 C 
BRANCH  20  21
ATOM     21  C   UNL     1       9.258  11.018  18.494  0.00  0.00    +0.000 A 
ATOM     22  C   UNL     1       8.987  12.177  17.755  0.00  0.00    +0.000 A 
ATOM     23  C   UNL     1       9.692  13.351  18.021  0.00  0.00    +0.000 A 
ATOM     24  C   UNL     1      10.662  13.361  19.023  0.00  0.00    +0.000 A 
ATOM     25 BR   UNL     1      11.631  14.947  19.367  0.00  0.00    +0.000 Br
ATOM     26  C   UNL     1      10.926  12.211  19.770  0.00  0.00    +0.000 A 
ATOM     27  C   UNL     1      10.217  11.035  19.509  0.00  0.00    +0.000 A 
ENDBRANCH  20  21
ENDBRANCH   4  19
TORSDOF 6
ENDMDL
MODEL 5
REMARK VINA RESULT:      -7.9      1.419      1.758
REMARK  Name = 
REMARK  6 active torsions:
REMARK  status: ('A' for Active; 'I' for Inactive)
REMARK    1  A    between atoms: C_2  and  N_3
REMARK    2  A    between atoms: C_2  and  N_10
REMARK    3  A    between atoms: N_3  and  C_4
REMARK    4  A    between atoms: N_10  and  C_11
REMARK    5  A    between atoms: C_14  and  N_15
REMARK    6  A    between atoms: C_16  and  C_17
REMARK                            x       y       z     vdW  Elec       q    Type
REMARK                         _______ _______ _______ _____ _____    ______ ____
ROOT
ATOM      1  C   UNL     1       6.990   5.194  17.483  0.00  0.00    +0.000 A 
ATOM      2  C   UNL     1       6.942   6.370  16.736  0.00  0.00    +0.000 A 
ATOM      3  C   UNL     1       7.547   7.531  17.224  0.00  0.00    +0.000 A 
ATOM      4  C   UNL     1       8.165   7.552  18.479  0.00  0.00    +0.000 A 
ATOM      5  C   UNL     1       8.237   6.362  19.205  0.00  0.00    +0.000 A 
ATOM      6  C   UNL     1       7.643   5.196  18.718  0.00  0.00    +0.000 A 
ENDROOT
BRANCH   1   7
ATOM      7  N   UNL     1       6.299   4.071  16.986  0.00  0.00    +0.000 N 
ATOM      8  H   UNL     1       6.728   3.166  17.156  0.00  0.00    +0.000 HD
BRANCH   7  10
ATOM      9  S   UNL     1       5.617   4.049  14.460  0.00  0.00    +0.000 S 
ATOM     10  C   UNL     1       5.256   4.053  16.093  0.00  0.00    +0.000 C 
BRANCH  10  11
ATOM     11  N   UNL     1       4.017   3.889  16.662  0.00  0.00    +0.000 N 
ATOM     12  H   UNL     1       3.445   3.182  16.213  0.00  0.00    +0.000 HD
BRANCH  11  13
ATOM     13  C   UNL     1       3.400   4.635  17.677  0.00  0.00    +0.000 A 
ATOM     14  C   UNL     1       2.921   3.962  18.798  0.00  0.00    +0.000 A 
ATOM     15  C   UNL     1       2.381   4.672  19.874  0.00  0.00    +0.000 A 
ATOM     16  C   UNL     1       2.360   6.066  19.842  0.00  0.00    +0.000 A 
ATOM     17  C   UNL     1       2.862   6.742  18.732  0.00  0.00    +0.000 A 
ATOM     18  C   UNL     1       3.370   6.031  17.649  0.00  0.00    +0.000 A 
ENDBRANCH  11  13
ENDBRANCH  10  11
ENDBRANCH   7  10
ENDBRANCH   1   7
BRANCH   4  19
ATOM     19  N   UNL     1       8.683   8.778  18.922  0.00  0.00    +0.000 NA
ATOM     20  C   UNL     1       8.706   9.793  18.121  0.00  0.00    +0.000 C 
BRANCH  20  21
ATOM     21  C   UNL     1       9.311  11.076  18.526  0.00  0.00    +0.000 A 
ATOM     22  C   UNL     1       8.971  12.256  17.852  0.00  0.00    +0.000 A 
ATOM     23  C   UNL     1       9.541  13.468  18.242  0.00  0.00    +0.000 A 
ATOM     24  C   UNL     1      10.447  13.494  19.303  0.00  0.00    +0.000 A 
ATOM     25 BR   UNL     1      11.234  15.134  19.816  0.00  0.00    +0.000 Br
ATOM     26  C   UNL     1      10.778  12.322  19.985  0.00  0.00    +0.000 A 
ATOM     27  C   UNL     1      10.204  11.108  19.599  0.00  0.00    +0.000 A 
ENDBRANCH  20  21
ENDBRANCH   4  19
TORSDOF 6
ENDMDL
MODEL 6
REMARK VINA RESULT:      -7.9      1.658      2.143
REMARK  Name = 
REMARK  6 active torsions:
REMARK  status: ('A' for Active; 'I' for Inactive)
REMARK    1  A    between atoms: C_2  and  N_3
REMARK    2  A    between atoms: C_2  and  N_10
REMARK    3  A    between atoms: N_3  and  C_4
REMARK    4  A    between atoms: N_10  and  C_11
REMARK    5  A    between atoms: C_14  and  N_15
REMARK    6  A    between atoms: C_16  and  C_17
REMARK                            x       y       z     vdW  Elec       q    Type
REMARK                         _______ _______ _______ _____ _____    ______ ____
ROOT
ATOM      1  C   UNL     1       6.967   5.571  18.034  0.00  0.00    +0.000 A 
ATOM      2  C   UNL     1       7.914   5.942  18.988  0.00  0.00    +0.000 A 
ATOM      3  C   UNL     1       8.416   7.245  19.001  0.00  0.00    +0.000 A 
ATOM      4  C   UNL     1       8.020   8.184  18.043  0.00  0.00    +0.000 A 
ATOM      5  C   UNL     1       7.047   7.814  17.112  0.00  0.00    +0.000 A 
ATOM      6  C   UNL     1       6.534   6.515  17.100  0.00  0.00    +0.000 A 
ENDROOT
BRANCH   1   7
ATOM      7  N   UNL     1       6.548   4.226  18.010  0.00  0.00    +0.000 N 
ATOM      8  H   UNL     1       7.272   3.531  17.852  0.00  0.00    +0.000 HD
BRANCH   7  10
ATOM      9  S   UNL     1       4.548   3.674  16.417  0.00  0.00    +0.000 S 
ATOM     10  C   UNL     1       5.264   3.747  17.926  0.00  0.00    +0.000 C 
BRANCH  10  11
ATOM     11  N   UNL     1       4.764   3.238  19.100  0.00  0.00    +0.000 N 
ATOM     12  H   UNL     1       5.434   2.696  19.635  0.00  0.00    +0.000 HD
BRANCH  11  13
ATOM     13  C   UNL     1       3.450   3.261  19.589  0.00  0.00    +0.000 A 
ATOM     14  C   UNL     1       3.018   4.388  20.282  0.00  0.00    +0.000 A 
ATOM     15  C   UNL     1       1.692   4.494  20.709  0.00  0.00    +0.000 A 
ATOM     16  C   UNL     1       0.784   3.480  20.403  0.00  0.00    +0.000 A 
ATOM     17  C   UNL     1       1.208   2.362  19.688  0.00  0.00    +0.000 A 
ATOM     18  C   UNL     1       2.537   2.246  19.292  0.00  0.00    +0.000 A 
ENDBRANCH  11  13
ENDBRANCH  10  11
ENDBRANCH   7  10
ENDBRANCH   1   7
BRANCH   4  19
ATOM     19  N   UNL     1       8.629   9.447  18.087  0.00  0.00    +0.000 NA
ATOM     20  C   UNL     1       9.285   9.808  19.141  0.00  0.00    +0.000 C 
BRANCH  20  21
ATOM     21  C   UNL     1       9.873  11.155  19.254  0.00  0.00    +0.000 A 
ATOM     22  C   UNL     1      10.267  11.847  18.101  0.00  0.00    +0.000 A 
ATOM     23  C   UNL     1      10.817  13.124  18.211  0.00  0.00    +0.000 A 
ATOM     24  C   UNL     1      10.971  13.703  19.471  0.00  0.00    +0.000 A 
ATOM     25 BR   UNL     1      11.736  15.425  19.620  0.00  0.00    +0.000 Br
ATOM     26  C   UNL     1      10.567  13.022  20.621  0.00  0.00    +0.000 A 
ATOM     27  C   UNL     1      10.011  11.744  20.512  0.00  0.00    +0.000 A 
ENDBRANCH  20  21
ENDBRANCH   4  19
TORSDOF 6
ENDMDL
MODEL 7
REMARK VINA RESULT:      -7.8      5.600      7.604
REMARK  Name = 
REMARK  6 active torsions:
REMARK  status: ('A' for Active; 'I' for Inactive)
REMARK    1  A    between atoms: C_2  and  N_3
REMARK    2  A    between atoms: C_2  and  N_10
REMARK    3  A    between atoms: N_3  and  C_4
REMARK    4  A    between atoms: N_10  and  C_11
REMARK    5  A    between atoms: C_14  and  N_15
REMARK    6  A    between atoms: C_16  and  C_17
REMARK                            x       y       z     vdW  Elec       q    Type
REMARK                         _______ _______ _______ _____ _____    ______ ____
ROOT
ATOM      1  C   UNL     1       3.607   6.212  18.477  0.00  0.00    +0.000 A 
ATOM      2  C   UNL     1       2.916   6.215  19.687  0.00  0.00    +0.000 A 
ATOM      3  C   UNL     1       2.052   7.270  19.994  0.00  0.00    +0.000 A 
ATOM      4  C   UNL     1       1.898   8.355  19.126  0.00  0.00    +0.000 A 
ATOM      5  C   UNL     1       2.569   8.328  17.901  0.00  0.00    +0.000 A 
ATOM      6  C   UNL     1       3.426   7.272  17.585  0.00  0.00    +0.000 A 
ENDROOT
BRANCH   1   7
ATOM      7  N   UNL     1       4.526   5.169  18.246  0.00  0.00    +0.000 N 
ATOM      8  H   UNL     1       5.440   5.269  18.677  0.00  0.00    +0.000 HD
BRANCH   7  10
ATOM      9  S   UNL     1       5.276   4.330  15.884  0.00  0.00    +0.000 S 
ATOM     10  C   UNL     1       4.435   4.159  17.320  0.00  0.00    +0.000 C 
BRANCH  10  11
ATOM     11  N   UNL     1       3.767   3.041  17.754  0.00  0.00    +0.000 N 
ATOM     12  H   UNL     1       3.843   2.245  17.129  0.00  0.00    +0.000 HD
BRANCH  11  13
ATOM     13  C   UNL     1       2.913   2.888  18.855  0.00  0.00    +0.000 A 
ATOM     14  C   UNL     1       3.478   2.668  20.108  0.00  0.00    +0.000 A 
ATOM     15  C   UNL     1       2.672   2.599  21.248  0.00  0.00    +0.000 A 
ATOM     16  C   UNL     1       1.295   2.795  21.134  0.00  0.00    +0.000 A 
ATOM     17  C   UNL     1       0.731   3.040  19.884  0.00  0.00    +0.000 A 
ATOM     18  C   UNL     1       1.534   3.076  18.748  0.00  0.00    +0.000 A 
ENDBRANCH  11  13
ENDBRANCH  10  11
ENDBRANCH   7  10
ENDBRANCH   1   7
BRANCH   4  19
ATOM     19  N   UNL     1       1.066   9.404  19.545  0.00  0.00    +0.000 NA
ATOM     20  C   UNL     1       0.578   9.397  20.743  0.00  0.00    +0.000 C 
BRANCH  20  21
ATOM     21  C   UNL     1      -0.360  10.442  21.194  0.00  0.00    +0.000 A 
ATOM     22  C   UNL     1      -0.620  10.608  22.560  0.00  0.00    +0.000 A 
ATOM     23  C   UNL     1      -1.503  11.602  22.983  0.00  0.00    +0.000 A 
ATOM     24  C   UNL     1      -2.121  12.423  22.040  0.00  0.00    +0.000 A 
ATOM     25 BR   UNL     1      -3.334  13.754  22.614  0.00  0.00    +0.000 Br
ATOM     26  C   UNL     1      -1.854  12.268  20.679  0.00  0.00    +0.000 A 
ATOM     27  C   UNL     1      -0.966  11.277  20.253  0.00  0.00    +0.000 A 
ENDBRANCH  20  21
ENDBRANCH   4  19
TORSDOF 6
ENDMDL
MODEL 8
REMARK VINA RESULT:      -7.8      1.390      2.141
REMARK  Name = 
REMARK  6 active torsions:
REMARK  status: ('A' for Active; 'I' for Inactive)
REMARK    1  A    between atoms: C_2  and  N_3
REMARK    2  A    between atoms: C_2  and  N_10
REMARK    3  A    between atoms: N_3  and  C_4
REMARK    4  A    between atoms: N_10  and  C_11
REMARK    5  A    between atoms: C_14  and  N_15
REMARK    6  A    between atoms: C_16  and  C_17
REMARK                            x       y       z     vdW  Elec       q    Type
REMARK                         _______ _______ _______ _____ _____    ______ ____
ROOT
ATOM      1  C   UNL     1       6.430   5.585  17.837  0.00  0.00    +0.000 A 
ATOM      2  C   UNL     1       7.617   5.741  18.551  0.00  0.00    +0.000 A 
ATOM      3  C   UNL     1       8.236   6.992  18.609  0.00  0.00    +0.000 A 
ATOM      4  C   UNL     1       7.710   8.092  17.923  0.00  0.00    +0.000 A 
ATOM      5  C   UNL     1       6.504   7.935  17.238  0.00  0.00    +0.000 A 
ATOM      6  C   UNL     1       5.875   6.689  17.184  0.00  0.00    +0.000 A 
ENDROOT
BRANCH   1   7
ATOM      7  N   UNL     1       5.885   4.289  17.741  0.00  0.00    +0.000 N 
ATOM      8  H   UNL     1       6.290   3.583  18.349  0.00  0.00    +0.000 HD
BRANCH   7  10
ATOM      9  S   UNL     1       5.646   3.684  15.206  0.00  0.00    +0.000 S 
ATOM     10  C   UNL     1       5.052   3.797  16.766  0.00  0.00    +0.000 C 
BRANCH  10  11
ATOM     11  N   UNL     1       3.853   3.311  17.227  0.00  0.00    +0.000 N 
ATOM     12  H   UNL     1       3.341   2.760  16.546  0.00  0.00    +0.000 HD
BRANCH  11  13
ATOM     13  C   UNL     1       3.198   3.570  18.439  0.00  0.00    +0.000 A 
ATOM     14  C   UNL     1       2.562   4.797  18.602  0.00  0.00    +0.000 A 
ATOM     15  C   UNL     1       1.821   5.064  19.757  0.00  0.00    +0.000 A 
ATOM     16  C   UNL     1       1.683   4.078  20.734  0.00  0.00    +0.000 A 
ATOM     17  C   UNL     1       2.298   2.840  20.561  0.00  0.00    +0.000 A 
ATOM     18  C   UNL     1       3.061   2.589  19.424  0.00  0.00    +0.000 A 
ENDBRANCH  11  13
ENDBRANCH  10  11
ENDBRANCH   7  10
ENDBRANCH   1   7
BRANCH   4  19
ATOM     19  N   UNL     1       8.435   9.292  17.978  0.00  0.00    +0.000 NA
ATOM     20  C   UNL     1       9.118   9.583  19.037  0.00  0.00    +0.000 C 
BRANCH  20  21
ATOM     21  C   UNL     1       9.830  10.869  19.160  0.00  0.00    +0.000 A 
ATOM     22  C   UNL     1      10.045  11.432  20.425  0.00  0.00    +0.000 A 
ATOM     23  C   UNL     1      10.725  12.646  20.537  0.00  0.00    +0.000 A 
ATOM     24  C   UNL     1      11.185  13.288  19.388  0.00  0.00    +0.000 A 
ATOM     25 BR   UNL     1      12.086  14.942  19.541  0.00  0.00    +0.000 Br
ATOM     26  C   UNL     1      10.983  12.723  18.127  0.00  0.00    +0.000 A 
ATOM     27  C   UNL     1      10.307  11.505  18.012  0.00  0.00    +0.000 A 
ENDBRANCH  20  21
ENDBRANCH   4  19
TORSDOF 6
ENDMDL
MODEL 9
REMARK VINA RESULT:      -7.8      1.096      1.624
REMARK  Name = 
REMARK  6 active torsions:
REMARK  status: ('A' for Active; 'I' for Inactive)
REMARK    1  A    between atoms: C_2  and  N_3
REMARK    2  A    between atoms: C_2  and  N_10
REMARK    3  A    between atoms: N_3  and  C_4
REMARK    4  A    between atoms: N_10  and  C_11
REMARK    5  A    between atoms: C_14  and  N_15
REMARK    6  A    between atoms: C_16  and  C_17
REMARK                            x       y       z     vdW  Elec       q    Type
REMARK                         _______ _______ _______ _____ _____    ______ ____
ROOT
ATOM      1  C   UNL     1       6.130   5.454  17.715  0.00  0.00    +0.000 A 
ATOM      2  C   UNL     1       6.126   6.640  16.983  0.00  0.00    +0.000 A 
ATOM      3  C   UNL     1       7.041   7.651  17.289  0.00  0.00    +0.000 A 
ATOM      4  C   UNL     1       7.941   7.516  18.351  0.00  0.00    +0.000 A 
ATOM      5  C   UNL     1       7.961   6.311  19.057  0.00  0.00    +0.000 A 
ATOM      6  C   UNL     1       7.055   5.293  18.750  0.00  0.00    +0.000 A 
ENDROOT
BRANCH   1   7
ATOM      7  N   UNL     1       5.139   4.497  17.422  0.00  0.00    +0.000 N 
ATOM      8  H   UNL     1       5.323   3.882  16.635  0.00  0.00    +0.000 HD
BRANCH   7  10
ATOM      9  S   UNL     1       2.828   3.277  17.283  0.00  0.00    +0.000 S 
ATOM     10  C   UNL     1       3.852   4.446  17.901  0.00  0.00    +0.000 C 
BRANCH  10  11
ATOM     11  N   UNL     1       3.600   5.286  18.957  0.00  0.00    +0.000 N 
ATOM     12  H   UNL     1       3.949   4.947  19.848  0.00  0.00    +0.000 HD
BRANCH  11  13
ATOM     13  C   UNL     1       2.836   6.461  18.995  0.00  0.00    +0.000 A 
ATOM     14  C   UNL     1       2.248   6.833  20.201  0.00  0.00    +0.000 A 
ATOM     15  C   UNL     1       1.553   8.040  20.308  0.00  0.00    +0.000 A 
ATOM     16  C   UNL     1       1.484   8.899  19.211  0.00  0.00    +0.000 A 
ATOM     17  C   UNL     1       2.093   8.539  18.010  0.00  0.00    +0.000 A 
ATOM     18  C   UNL     1       2.756   7.322  17.898  0.00  0.00    +0.000 A 
ENDBRANCH  11  13
ENDBRANCH  10  11
ENDBRANCH   7  10
ENDBRANCH   1   7
BRANCH   4  19
ATOM     19  N   UNL     1       8.775   8.608  18.633  0.00  0.00    +0.000 NA
ATOM     20  C   UNL     1       8.459   9.785  18.201  0.00  0.00    +0.000 C 
BRANCH  20  21
ATOM     21  C   UNL     1       9.349  10.943  18.413  0.00  0.00    +0.000 A 
ATOM     22  C   UNL     1       9.115  12.142  17.726  0.00  0.00    +0.000 A 
ATOM     23  C   UNL     1       9.955  13.236  17.934  0.00  0.00    +0.000 A 
ATOM     24  C   UNL     1      11.023  13.126  18.824  0.00  0.00    +0.000 A 
ATOM     25 BR   UNL     1      12.173  14.603  19.088  0.00  0.00    +0.000 Br
ATOM     26  C   UNL     1      11.252  11.938  19.519  0.00  0.00    +0.000 A 
ATOM     27  C   UNL     1      10.408  10.841  19.317  0.00  0.00    +0.000 A 
ENDBRANCH  20  21
ENDBRANCH   4  19
TORSDOF 6
ENDMDL
