MODEL 1
REMARK VINA RESULT:      -6.6      0.000      0.000
REMARK  Name = 
REMARK  6 active torsions:
REMARK  status: ('A' for Active; 'I' for Inactive)
REMARK    1  A    between atoms: C_1  and  O_2
REMARK    2  A    between atoms: O_2  and  C_3
REMARK    3  A    between atoms: C_8  and  C_9
REMARK    4  A    between atoms: C_10  and  C_11
REMARK    5  A    between atoms: C_13  and  N_14
REMARK    6  A    between atoms: C_19  and  C_20
REMARK                            x       y       z     vdW  Elec       q    Type
REMARK                         _______ _______ _______ _____ _____    ______ ____
ROOT
ATOM      1  C   UNL     1       3.055   4.866  18.237  0.00  0.00    +0.000 C 
ATOM      2  C   UNL     1       2.780   6.243  18.822  0.00  0.00    +0.000 C 
ATOM      3  C   UNL     1       2.317   6.443  20.084  0.00  0.00    +0.000 C 
ATOM      4  O   UNL     1       2.132   5.371  20.977  0.00  0.00    +0.000 OA
ATOM      5  C   UNL     1       2.524   4.177  20.547  0.00  0.00    +0.000 A 
ATOM      6  N   UNL     1       2.501   3.045  21.295  0.00  0.00    +0.000 N 
ATOM      7  N   UNL     1       2.943   1.966  20.619  0.00  0.00    +0.000 NA
ATOM      8  C   UNL     1       3.257   2.444  19.400  0.00  0.00    +0.000 A 
ATOM      9  C   UNL     1       3.777   1.525  18.360  0.00  0.00    +0.000 C 
ATOM     10  C   UNL     1       3.003   3.832  19.307  0.00  0.00    +0.000 A 
ATOM     11  H   UNL     1       2.190   2.932  22.253  0.00  0.00    +0.000 HD
ENDROOT
BRANCH   1  17
ATOM     12  C   UNL     1       5.636   4.906  17.971  0.00  0.00    +0.000 A 
ATOM     13  C   UNL     1       6.760   4.666  17.166  0.00  0.00    +0.000 A 
ATOM     14  C   UNL     1       6.617   4.326  15.821  0.00  0.00    +0.000 A 
ATOM     15  C   UNL     1       5.348   4.214  15.268  0.00  0.00    +0.000 A 
ATOM     16  C   UNL     1       4.227   4.389  16.076  0.00  0.00    +0.000 A 
ATOM     17  C   UNL     1       4.346   4.709  17.447  0.00  0.00    +0.000 A 
BRANCH  12  19
ATOM     18  C   UNL     1       7.074   5.599  19.707  0.00  0.00    +0.000 C 
ATOM     19  O   UNL     1       5.739   5.337  19.269  0.00  0.00    +0.000 OA
ENDBRANCH  12  19
ENDBRANCH   1  17
BRANCH   3  20
ATOM     20  N   UNL     1       1.977   7.661  20.628  0.00  0.00    +0.000 N 
ATOM     21  H   UNL     1       2.556   7.974  21.401  0.00  0.00    +0.000 HD
ATOM     22  H   UNL     1       0.980   7.730  20.817  0.00  0.00    +0.000 HD
ENDBRANCH   3  20
BRANCH   2  23
ATOM     23  C   UNL     1       3.009   7.431  17.902  0.00  0.00    +0.000 C 
ATOM     24  N   UNL     1       3.199   8.416  17.139  0.00  0.00    +0.000 NA
ENDBRANCH   2  23
TORSDOF 4
ENDMDL
MODEL 2
REMARK VINA RESULT:      -6.5      1.106      2.102
REMARK  Name = 
REMARK  6 active torsions:
REMARK  status: ('A' for Active; 'I' for Inactive)
REMARK    1  A    between atoms: C_1  and  O_2
REMARK    2  A    between atoms: O_2  and  C_3
REMARK    3  A    between atoms: C_8  and  C_9
REMARK    4  A    between atoms: C_10  and  C_11
REMARK    5  A    between atoms: C_13  and  N_14
REMARK    6  A    between atoms: C_19  and  C_20
REMARK                            x       y       z     vdW  Elec       q    Type
REMARK                         _______ _______ _______ _____ _____    ______ ____
ROOT
ATOM      1  C   UNL     1       3.437   5.093  18.725  0.00  0.00    +0.000 C 
ATOM      2  C   UNL     1       2.846   6.473  18.963  0.00  0.00    +0.000 C 
ATOM      3  C   UNL     1       1.983   6.754  19.975  0.00  0.00    +0.000 C 
ATOM      4  O   UNL     1       1.636   5.786  20.935  0.00  0.00    +0.000 OA
ATOM      5  C   UNL     1       2.269   4.622  20.848  0.00  0.00    +0.000 A 
ATOM      6  N   UNL     1       2.127   3.601  21.730  0.00  0.00    +0.000 N 
ATOM      7  N   UNL     1       2.874   2.527  21.408  0.00  0.00    +0.000 NA
ATOM      8  C   UNL     1       3.511   2.893  20.279  0.00  0.00    +0.000 A 
ATOM      9  C   UNL     1       4.432   1.942  19.612  0.00  0.00    +0.000 C 
ATOM     10  C   UNL     1       3.155   4.204  19.885  0.00  0.00    +0.000 A 
ATOM     11  H   UNL     1       1.540   3.562  22.554  0.00  0.00    +0.000 HD
ENDROOT
BRANCH   1  17
ATOM     12  C   UNL     1       5.460   4.600  17.174  0.00  0.00    +0.000 A 
ATOM     13  C   UNL     1       6.846   4.657  16.960  0.00  0.00    +0.000 A 
ATOM     14  C   UNL     1       7.711   5.050  17.980  0.00  0.00    +0.000 A 
ATOM     15  C   UNL     1       7.201   5.401  19.222  0.00  0.00    +0.000 A 
ATOM     16  C   UNL     1       5.822   5.408  19.424  0.00  0.00    +0.000 A 
ATOM     17  C   UNL     1       4.923   5.038  18.399  0.00  0.00    +0.000 A 
BRANCH  12  19
ATOM     18  C   UNL     1       5.065   4.200  14.884  0.00  0.00    +0.000 C 
ATOM     19  O   UNL     1       4.587   4.125  16.229  0.00  0.00    +0.000 OA
ENDBRANCH  12  19
ENDBRANCH   1  17
BRANCH   3  20
ATOM     20  N   UNL     1       1.359   7.964  20.181  0.00  0.00    +0.000 N 
ATOM     21  H   UNL     1       0.836   8.329  19.390  0.00  0.00    +0.000 HD
ATOM     22  H   UNL     1       1.981   8.649  20.602  0.00  0.00    +0.000 HD
ENDBRANCH   3  20
BRANCH   2  23
ATOM     23  C   UNL     1       3.231   7.559  17.971  0.00  0.00    +0.000 C 
ATOM     24  N   UNL     1       3.551   8.458  17.149  0.00  0.00    +0.000 NA
ENDBRANCH   2  23
TORSDOF 4
ENDMDL
MODEL 3
REMARK VINA RESULT:      -6.1      5.116      8.059
REMARK  Name = 
REMARK  6 active torsions:
REMARK  status: ('A' for Active; 'I' for Inactive)
REMARK    1  A    between atoms: C_1  and  O_2
REMARK    2  A    between atoms: O_2  and  C_3
REMARK    3  A    between atoms: C_8  and  C_9
REMARK    4  A    between atoms: C_10  and  C_11
REMARK    5  A    between atoms: C_13  and  N_14
REMARK    6  A    between atoms: C_19  and  C_20
REMARK                            x       y       z     vdW  Elec       q    Type
REMARK                         _______ _______ _______ _____ _____    ______ ____
ROOT
ATOM      1  C   UNL     1       0.622  10.341  20.111  0.00  0.00    +0.000 C 
ATOM      2  C   UNL     1       1.346   9.037  19.815  0.00  0.00    +0.000 C 
ATOM      3  C   UNL     1       1.573   8.076  20.749  0.00  0.00    +0.000 C 
ATOM      4  O   UNL     1       1.073   8.192  22.059  0.00  0.00    +0.000 OA
ATOM      5  C   UNL     1       0.295   9.242  22.297  0.00  0.00    +0.000 A 
ATOM      6  N   UNL     1      -0.341   9.477  23.473  0.00  0.00    +0.000 N 
ATOM      7  N   UNL     1      -1.061  10.616  23.457  0.00  0.00    +0.000 NA
ATOM      8  C   UNL     1      -0.868  11.113  22.220  0.00  0.00    +0.000 A 
ATOM      9  C   UNL     1      -1.509  12.392  21.831  0.00  0.00    +0.000 C 
ATOM     10  C   UNL     1      -0.014  10.283  21.456  0.00  0.00    +0.000 A 
ATOM     11  H   UNL     1      -0.322   8.919  24.318  0.00  0.00    +0.000 HD
ENDROOT
BRANCH   1  17
ATOM     12  C   UNL     1      -0.427  12.062  18.477  0.00  0.00    +0.000 A 
ATOM     13  C   UNL     1      -1.387  12.348  17.493  0.00  0.00    +0.000 A 
ATOM     14  C   UNL     1      -2.384  11.426  17.178  0.00  0.00    +0.000 A 
ATOM     15  C   UNL     1      -2.428  10.205  17.835  0.00  0.00    +0.000 A 
ATOM     16  C   UNL     1      -1.443   9.888  18.768  0.00  0.00    +0.000 A 
ATOM     17  C   UNL     1      -0.407  10.795  19.087  0.00  0.00    +0.000 A 
BRANCH  12  19
ATOM     18  C   UNL     1       0.032  14.327  18.947  0.00  0.00    +0.000 C 
ATOM     19  O   UNL     1       0.507  12.981  18.883  0.00  0.00    +0.000 OA
ENDBRANCH  12  19
ENDBRANCH   1  17
BRANCH   3  20
ATOM     20  N   UNL     1       2.293   6.920  20.548  0.00  0.00    +0.000 N 
ATOM     21  H   UNL     1       3.052   6.986  19.877  0.00  0.00    +0.000 HD
ATOM     22  H   UNL     1       1.690   6.116  20.396  0.00  0.00    +0.000 HD
ENDBRANCH   3  20
BRANCH   2  23
ATOM     23  C   UNL     1       1.863   8.854  18.397  0.00  0.00    +0.000 C 
ATOM     24  N   UNL     1       2.293   8.702  17.222  0.00  0.00    +0.000 NA
ENDBRANCH   2  23
TORSDOF 4
ENDMDL
MODEL 4
REMARK VINA RESULT:      -6.1      1.183      3.669
REMARK  Name = 
REMARK  6 active torsions:
REMARK  status: ('A' for Active; 'I' for Inactive)
REMARK    1  A    between atoms: C_1  and  O_2
REMARK    2  A    between atoms: O_2  and  C_3
REMARK    3  A    between atoms: C_8  and  C_9
REMARK    4  A    between atoms: C_10  and  C_11
REMARK    5  A    between atoms: C_13  and  N_14
REMARK    6  A    between atoms: C_19  and  C_20
REMARK                            x       y       z     vdW  Elec       q    Type
REMARK                         _______ _______ _______ _____ _____    ______ ____
ROOT
ATOM      1  C   UNL     1       4.396   4.949  19.267  0.00  0.00    +0.000 C 
ATOM      2  C   UNL     1       3.698   3.803  19.982  0.00  0.00    +0.000 C 
ATOM      3  C   UNL     1       2.449   3.897  20.509  0.00  0.00    +0.000 C 
ATOM      4  O   UNL     1       1.673   5.060  20.354  0.00  0.00    +0.000 OA
ATOM      5  C   UNL     1       2.192   6.014  19.589  0.00  0.00    +0.000 A 
ATOM      6  N   UNL     1       1.558   7.167  19.259  0.00  0.00    +0.000 N 
ATOM      7  N   UNL     1       2.309   7.969  18.479  0.00  0.00    +0.000 NA
ATOM      8  C   UNL     1       3.459   7.288  18.313  0.00  0.00    +0.000 A 
ATOM      9  C   UNL     1       4.553   7.876  17.504  0.00  0.00    +0.000 C 
ATOM     10  C   UNL     1       3.433   6.053  19.001  0.00  0.00    +0.000 A 
ATOM     11  H   UNL     1       0.633   7.474  19.534  0.00  0.00    +0.000 HD
ENDROOT
BRANCH   1  17
ATOM     12  C   UNL     1       6.523   4.668  17.807  0.00  0.00    +0.000 A 
ATOM     13  C   UNL     1       7.097   4.256  16.594  0.00  0.00    +0.000 A 
ATOM     14  C   UNL     1       6.297   3.870  15.519  0.00  0.00    +0.000 A 
ATOM     15  C   UNL     1       4.915   3.881  15.648  0.00  0.00    +0.000 A 
ATOM     16  C   UNL     1       4.339   4.229  16.869  0.00  0.00    +0.000 A 
ATOM     17  C   UNL     1       5.129   4.600  17.979  0.00  0.00    +0.000 A 
BRANCH  12  19
ATOM     18  C   UNL     1       7.852   6.436  18.627  0.00  0.00    +0.000 C 
ATOM     19  O   UNL     1       7.273   5.148  18.850  0.00  0.00    +0.000 OA
ENDBRANCH  12  19
ENDBRANCH   1  17
BRANCH   3  20
ATOM     20  N   UNL     1       1.811   2.917  21.236  0.00  0.00    +0.000 N 
ATOM     21  H   UNL     1       2.361   2.490  21.975  0.00  0.00    +0.000 HD
ATOM     22  H   UNL     1       1.346   2.240  20.638  0.00  0.00    +0.000 HD
ENDBRANCH   3  20
BRANCH   2  23
ATOM     23  C   UNL     1       4.488   2.513  20.133  0.00  0.00    +0.000 C 
ATOM     24  N   UNL     1       5.144   1.444  20.257  0.00  0.00    +0.000 NA
ENDBRANCH   2  23
TORSDOF 4
ENDMDL
MODEL 5
REMARK VINA RESULT:      -5.9      1.471      4.069
REMARK  Name = 
REMARK  6 active torsions:
REMARK  status: ('A' for Active; 'I' for Inactive)
REMARK    1  A    between atoms: C_1  and  O_2
REMARK    2  A    between atoms: O_2  and  C_3
REMARK    3  A    between atoms: C_8  and  C_9
REMARK    4  A    between atoms: C_10  and  C_11
REMARK    5  A    between atoms: C_13  and  N_14
REMARK    6  A    between atoms: C_19  and  C_20
REMARK                            x       y       z     vdW  Elec       q    Type
REMARK                         _______ _______ _______ _____ _____    ______ ____
ROOT
ATOM      1  C   UNL     1       4.293   4.879  19.474  0.00  0.00    +0.000 C 
ATOM      2  C   UNL     1       3.715   3.759  20.326  0.00  0.00    +0.000 C 
ATOM      3  C   UNL     1       2.556   3.872  21.026  0.00  0.00    +0.000 C 
ATOM      4  O   UNL     1       1.757   5.027  20.944  0.00  0.00    +0.000 OA
ATOM      5  C   UNL     1       2.152   5.952  20.076  0.00  0.00    +0.000 A 
ATOM      6  N   UNL     1       1.468   7.090  19.801  0.00  0.00    +0.000 N 
ATOM      7  N   UNL     1       2.091   7.864  18.890  0.00  0.00    +0.000 NA
ATOM      8  C   UNL     1       3.209   7.180  18.582  0.00  0.00    +0.000 A 
ATOM      9  C   UNL     1       4.168   7.739  17.600  0.00  0.00    +0.000 C 
ATOM     10  C   UNL     1       3.293   5.971  19.311  0.00  0.00    +0.000 A 
ATOM     11  H   UNL     1       0.591   7.406  20.197  0.00  0.00    +0.000 HD
ENDROOT
BRANCH   1  17
ATOM     12  C   UNL     1       4.064   3.911  17.076  0.00  0.00    +0.000 A 
ATOM     13  C   UNL     1       4.654   3.649  15.830  0.00  0.00    +0.000 A 
ATOM     14  C   UNL     1       6.017   3.858  15.626  0.00  0.00    +0.000 A 
ATOM     15  C   UNL     1       6.805   4.340  16.662  0.00  0.00    +0.000 A 
ATOM     16  C   UNL     1       6.215   4.662  17.883  0.00  0.00    +0.000 A 
ATOM     17  C   UNL     1       4.832   4.483  18.107  0.00  0.00    +0.000 A 
BRANCH  12  19
ATOM     18  C   UNL     1       2.457   2.233  17.480  0.00  0.00    +0.000 C 
ATOM     19  O   UNL     1       2.749   3.625  17.344  0.00  0.00    +0.000 OA
ENDBRANCH  12  19
ENDBRANCH   1  17
BRANCH   3  20
ATOM     20  N   UNL     1       2.039   2.918  21.874  0.00  0.00    +0.000 N 
ATOM     21  H   UNL     1       1.509   2.175  21.428  0.00  0.00    +0.000 HD
ATOM     22  H   UNL     1       1.559   3.333  22.668  0.00  0.00    +0.000 HD
ENDBRANCH   3  20
BRANCH   2  23
ATOM     23  C   UNL     1       4.529   2.478  20.406  0.00  0.00    +0.000 C 
ATOM     24  N   UNL     1       5.204   1.415  20.472  0.00  0.00    +0.000 NA
ENDBRANCH   2  23
TORSDOF 4
ENDMDL
MODEL 6
REMARK VINA RESULT:      -5.8      2.656      4.737
REMARK  Name = 
REMARK  6 active torsions:
REMARK  status: ('A' for Active; 'I' for Inactive)
REMARK    1  A    between atoms: C_1  and  O_2
REMARK    2  A    between atoms: O_2  and  C_3
REMARK    3  A    between atoms: C_8  and  C_9
REMARK    4  A    between atoms: C_10  and  C_11
REMARK    5  A    between atoms: C_13  and  N_14
REMARK    6  A    between atoms: C_19  and  C_20
REMARK                            x       y       z     vdW  Elec       q    Type
REMARK                         _______ _______ _______ _____ _____    ______ ____
ROOT
ATOM      1  C   UNL     1       3.172   6.208  19.636  0.00  0.00    +0.000 C 
ATOM      2  C   UNL     1       2.296   7.430  19.408  0.00  0.00    +0.000 C 
ATOM      3  C   UNL     1       2.432   8.262  18.342  0.00  0.00    +0.000 C 
ATOM      4  O   UNL     1       3.359   7.998  17.318  0.00  0.00    +0.000 OA
ATOM      5  C   UNL     1       4.020   6.848  17.408  0.00  0.00    +0.000 A 
ATOM      6  N   UNL     1       4.891   6.386  16.476  0.00  0.00    +0.000 N 
ATOM      7  N   UNL     1       5.433   5.200  16.812  0.00  0.00    +0.000 NA
ATOM      8  C   UNL     1       4.876   4.907  18.003  0.00  0.00    +0.000 A 
ATOM      9  C   UNL     1       5.249   3.655  18.703  0.00  0.00    +0.000 C 
ATOM     10  C   UNL     1       3.984   5.922  18.421  0.00  0.00    +0.000 A 
ATOM     11  H   UNL     1       5.168   6.825  15.605  0.00  0.00    +0.000 HD
ENDROOT
BRANCH   1  17
ATOM     12  C   UNL     1       1.610   4.169  19.266  0.00  0.00    +0.000 A 
ATOM     13  C   UNL     1       1.063   2.975  19.761  0.00  0.00    +0.000 A 
ATOM     14  C   UNL     1       1.276   2.584  21.082  0.00  0.00    +0.000 A 
ATOM     15  C   UNL     1       2.046   3.377  21.921  0.00  0.00    +0.000 A 
ATOM     16  C   UNL     1       2.644   4.532  21.421  0.00  0.00    +0.000 A 
ATOM     17  C   UNL     1       2.464   4.936  20.079  0.00  0.00    +0.000 A 
BRANCH  12  19
ATOM     18  C   UNL     1       1.725   3.753  16.948  0.00  0.00    +0.000 C 
ATOM     19  O   UNL     1       1.341   4.635  18.005  0.00  0.00    +0.000 OA
ENDBRANCH  12  19
ENDBRANCH   1  17
BRANCH   3  20
ATOM     20  N   UNL     1       1.719   9.421  18.136  0.00  0.00    +0.000 N 
ATOM     21  H   UNL     1       0.708   9.330  18.180  0.00  0.00    +0.000 HD
ATOM     22  H   UNL     1       2.042   9.928  17.317  0.00  0.00    +0.000 HD
ENDBRANCH   3  20
BRANCH   2  23
ATOM     23  C   UNL     1       1.251   7.725  20.472  0.00  0.00    +0.000 C 
ATOM     24  N   UNL     1       0.385   7.970  21.354  0.00  0.00    +0.000 NA
ENDBRANCH   2  23
TORSDOF 4
ENDMDL
MODEL 7
REMARK VINA RESULT:      -5.8      9.744     12.633
REMARK  Name = 
REMARK  6 active torsions:
REMARK  status: ('A' for Active; 'I' for Inactive)
REMARK    1  A    between atoms: C_1  and  O_2
REMARK    2  A    between atoms: O_2  and  C_3
REMARK    3  A    between atoms: C_8  and  C_9
REMARK    4  A    between atoms: C_10  and  C_11
REMARK    5  A    between atoms: C_13  and  N_14
REMARK    6  A    between atoms: C_19  and  C_20
REMARK                            x       y       z     vdW  Elec       q    Type
REMARK                         _______ _______ _______ _____ _____    ______ ____
ROOT
ATOM      1  C   UNL     1       9.361  14.096  18.807  0.00  0.00    +0.000 C 
ATOM      2  C   UNL     1      10.164  12.815  18.638  0.00  0.00    +0.000 C 
ATOM      3  C   UNL     1      11.093  12.636  17.662  0.00  0.00    +0.000 C 
ATOM      4  O   UNL     1      11.436  13.674  16.776  0.00  0.00    +0.000 OA
ATOM      5  C   UNL     1      10.873  14.854  17.009  0.00  0.00    +0.000 A 
ATOM      6  N   UNL     1      11.143  15.987  16.313  0.00  0.00    +0.000 N 
ATOM      7  N   UNL     1      10.429  17.045  16.743  0.00  0.00    +0.000 NA
ATOM      8  C   UNL     1       9.682  16.554  17.750  0.00  0.00    +0.000 A 
ATOM      9  C   UNL     1       8.743  17.444  18.473  0.00  0.00    +0.000 C 
ATOM     10  C   UNL     1       9.924  15.174  17.949  0.00  0.00    +0.000 A 
ATOM     11  H   UNL     1      11.785  16.108  15.538  0.00  0.00    +0.000 HD
ENDROOT
BRANCH   1  17
ATOM     12  C   UNL     1       7.972  14.831  20.872  0.00  0.00    +0.000 A 
ATOM     13  C   UNL     1       7.947  15.249  22.212  0.00  0.00    +0.000 A 
ATOM     14  C   UNL     1       9.129  15.549  22.889  0.00  0.00    +0.000 A 
ATOM     15  C   UNL     1      10.349  15.424  22.237  0.00  0.00    +0.000 A 
ATOM     16  C   UNL     1      10.385  14.949  20.928  0.00  0.00    +0.000 A 
ATOM     17  C   UNL     1       9.204  14.616  20.229  0.00  0.00    +0.000 A 
BRANCH  12  19
ATOM     18  C   UNL     1       5.874  15.686  20.216  0.00  0.00    +0.000 C 
ATOM     19  O   UNL     1       6.827  14.623  20.145  0.00  0.00    +0.000 OA
ENDBRANCH  12  19
ENDBRANCH   1  17
BRANCH   3  20
ATOM     20  N   UNL     1      11.783  11.470  17.419  0.00  0.00    +0.000 N 
ATOM     21  H   UNL     1      11.588  10.703  18.056  0.00  0.00    +0.000 HD
ATOM     22  H   UNL     1      12.776  11.636  17.280  0.00  0.00    +0.000 HD
ENDBRANCH   3  20
BRANCH   2  23
ATOM     23  C   UNL     1       9.853  11.685  19.605  0.00  0.00    +0.000 C 
ATOM     24  N   UNL     1       9.594  10.747  20.407  0.00  0.00    +0.000 NA
ENDBRANCH   2  23
TORSDOF 4
ENDMDL
MODEL 8
REMARK VINA RESULT:      -5.7      2.167      4.520
REMARK  Name = 
REMARK  6 active torsions:
REMARK  status: ('A' for Active; 'I' for Inactive)
REMARK    1  A    between atoms: C_1  and  O_2
REMARK    2  A    between atoms: O_2  and  C_3
REMARK    3  A    between atoms: C_8  and  C_9
REMARK    4  A    between atoms: C_10  and  C_11
REMARK    5  A    between atoms: C_13  and  N_14
REMARK    6  A    between atoms: C_19  and  C_20
REMARK                            x       y       z     vdW  Elec       q    Type
REMARK                         _______ _______ _______ _____ _____    ______ ____
ROOT
ATOM      1  C   UNL     1       4.294   5.547  18.566  0.00  0.00    +0.000 C 
ATOM      2  C   UNL     1       3.103   6.459  18.821  0.00  0.00    +0.000 C 
ATOM      3  C   UNL     1       2.809   7.540  18.053  0.00  0.00    +0.000 C 
ATOM      4  O   UNL     1       3.556   7.848  16.901  0.00  0.00    +0.000 OA
ATOM      5  C   UNL     1       4.496   6.973  16.561  0.00  0.00    +0.000 A 
ATOM      6  N   UNL     1       5.258   7.058  15.442  0.00  0.00    +0.000 N 
ATOM      7  N   UNL     1       6.144   6.048  15.337  0.00  0.00    +0.000 NA
ATOM      8  C   UNL     1       5.925   5.300  16.435  0.00  0.00    +0.000 A 
ATOM      9  C   UNL     1       6.738   4.084  16.671  0.00  0.00    +0.000 C 
ATOM     10  C   UNL     1       4.899   5.849  17.239  0.00  0.00    +0.000 A 
ATOM     11  H   UNL     1       5.238   7.772  14.723  0.00  0.00    +0.000 HD
ENDROOT
BRANCH   1  17
ATOM     12  C   UNL     1       3.134   3.331  17.872  0.00  0.00    +0.000 A 
ATOM     13  C   UNL     1       3.030   1.939  18.015  0.00  0.00    +0.000 A 
ATOM     14  C   UNL     1       3.742   1.267  19.007  0.00  0.00    +0.000 A 
ATOM     15  C   UNL     1       4.573   1.977  19.863  0.00  0.00    +0.000 A 
ATOM     16  C   UNL     1       4.730   3.351  19.688  0.00  0.00    +0.000 A 
ATOM     17  C   UNL     1       4.039   4.050  18.674  0.00  0.00    +0.000 A 
BRANCH  12  19
ATOM     18  C   UNL     1       1.002   4.189  17.341  0.00  0.00    +0.000 C 
ATOM     19  O   UNL     1       2.375   4.038  16.974  0.00  0.00    +0.000 OA
ENDBRANCH  12  19
ENDBRANCH   1  17
BRANCH   3  20
ATOM     20  N   UNL     1       1.795   8.439  18.293  0.00  0.00    +0.000 N 
ATOM     21  H   UNL     1       2.045   9.420  18.201  0.00  0.00    +0.000 HD
ATOM     22  H   UNL     1       1.295   8.231  19.153  0.00  0.00    +0.000 HD
ENDBRANCH   3  20
BRANCH   2  23
ATOM     23  C   UNL     1       2.246   6.133  20.033  0.00  0.00    +0.000 C 
ATOM     24  N   UNL     1       1.534   5.863  21.038  0.00  0.00    +0.000 NA
ENDBRANCH   2  23
TORSDOF 4
ENDMDL
MODEL 9
REMARK VINA RESULT:      -5.7      2.193      4.297
REMARK  Name = 
REMARK  6 active torsions:
REMARK  status: ('A' for Active; 'I' for Inactive)
REMARK    1  A    between atoms: C_1  and  O_2
REMARK    2  A    between atoms: O_2  and  C_3
REMARK    3  A    between atoms: C_8  and  C_9
REMARK    4  A    between atoms: C_10  and  C_11
REMARK    5  A    between atoms: C_13  and  N_14
REMARK    6  A    between atoms: C_19  and  C_20
REMARK                            x       y       z     vdW  Elec       q    Type
REMARK                         _______ _______ _______ _____ _____    ______ ____
ROOT
ATOM      1  C   UNL     1       3.725   5.650  18.458  0.00  0.00    +0.000 C 
ATOM      2  C   UNL     1       2.964   6.943  18.708  0.00  0.00    +0.000 C 
ATOM      3  C   UNL     1       3.084   8.047  17.925  0.00  0.00    +0.000 C 
ATOM      4  O   UNL     1       3.875   8.040  16.761  0.00  0.00    +0.000 OA
ATOM      5  C   UNL     1       4.416   6.873  16.428  0.00  0.00    +0.000 A 
ATOM      6  N   UNL     1       5.139   6.654  15.301  0.00  0.00    +0.000 N 
ATOM      7  N   UNL     1       5.582   5.386  15.205  0.00  0.00    +0.000 NA
ATOM      8  C   UNL     1       5.115   4.786  16.317  0.00  0.00    +0.000 A 
ATOM      9  C   UNL     1       5.419   3.358  16.567  0.00  0.00    +0.000 C 
ATOM     10  C   UNL     1       4.380   5.688  17.121  0.00  0.00    +0.000 A 
ATOM     11  H   UNL     1       5.376   7.315  14.570  0.00  0.00    +0.000 HD
ENDROOT
BRANCH   1  17
ATOM     12  C   UNL     1       3.367   3.219  19.294  0.00  0.00    +0.000 A 
ATOM     13  C   UNL     1       2.520   2.106  19.409  0.00  0.00    +0.000 A 
ATOM     14  C   UNL     1       1.289   2.073  18.756  0.00  0.00    +0.000 A 
ATOM     15  C   UNL     1       0.885   3.157  17.989  0.00  0.00    +0.000 A 
ATOM     16  C   UNL     1       1.691   4.291  17.920  0.00  0.00    +0.000 A 
ATOM     17  C   UNL     1       2.931   4.358  18.593  0.00  0.00    +0.000 A 
BRANCH  12  19
ATOM     18  C   UNL     1       5.007   2.051  20.522  0.00  0.00    +0.000 C 
ATOM     19  O   UNL     1       4.625   3.248  19.839  0.00  0.00    +0.000 OA
ENDBRANCH  12  19
ENDBRANCH   1  17
BRANCH   3  20
ATOM     20  N   UNL     1       2.481   9.263  18.158  0.00  0.00    +0.000 N 
ATOM     21  H   UNL     1       2.298   9.828  17.334  0.00  0.00    +0.000 HD
ATOM     22  H   UNL     1       2.938   9.778  18.906  0.00  0.00    +0.000 HD
ENDBRANCH   3  20
BRANCH   2  23
ATOM     23  C   UNL     1       2.064   6.976  19.932  0.00  0.00    +0.000 C 
ATOM     24  N   UNL     1       1.318   7.004  20.948  0.00  0.00    +0.000 NA
ENDBRANCH   2  23
TORSDOF 4
ENDMDL
