MODEL 1
REMARK VINA RESULT:      -6.6      0.000      0.000
REMARK  Name = 
REMARK  4 active torsions:
REMARK  status: ('A' for Active; 'I' for Inactive)
REMARK    1  A    between atoms: C_1  and  N_2
REMARK    2  A    between atoms: N_5  and  C_6
REMARK    3  A    between atoms: C_14  and  C_15
REMARK    4  A    between atoms: N_23  and  C_24
REMARK                            x       y       z     vdW  Elec       q    Type
REMARK                         _______ _______ _______ _____ _____    ______ ____
ROOT
ATOM      1  C   UNL     1       4.094   5.500  18.510  0.00  0.00    +0.000 A 
ATOM      2  C   UNL     1       3.680   4.614  19.491  0.00  0.00    +0.000 A 
ATOM      3  C   UNL     1       2.504   5.189  20.039  0.00  0.00    +0.000 A 
ATOM      4  N   UNL     1       1.686   4.631  21.033  0.00  0.00    +0.000 NA
ATOM      5  C   UNL     1       2.057   3.458  21.473  0.00  0.00    +0.000 A 
ATOM      6  N   UNL     1       1.308   2.808  22.427  0.00  0.00    +0.000 N 
ATOM      7  N   UNL     1       3.237   2.827  21.022  0.00  0.00    +0.000 N 
ATOM      8  N   UNL     1       3.664   1.664  21.531  0.00  0.00    +0.000 NA
ATOM      9  C   UNL     1       4.832   1.509  20.889  0.00  0.00    +0.000 A 
ATOM     10  N   UNL     1       5.135   2.520  19.974  0.00  0.00    +0.000 NA
ATOM     11  C   UNL     1       4.098   3.328  20.082  0.00  0.00    +0.000 A 
ATOM     12  N   UNL     1       2.190   6.357  19.508  0.00  0.00    +0.000 NA
ATOM     13  N   UNL     1       3.129   6.512  18.555  0.00  0.00    +0.000 N 
ATOM     14  C   UNL     1       2.939   7.594  17.615  0.00  0.00    +0.000 C 
ATOM     15  H   UNL     1       0.691   3.406  22.964  0.00  0.00    +0.000 HD
ATOM     16  H   UNL     1       1.793   2.083  22.953  0.00  0.00    +0.000 HD
ENDROOT
BRANCH   1  21
ATOM     17  C   UNL     1       7.650   4.899  14.212  0.00  0.00    +0.000 C 
ATOM     18  N   UNL     1       7.019   5.531  15.369  0.00  0.00    +0.000 NA
ATOM     19  C   UNL     1       7.186   4.708  16.594  0.00  0.00    +0.000 C 
ATOM     20  C   UNL     1       6.479   5.309  17.848  0.00  0.00    +0.000 C 
ATOM     21  N   UNL     1       5.058   5.538  17.539  0.00  0.00    +0.000 N 
ATOM     22  C   UNL     1       4.872   6.392  16.346  0.00  0.00    +0.000 C 
ATOM     23  C   UNL     1       5.577   5.750  15.125  0.00  0.00    +0.000 C 
ENDBRANCH   1  21
BRANCH   9  24
ATOM     24  C   UNL     1       5.678   0.315  21.206  0.00  0.00    +0.000 A 
ATOM     25  C   UNL     1       6.347   0.039  22.382  0.00  0.00    +0.000 A 
ATOM     26  C   UNL     1       7.010  -1.205  22.198  0.00  0.00    +0.000 A 
ATOM     27  C   UNL     1       6.704  -1.619  20.925  0.00  0.00    +0.000 A 
ATOM     28  O   UNL     1       5.885  -0.721  20.325  0.00  0.00    +0.000 OA
ENDBRANCH   9  24
TORSDOF 2
ENDMDL
MODEL 2
REMARK VINA RESULT:      -6.6      9.710     13.498
REMARK  Name = 
REMARK  4 active torsions:
REMARK  status: ('A' for Active; 'I' for Inactive)
REMARK    1  A    between atoms: C_1  and  N_2
REMARK    2  A    between atoms: N_5  and  C_6
REMARK    3  A    between atoms: C_14  and  C_15
REMARK    4  A    between atoms: N_23  and  C_24
REMARK                            x       y       z     vdW  Elec       q    Type
REMARK                         _______ _______ _______ _____ _____    ______ ____
ROOT
ATOM      1  C   UNL     1      -2.925  13.930  22.477  0.00  0.00    +0.000 A 
ATOM      2  C   UNL     1      -2.128  13.058  21.754  0.00  0.00    +0.000 A 
ATOM      3  C   UNL     1      -0.961  12.880  22.540  0.00  0.00    +0.000 A 
ATOM      4  N   UNL     1       0.122  12.037  22.249  0.00  0.00    +0.000 NA
ATOM      5  C   UNL     1       0.016  11.347  21.144  0.00  0.00    +0.000 A 
ATOM      6  N   UNL     1       1.009  10.467  20.781  0.00  0.00    +0.000 N 
ATOM      7  N   UNL     1      -1.086  11.491  20.273  0.00  0.00    +0.000 N 
ATOM      8  N   UNL     1      -1.157  10.848  19.101  0.00  0.00    +0.000 NA
ATOM      9  C   UNL     1      -2.293  11.353  18.594  0.00  0.00    +0.000 A 
ATOM     10  N   UNL     1      -2.949  12.265  19.422  0.00  0.00    +0.000 NA
ATOM     11  C   UNL     1      -2.158  12.318  20.477  0.00  0.00    +0.000 A 
ATOM     12  N   UNL     1      -0.960  13.591  23.653  0.00  0.00    +0.000 NA
ATOM     13  N   UNL     1      -2.169  14.184  23.628  0.00  0.00    +0.000 N 
ATOM     14  C   UNL     1      -2.594  14.863  24.832  0.00  0.00    +0.000 C 
ATOM     15  H   UNL     1       1.908  10.633  21.219  0.00  0.00    +0.000 HD
ATOM     16  H   UNL     1       1.036  10.213  19.794  0.00  0.00    +0.000 HD
ENDROOT
BRANCH   1  21
ATOM     17  C   UNL     1      -7.917  16.463  22.865  0.00  0.00    +0.000 C 
ATOM     18  N   UNL     1      -6.848  15.659  22.275  0.00  0.00    +0.000 NA
ATOM     19  C   UNL     1      -6.558  14.456  23.096  0.00  0.00    +0.000 C 
ATOM     20  C   UNL     1      -5.383  13.592  22.540  0.00  0.00    +0.000 C 
ATOM     21  N   UNL     1      -4.191  14.442  22.383  0.00  0.00    +0.000 N 
ATOM     22  C   UNL     1      -4.450  15.623  21.533  0.00  0.00    +0.000 C 
ATOM     23  C   UNL     1      -5.611  16.456  22.129  0.00  0.00    +0.000 C 
ENDBRANCH   1  21
BRANCH   9  24
ATOM     24  C   UNL     1      -2.734  10.914  17.231  0.00  0.00    +0.000 A 
ATOM     25  C   UNL     1      -2.206   9.901  16.456  0.00  0.00    +0.000 A 
ATOM     26  C   UNL     1      -2.958   9.869  15.250  0.00  0.00    +0.000 A 
ATOM     27  C   UNL     1      -3.903  10.860  15.360  0.00  0.00    +0.000 A 
ATOM     28  O   UNL     1      -3.790  11.482  16.559  0.00  0.00    +0.000 OA
ENDBRANCH   9  24
TORSDOF 2
ENDMDL
MODEL 3
REMARK VINA RESULT:      -6.6     11.358     13.544
REMARK  Name = 
REMARK  4 active torsions:
REMARK  status: ('A' for Active; 'I' for Inactive)
REMARK    1  A    between atoms: C_1  and  N_2
REMARK    2  A    between atoms: N_5  and  C_6
REMARK    3  A    between atoms: C_14  and  C_15
REMARK    4  A    between atoms: N_23  and  C_24
REMARK                            x       y       z     vdW  Elec       q    Type
REMARK                         _______ _______ _______ _____ _____    ______ ____
ROOT
ATOM      1  C   UNL     1      -3.786  14.046  22.157  0.00  0.00    +0.000 A 
ATOM      2  C   UNL     1      -4.558  13.163  21.421  0.00  0.00    +0.000 A 
ATOM      3  C   UNL     1      -5.724  12.947  22.201  0.00  0.00    +0.000 A 
ATOM      4  N   UNL     1      -6.833  12.165  21.847  0.00  0.00    +0.000 NA
ATOM      5  C   UNL     1      -6.769  11.599  20.671  0.00  0.00    +0.000 A 
ATOM      6  N   UNL     1      -7.818  10.835  20.214  0.00  0.00    +0.000 N 
ATOM      7  N   UNL     1      -5.632  11.717  19.843  0.00  0.00    +0.000 N 
ATOM      8  N   UNL     1      -5.530  11.070  18.675  0.00  0.00    +0.000 NA
ATOM      9  C   UNL     1      -4.282  11.396  18.303  0.00  0.00    +0.000 A 
ATOM     10  N   UNL     1      -3.612  12.248  19.184  0.00  0.00    +0.000 NA
ATOM     11  C   UNL     1      -4.503  12.434  20.139  0.00  0.00    +0.000 A 
ATOM     12  N   UNL     1      -5.711  13.588  23.356  0.00  0.00    +0.000 NA
ATOM     13  N   UNL     1      -4.560  14.284  23.299  0.00  0.00    +0.000 N 
ATOM     14  C   UNL     1      -4.346  15.286  24.319  0.00  0.00    +0.000 C 
ATOM     15  H   UNL     1      -8.442  10.493  20.935  0.00  0.00    +0.000 HD
ATOM     16  H   UNL     1      -7.594  10.175  19.470  0.00  0.00    +0.000 HD
ENDROOT
BRANCH   1  21
ATOM     17  C   UNL     1       0.798  17.281  22.247  0.00  0.00    +0.000 C 
ATOM     18  N   UNL     1      -0.134  16.265  21.760  0.00  0.00    +0.000 NA
ATOM     19  C   UNL     1      -1.455  16.856  21.429  0.00  0.00    +0.000 C 
ATOM     20  C   UNL     1      -2.507  15.803  20.959  0.00  0.00    +0.000 C 
ATOM     21  N   UNL     1      -2.624  14.749  21.979  0.00  0.00    +0.000 N 
ATOM     22  C   UNL     1      -1.324  14.119  22.291  0.00  0.00    +0.000 C 
ATOM     23  C   UNL     1      -0.318  15.197  22.766  0.00  0.00    +0.000 C 
ENDBRANCH   1  21
BRANCH   9  24
ATOM     24  C   UNL     1      -3.737  10.830  17.028  0.00  0.00    +0.000 A 
ATOM     25  C   UNL     1      -2.716   9.913  16.877  0.00  0.00    +0.000 A 
ATOM     26  C   UNL     1      -2.564   9.690  15.481  0.00  0.00    +0.000 A 
ATOM     27  C   UNL     1      -3.502  10.479  14.862  0.00  0.00    +0.000 A 
ATOM     28  O   UNL     1      -4.229  11.154  15.785  0.00  0.00    +0.000 OA
ENDBRANCH   9  24
TORSDOF 2
ENDMDL
MODEL 4
REMARK VINA RESULT:      -6.5      3.878      5.956
REMARK  Name = 
REMARK  4 active torsions:
REMARK  status: ('A' for Active; 'I' for Inactive)
REMARK    1  A    between atoms: C_1  and  N_2
REMARK    2  A    between atoms: N_5  and  C_6
REMARK    3  A    between atoms: C_14  and  C_15
REMARK    4  A    between atoms: N_23  and  C_24
REMARK                            x       y       z     vdW  Elec       q    Type
REMARK                         _______ _______ _______ _____ _____    ______ ____
ROOT
ATOM      1  C   UNL     1       4.871   5.124  17.592  0.00  0.00    +0.000 A 
ATOM      2  C   UNL     1       3.683   4.911  18.272  0.00  0.00    +0.000 A 
ATOM      3  C   UNL     1       3.251   3.620  17.872  0.00  0.00    +0.000 A 
ATOM      4  N   UNL     1       2.116   2.938  18.336  0.00  0.00    +0.000 NA
ATOM      5  C   UNL     1       1.410   3.570  19.236  0.00  0.00    +0.000 A 
ATOM      6  N   UNL     1       0.294   2.977  19.780  0.00  0.00    +0.000 N 
ATOM      7  N   UNL     1       1.734   4.876  19.663  0.00  0.00    +0.000 N 
ATOM      8  N   UNL     1       0.965   5.557  20.522  0.00  0.00    +0.000 NA
ATOM      9  C   UNL     1       1.594   6.742  20.553  0.00  0.00    +0.000 A 
ATOM     10  N   UNL     1       2.746   6.815  19.767  0.00  0.00    +0.000 NA
ATOM     11  C   UNL     1       2.804   5.613  19.228  0.00  0.00    +0.000 A 
ATOM     12  N   UNL     1       4.047   3.048  16.987  0.00  0.00    +0.000 NA
ATOM     13  N   UNL     1       5.045   3.943  16.861  0.00  0.00    +0.000 N 
ATOM     14  C   UNL     1       6.219   3.520  16.131  0.00  0.00    +0.000 C 
ATOM     15  H   UNL     1      -0.099   2.222  19.229  0.00  0.00    +0.000 HD
ATOM     16  H   UNL     1      -0.378   3.610  20.211  0.00  0.00    +0.000 HD
ENDROOT
BRANCH   1  21
ATOM     17  C   UNL     1       8.610   9.239  18.347  0.00  0.00    +0.000 C 
ATOM     18  N   UNL     1       7.964   8.098  17.702  0.00  0.00    +0.000 NA
ATOM     19  C   UNL     1       6.573   8.422  17.294  0.00  0.00    +0.000 C 
ATOM     20  C   UNL     1       5.817   7.217  16.651  0.00  0.00    +0.000 C 
ATOM     21  N   UNL     1       5.859   6.072  17.575  0.00  0.00    +0.000 N 
ATOM     22  C   UNL     1       7.240   5.708  17.959  0.00  0.00    +0.000 C 
ATOM     23  C   UNL     1       7.945   6.926  18.604  0.00  0.00    +0.000 C 
ENDBRANCH   1  21
BRANCH   9  24
ATOM     24  C   UNL     1       1.020   7.843  21.391  0.00  0.00    +0.000 A 
ATOM     25  C   UNL     1      -0.311   8.140  21.602  0.00  0.00    +0.000 A 
ATOM     26  C   UNL     1      -0.351   9.268  22.467  0.00  0.00    +0.000 A 
ATOM     27  C   UNL     1       0.957   9.591  22.737  0.00  0.00    +0.000 A 
ATOM     28  O   UNL     1       1.791   8.726  22.111  0.00  0.00    +0.000 OA
ENDBRANCH   9  24
TORSDOF 2
ENDMDL
MODEL 5
REMARK VINA RESULT:      -6.5     10.446     13.563
REMARK  Name = 
REMARK  4 active torsions:
REMARK  status: ('A' for Active; 'I' for Inactive)
REMARK    1  A    between atoms: C_1  and  N_2
REMARK    2  A    between atoms: N_5  and  C_6
REMARK    3  A    between atoms: C_14  and  C_15
REMARK    4  A    between atoms: N_23  and  C_24
REMARK                            x       y       z     vdW  Elec       q    Type
REMARK                         _______ _______ _______ _____ _____    ______ ____
ROOT
ATOM      1  C   UNL     1      -2.457  14.161  23.010  0.00  0.00    +0.000 A 
ATOM      2  C   UNL     1      -1.601  13.710  22.020  0.00  0.00    +0.000 A 
ATOM      3  C   UNL     1      -0.311  14.152  22.412  0.00  0.00    +0.000 A 
ATOM      4  N   UNL     1       0.899  13.890  21.751  0.00  0.00    +0.000 NA
ATOM      5  C   UNL     1       0.804  13.154  20.676  0.00  0.00    +0.000 A 
ATOM      6  N   UNL     1       1.935  12.813  19.970  0.00  0.00    +0.000 N 
ATOM      7  N   UNL     1      -0.440  12.706  20.181  0.00  0.00    +0.000 N 
ATOM      8  N   UNL     1      -0.547  12.022  19.035  0.00  0.00    +0.000 NA
ATOM      9  C   UNL     1      -1.879  11.903  18.924  0.00  0.00    +0.000 A 
ATOM     10  N   UNL     1      -2.606  12.463  19.977  0.00  0.00    +0.000 NA
ATOM     11  C   UNL     1      -1.660  12.952  20.754  0.00  0.00    +0.000 A 
ATOM     12  N   UNL     1      -0.313  14.859  23.528  0.00  0.00    +0.000 NA
ATOM     13  N   UNL     1      -1.605  14.818  23.905  0.00  0.00    +0.000 N 
ATOM     14  C   UNL     1      -1.919  15.305  25.229  0.00  0.00    +0.000 C 
ATOM     15  H   UNL     1       2.738  13.409  20.137  0.00  0.00    +0.000 HD
ATOM     16  H   UNL     1       1.784  12.531  19.003  0.00  0.00    +0.000 HD
ENDROOT
BRANCH   1  21
ATOM     17  C   UNL     1      -7.916  13.011  23.610  0.00  0.00    +0.000 C 
ATOM     18  N   UNL     1      -6.605  13.566  23.940  0.00  0.00    +0.000 NA
ATOM     19  C   UNL     1      -6.159  14.546  22.917  0.00  0.00    +0.000 C 
ATOM     20  C   UNL     1      -4.737  15.127  23.191  0.00  0.00    +0.000 C 
ATOM     21  N   UNL     1      -3.781  14.017  23.332  0.00  0.00    +0.000 N 
ATOM     22  C   UNL     1      -4.187  13.052  24.376  0.00  0.00    +0.000 C 
ATOM     23  C   UNL     1      -5.595  12.492  24.056  0.00  0.00    +0.000 C 
ENDBRANCH   1  21
BRANCH   9  24
ATOM     24  C   UNL     1      -2.446  11.214  17.721  0.00  0.00    +0.000 A 
ATOM     25  C   UNL     1      -1.975  10.077  17.097  0.00  0.00    +0.000 A 
ATOM     26  C   UNL     1      -2.845   9.815  16.003  0.00  0.00    +0.000 A 
ATOM     27  C   UNL     1      -3.798  10.804  16.026  0.00  0.00    +0.000 A 
ATOM     28  O   UNL     1      -3.580  11.640  17.070  0.00  0.00    +0.000 OA
ENDBRANCH   9  24
TORSDOF 2
ENDMDL
MODEL 6
REMARK VINA RESULT:      -6.5     10.019     12.872
REMARK  Name = 
REMARK  4 active torsions:
REMARK  status: ('A' for Active; 'I' for Inactive)
REMARK    1  A    between atoms: C_1  and  N_2
REMARK    2  A    between atoms: N_5  and  C_6
REMARK    3  A    between atoms: C_14  and  C_15
REMARK    4  A    between atoms: N_23  and  C_24
REMARK                            x       y       z     vdW  Elec       q    Type
REMARK                         _______ _______ _______ _____ _____    ______ ____
ROOT
ATOM      1  C   UNL     1      -0.949  12.014  20.094  0.00  0.00    +0.000 A 
ATOM      2  C   UNL     1      -1.341  12.701  21.231  0.00  0.00    +0.000 A 
ATOM      3  C   UNL     1      -0.138  13.195  21.801  0.00  0.00    +0.000 A 
ATOM      4  N   UNL     1      -0.025  14.003  22.942  0.00  0.00    +0.000 NA
ATOM      5  C   UNL     1      -1.154  14.331  23.513  0.00  0.00    +0.000 A 
ATOM      6  N   UNL     1      -1.157  15.146  24.622  0.00  0.00    +0.000 N 
ATOM      7  N   UNL     1      -2.397  13.850  23.047  0.00  0.00    +0.000 N 
ATOM      8  N   UNL     1      -3.547  14.117  23.679  0.00  0.00    +0.000 NA
ATOM      9  C   UNL     1      -4.417  13.396  22.956  0.00  0.00    +0.000 A 
ATOM     10  N   UNL     1      -3.855  12.712  21.875  0.00  0.00    +0.000 NA
ATOM     11  C   UNL     1      -2.579  13.033  21.963  0.00  0.00    +0.000 A 
ATOM     12  N   UNL     1       0.946  12.840  21.135  0.00  0.00    +0.000 NA
ATOM     13  N   UNL     1       0.442  12.169  20.082  0.00  0.00    +0.000 N 
ATOM     14  C   UNL     1       1.359  11.836  19.015  0.00  0.00    +0.000 C 
ATOM     15  H   UNL     1      -0.276  15.188  25.122  0.00  0.00    +0.000 HD
ATOM     16  H   UNL     1      -1.995  15.104  25.199  0.00  0.00    +0.000 HD
ENDROOT
BRANCH   1  21
ATOM     17  C   UNL     1      -2.827   9.885  15.254  0.00  0.00    +0.000 C 
ATOM     18  N   UNL     1      -2.731  10.086  16.699  0.00  0.00    +0.000 NA
ATOM     19  C   UNL     1      -3.062  11.484  17.075  0.00  0.00    +0.000 C 
ATOM     20  C   UNL     1      -2.918  11.767  18.603  0.00  0.00    +0.000 C 
ATOM     21  N   UNL     1      -1.562  11.395  19.038  0.00  0.00    +0.000 N 
ATOM     22  C   UNL     1      -1.231   9.992  18.709  0.00  0.00    +0.000 C 
ATOM     23  C   UNL     1      -1.373   9.761  17.185  0.00  0.00    +0.000 C 
ENDBRANCH   1  21
BRANCH   9  24
ATOM     24  C   UNL     1      -5.859  13.382  23.362  0.00  0.00    +0.000 A 
ATOM     25  C   UNL     1      -6.574  14.389  23.979  0.00  0.00    +0.000 A 
ATOM     26  C   UNL     1      -7.898  13.903  24.160  0.00  0.00    +0.000 A 
ATOM     27  C   UNL     1      -7.916  12.633  23.640  0.00  0.00    +0.000 A 
ATOM     28  O   UNL     1      -6.698  12.316  23.137  0.00  0.00    +0.000 OA
ENDBRANCH   9  24
TORSDOF 2
ENDMDL
MODEL 7
REMARK VINA RESULT:      -6.4      4.314      7.588
REMARK  Name = 
REMARK  4 active torsions:
REMARK  status: ('A' for Active; 'I' for Inactive)
REMARK    1  A    between atoms: C_1  and  N_2
REMARK    2  A    between atoms: N_5  and  C_6
REMARK    3  A    between atoms: C_14  and  C_15
REMARK    4  A    between atoms: N_23  and  C_24
REMARK                            x       y       z     vdW  Elec       q    Type
REMARK                         _______ _______ _______ _____ _____    ______ ____
ROOT
ATOM      1  C   UNL     1       3.369   5.524  18.112  0.00  0.00    +0.000 A 
ATOM      2  C   UNL     1       4.599   5.674  17.493  0.00  0.00    +0.000 A 
ATOM      3  C   UNL     1       4.721   4.555  16.630  0.00  0.00    +0.000 A 
ATOM      4  N   UNL     1       5.780   4.292  15.748  0.00  0.00    +0.000 NA
ATOM      5  C   UNL     1       6.730   5.189  15.726  0.00  0.00    +0.000 A 
ATOM      6  N   UNL     1       7.799   5.043  14.873  0.00  0.00    +0.000 N 
ATOM      7  N   UNL     1       6.719   6.312  16.582  0.00  0.00    +0.000 N 
ATOM      8  N   UNL     1       7.732   7.188  16.621  0.00  0.00    +0.000 NA
ATOM      9  C   UNL     1       7.337   8.000  17.614  0.00  0.00    +0.000 A 
ATOM     10  N   UNL     1       6.099   7.679  18.176  0.00  0.00    +0.000 NA
ATOM     11  C   UNL     1       5.738   6.612  17.489  0.00  0.00    +0.000 A 
ATOM     12  N   UNL     1       3.697   3.723  16.697  0.00  0.00    +0.000 NA
ATOM     13  N   UNL     1       2.866   4.341  17.557  0.00  0.00    +0.000 N 
ATOM     14  C   UNL     1       1.529   3.806  17.679  0.00  0.00    +0.000 C 
ATOM     15  H   UNL     1       7.953   4.098  14.540  0.00  0.00    +0.000 HD
ATOM     16  H   UNL     1       8.636   5.569  15.119  0.00  0.00    +0.000 HD
ENDROOT
BRANCH   1  21
ATOM     17  C   UNL     1       0.899   8.903  21.849  0.00  0.00    +0.000 C 
ATOM     18  N   UNL     1       1.001   7.931  20.762  0.00  0.00    +0.000 NA
ATOM     19  C   UNL     1       1.665   6.682  21.213  0.00  0.00    +0.000 C 
ATOM     20  C   UNL     1       1.852   5.631  20.074  0.00  0.00    +0.000 C 
ATOM     21  N   UNL     1       2.576   6.256  18.955  0.00  0.00    +0.000 N 
ATOM     22  C   UNL     1       1.907   7.480  18.464  0.00  0.00    +0.000 C 
ATOM     23  C   UNL     1       1.755   8.497  19.622  0.00  0.00    +0.000 C 
ENDBRANCH   1  21
BRANCH   9  24
ATOM     24  C   UNL     1       8.232   9.130  18.022  0.00  0.00    +0.000 A 
ATOM     25  C   UNL     1       8.361  10.366  17.422  0.00  0.00    +0.000 A 
ATOM     26  C   UNL     1       9.330  11.089  18.170  0.00  0.00    +0.000 A 
ATOM     27  C   UNL     1       9.732  10.256  19.185  0.00  0.00    +0.000 A 
ATOM     28  O   UNL     1       9.061   9.080  19.118  0.00  0.00    +0.000 OA
ENDBRANCH   9  24
TORSDOF 2
ENDMDL
MODEL 8
REMARK VINA RESULT:      -6.4      7.903     10.910
REMARK  Name = 
REMARK  4 active torsions:
REMARK  status: ('A' for Active; 'I' for Inactive)
REMARK    1  A    between atoms: C_1  and  N_2
REMARK    2  A    between atoms: N_5  and  C_6
REMARK    3  A    between atoms: C_14  and  C_15
REMARK    4  A    between atoms: N_23  and  C_24
REMARK                            x       y       z     vdW  Elec       q    Type
REMARK                         _______ _______ _______ _____ _____    ______ ____
ROOT
ATOM      1  C   UNL     1       7.703  14.789  18.359  0.00  0.00    +0.000 A 
ATOM      2  C   UNL     1       8.644  13.797  18.137  0.00  0.00    +0.000 A 
ATOM      3  C   UNL     1       9.849  14.486  17.841  0.00  0.00    +0.000 A 
ATOM      4  N   UNL     1      11.104  13.907  17.596  0.00  0.00    +0.000 NA
ATOM      5  C   UNL     1      11.145  12.603  17.666  0.00  0.00    +0.000 A 
ATOM      6  N   UNL     1      12.333  11.937  17.473  0.00  0.00    +0.000 N 
ATOM      7  N   UNL     1       9.989  11.829  17.909  0.00  0.00    +0.000 N 
ATOM      8  N   UNL     1      10.013  10.490  17.898  0.00  0.00    +0.000 NA
ATOM      9  C   UNL     1       8.713  10.204  18.073  0.00  0.00    +0.000 A 
ATOM     10  N   UNL     1       7.884  11.317  18.223  0.00  0.00    +0.000 NA
ATOM     11  C   UNL     1       8.730  12.324  18.122  0.00  0.00    +0.000 A 
ATOM     12  N   UNL     1       9.716  15.800  17.827  0.00  0.00    +0.000 NA
ATOM     13  N   UNL     1       8.430  15.973  18.186  0.00  0.00    +0.000 N 
ATOM     14  C   UNL     1       8.010  17.321  18.498  0.00  0.00    +0.000 C 
ATOM     15  H   UNL     1      13.042  12.465  16.977  0.00  0.00    +0.000 HD
ATOM     16  H   UNL     1      12.253  10.954  17.220  0.00  0.00    +0.000 HD
ENDROOT
BRANCH   1  21
ATOM     17  C   UNL     1       2.463  14.187  20.272  0.00  0.00    +0.000 C 
ATOM     18  N   UNL     1       3.652  14.876  19.772  0.00  0.00    +0.000 NA
ATOM     19  C   UNL     1       3.998  14.431  18.398  0.00  0.00    +0.000 C 
ATOM     20  C   UNL     1       5.296  15.094  17.839  0.00  0.00    +0.000 C 
ATOM     21  N   UNL     1       6.402  14.858  18.780  0.00  0.00    +0.000 N 
ATOM     22  C   UNL     1       6.092  15.334  20.145  0.00  0.00    +0.000 C 
ATOM     23  C   UNL     1       4.808  14.641  20.664  0.00  0.00    +0.000 C 
ENDBRANCH   1  21
BRANCH   9  24
ATOM     24  C   UNL     1       8.284   8.769  18.082  0.00  0.00    +0.000 A 
ATOM     25  C   UNL     1       7.475   8.120  17.171  0.00  0.00    +0.000 A 
ATOM     26  C   UNL     1       7.358   6.773  17.607  0.00  0.00    +0.000 A 
ATOM     27  C   UNL     1       8.105   6.674  18.755  0.00  0.00    +0.000 A 
ATOM     28  O   UNL     1       8.685   7.866  19.040  0.00  0.00    +0.000 OA
ENDBRANCH   9  24
TORSDOF 2
ENDMDL
MODEL 9
REMARK VINA RESULT:      -6.4      8.777     12.353
REMARK  Name = 
REMARK  4 active torsions:
REMARK  status: ('A' for Active; 'I' for Inactive)
REMARK    1  A    between atoms: C_1  and  N_2
REMARK    2  A    between atoms: N_5  and  C_6
REMARK    3  A    between atoms: C_14  and  C_15
REMARK    4  A    between atoms: N_23  and  C_24
REMARK                            x       y       z     vdW  Elec       q    Type
REMARK                         _______ _______ _______ _____ _____    ______ ____
ROOT
ATOM      1  C   UNL     1      -4.653  12.967  19.789  0.00  0.00    +0.000 A 
ATOM      2  C   UNL     1      -4.096  12.173  18.800  0.00  0.00    +0.000 A 
ATOM      3  C   UNL     1      -5.057  12.148  17.757  0.00  0.00    +0.000 A 
ATOM      4  N   UNL     1      -4.923  11.514  16.512  0.00  0.00    +0.000 NA
ATOM      5  C   UNL     1      -3.787  10.902  16.313  0.00  0.00    +0.000 A 
ATOM      6  N   UNL     1      -3.541  10.274  15.113  0.00  0.00    +0.000 N 
ATOM      7  N   UNL     1      -2.788  10.832  17.309  0.00  0.00    +0.000 N 
ATOM      8  N   UNL     1      -1.657  10.135  17.136  0.00  0.00    +0.000 NA
ATOM      9  C   UNL     1      -1.080  10.272  18.340  0.00  0.00    +0.000 A 
ATOM     10  N   UNL     1      -1.796  11.055  19.248  0.00  0.00    +0.000 NA
ATOM     11  C   UNL     1      -2.865  11.397  18.554  0.00  0.00    +0.000 A 
ATOM     12  N   UNL     1      -6.158  12.823  18.037  0.00  0.00    +0.000 NA
ATOM     13  N   UNL     1      -5.884  13.351  19.245  0.00  0.00    +0.000 N 
ATOM     14  C   UNL     1      -6.799  14.350  19.749  0.00  0.00    +0.000 C 
ATOM     15  H   UNL     1      -4.368  10.048  14.573  0.00  0.00    +0.000 HD
ATOM     16  H   UNL     1      -2.811   9.563  15.128  0.00  0.00    +0.000 HD
ENDROOT
BRANCH   1  21
ATOM     17  C   UNL     1      -3.786  15.645  24.643  0.00  0.00    +0.000 C 
ATOM     18  N   UNL     1      -3.569  14.668  23.578  0.00  0.00    +0.000 NA
ATOM     19  C   UNL     1      -3.238  15.333  22.292  0.00  0.00    +0.000 C 
ATOM     20  C   UNL     1      -3.054  14.335  21.106  0.00  0.00    +0.000 C 
ATOM     21  N   UNL     1      -4.258  13.496  20.989  0.00  0.00    +0.000 N 
ATOM     22  C   UNL     1      -4.578  12.792  22.249  0.00  0.00    +0.000 C 
ATOM     23  C   UNL     1      -4.766  13.820  23.392  0.00  0.00    +0.000 C 
ENDBRANCH   1  21
BRANCH   9  24
ATOM     24  C   UNL     1       0.229   9.590  18.596  0.00  0.00    +0.000 A 
ATOM     25  C   UNL     1       1.218   9.287  17.682  0.00  0.00    +0.000 A 
ATOM     26  C   UNL     1       2.262   8.643  18.402  0.00  0.00    +0.000 A 
ATOM     27  C   UNL     1       1.852   8.594  19.711  0.00  0.00    +0.000 A 
ATOM     28  O   UNL     1       0.638   9.181  19.844  0.00  0.00    +0.000 OA
ENDBRANCH   9  24
TORSDOF 2
ENDMDL
