MODEL 1
REMARK VINA RESULT:      -7.9      0.000      0.000
REMARK  Name = 
REMARK  7 active torsions:
REMARK  status: ('A' for Active; 'I' for Inactive)
REMARK    1  A    between atoms: C_2  and  C_3
REMARK    2  A    between atoms: C_3  and  N_4
REMARK    3  A    between atoms: C_5  and  C_7
REMARK    4  A    between atoms: C_11  and  N_12
REMARK    5  A    between atoms: N_16  and  C_17
REMARK    6  A    between atoms: N_20  and  C_21
REMARK    7  A    between atoms: C_21  and  C_22
REMARK                            x       y       z     vdW  Elec       q    Type
REMARK                         _______ _______ _______ _____ _____    ______ ____
ROOT
ATOM      1  O   UNL     1       8.505   7.511  18.929  0.00  0.00    +0.000 OA
ATOM      2  C   UNL     1       8.097   7.973  17.866  0.00  0.00    +0.000 C 
ATOM      3  N   UNL     1       7.346   7.245  16.963  0.00  0.00    +0.000 N 
ATOM      4  H   UNL     1       6.972   7.732  16.150  0.00  0.00    +0.000 HD
ENDROOT
BRANCH   3   5
ATOM      5  C   UNL     1       7.099   5.810  17.113  0.00  0.00    +0.000 C 
ATOM      6  C   UNL     1       7.071   5.099  15.768  0.00  0.00    +0.000 C 
ATOM      7  C   UNL     1       5.646   5.340  15.307  0.00  0.00    +0.000 C 
ATOM      8  N   UNL     1       4.805   5.179  16.506  0.00  0.00    +0.000 NA
ATOM      9  C   UNL     1       5.693   5.500  17.664  0.00  0.00    +0.000 C 
BRANCH   8  10
ATOM     10  C   UNL     1       4.261   3.814  16.658  0.00  0.00    +0.000 C 
BRANCH  10  11
ATOM     11  C   UNL     1       3.473   3.552  17.930  0.00  0.00    +0.000 A 
ATOM     12  C   UNL     1       4.014   2.720  18.927  0.00  0.00    +0.000 A 
ATOM     13  C   UNL     1       3.324   2.496  20.121  0.00  0.00    +0.000 A 
ATOM     14  C   UNL     1       2.095   3.115  20.335  0.00  0.00    +0.000 A 
ATOM     15 CL   UNL     1       1.250   2.847  21.810  0.00  0.00    +0.000 Cl
ATOM     16  C   UNL     1       1.548   3.951  19.364  0.00  0.00    +0.000 A 
ATOM     17  C   UNL     1       2.234   4.164  18.161  0.00  0.00    +0.000 A 
ENDBRANCH  10  11
ENDBRANCH   8  10
ENDBRANCH   3   5
BRANCH   2  18
ATOM     18  C   UNL     1       8.343   9.432  17.464  0.00  0.00    +0.000 C 
BRANCH  18  19
ATOM     19  N   UNL     1       8.476  10.316  18.609  0.00  0.00    +0.000 N 
ATOM     20  C   UNL     1       9.474  11.260  18.647  0.00  0.00    +0.000 C 
ATOM     21  O   UNL     1      10.252  11.437  17.713  0.00  0.00    +0.000 OA
ATOM     22  H   UNL     1       7.708  10.350  19.268  0.00  0.00    +0.000 HD
BRANCH  20  23
ATOM     23  C   UNL     1       9.561  12.109  19.865  0.00  0.00    +0.000 A 
ATOM     24  C   UNL     1      10.321  13.285  19.795  0.00  0.00    +0.000 A 
ATOM     25  C   UNL     1      10.451  14.117  20.908  0.00  0.00    +0.000 A 
ATOM     26  C   UNL     1       9.836  13.774  22.111  0.00  0.00    +0.000 A 
ATOM     27  C   UNL     1       9.097  12.585  22.193  0.00  0.00    +0.000 A 
ATOM     28  C   UNL     1       8.957  11.744  21.076  0.00  0.00    +0.000 A 
BRANCH  27  29
ATOM     29  N   UNL     1       8.464  12.216  23.466  0.00  0.00    +0.000 N 
ATOM     30  O   UNL     1       8.063  11.052  23.596  0.00  0.00    +0.000 OA
ATOM     31  O   UNL     1       8.373  13.095  24.335  0.00  0.00    +0.000 OA
ENDBRANCH  27  29
ENDBRANCH  20  23
ENDBRANCH  18  19
ENDBRANCH   2  18
TORSDOF 7
ENDMDL
MODEL 2
REMARK VINA RESULT:      -7.8      6.249      9.207
REMARK  Name = 
REMARK  7 active torsions:
REMARK  status: ('A' for Active; 'I' for Inactive)
REMARK    1  A    between atoms: C_2  and  C_3
REMARK    2  A    between atoms: C_3  and  N_4
REMARK    3  A    between atoms: C_5  and  C_7
REMARK    4  A    between atoms: C_11  and  N_12
REMARK    5  A    between atoms: N_16  and  C_17
REMARK    6  A    between atoms: N_20  and  C_21
REMARK    7  A    between atoms: C_21  and  C_22
REMARK                            x       y       z     vdW  Elec       q    Type
REMARK                         _______ _______ _______ _____ _____    ______ ____
ROOT
ATOM      1  O   UNL     1       4.999   3.447  19.518  0.00  0.00    +0.000 OA
ATOM      2  C   UNL     1       5.333   4.388  18.802  0.00  0.00    +0.000 C 
ATOM      3  N   UNL     1       4.462   5.387  18.411  0.00  0.00    +0.000 N 
ATOM      4  H   UNL     1       4.844   6.177  17.894  0.00  0.00    +0.000 HD
ENDROOT
BRANCH   3   5
ATOM      5  C   UNL     1       3.025   5.336  18.681  0.00  0.00    +0.000 C 
ATOM      6  C   UNL     1       2.263   6.381  17.879  0.00  0.00    +0.000 C 
ATOM      7  C   UNL     1       2.424   7.623  18.736  0.00  0.00    +0.000 C 
ATOM      8  N   UNL     1       2.271   7.170  20.129  0.00  0.00    +0.000 NA
ATOM      9  C   UNL     1       2.674   5.731  20.129  0.00  0.00    +0.000 C 
BRANCH   8  10
ATOM     10  C   UNL     1       0.890   7.301  20.637  0.00  0.00    +0.000 C 
BRANCH  10  11
ATOM     11  C   UNL     1       0.468   8.699  21.058  0.00  0.00    +0.000 A 
ATOM     12  C   UNL     1       0.100   8.945  22.392  0.00  0.00    +0.000 A 
ATOM     13  C   UNL     1      -0.254  10.230  22.810  0.00  0.00    +0.000 A 
ATOM     14  C   UNL     1      -0.228  11.283  21.899  0.00  0.00    +0.000 A 
ATOM     15 CL   UNL     1      -0.655  12.869  22.415  0.00  0.00    +0.000 Cl
ATOM     16  C   UNL     1       0.144  11.061  20.575  0.00  0.00    +0.000 A 
ATOM     17  C   UNL     1       0.486   9.770  20.154  0.00  0.00    +0.000 A 
ENDBRANCH  10  11
ENDBRANCH   8  10
ENDBRANCH   3   5
BRANCH   2  18
ATOM     18  C   UNL     1       6.775   4.569  18.316  0.00  0.00    +0.000 C 
BRANCH  18  19
ATOM     19  N   UNL     1       6.929   4.297  16.897  0.00  0.00    +0.000 N 
ATOM     20  C   UNL     1       6.599   5.253  15.966  0.00  0.00    +0.000 C 
ATOM     21  O   UNL     1       6.219   6.378  16.280  0.00  0.00    +0.000 OA
ATOM     22  H   UNL     1       7.463   3.479  16.630  0.00  0.00    +0.000 HD
BRANCH  20  23
ATOM     23  C   UNL     1       6.759   4.889  14.533  0.00  0.00    +0.000 A 
ATOM     24  C   UNL     1       7.767   5.529  13.800  0.00  0.00    +0.000 A 
ATOM     25  C   UNL     1       7.960   5.240  12.447  0.00  0.00    +0.000 A 
ATOM     26  C   UNL     1       7.133   4.319  11.808  0.00  0.00    +0.000 A 
ATOM     27  C   UNL     1       6.105   3.695  12.530  0.00  0.00    +0.000 A 
ATOM     28  C   UNL     1       5.908   3.978  13.893  0.00  0.00    +0.000 A 
BRANCH  27  29
ATOM     29  N   UNL     1       5.223   2.737  11.850  0.00  0.00    +0.000 N 
ATOM     30  O   UNL     1       4.047   3.072  11.656  0.00  0.00    +0.000 OA
ATOM     31  O   UNL     1       5.713   1.652  11.510  0.00  0.00    +0.000 OA
ENDBRANCH  27  29
ENDBRANCH  20  23
ENDBRANCH  18  19
ENDBRANCH   2  18
TORSDOF 7
ENDMDL
MODEL 3
REMARK VINA RESULT:      -7.8      7.305      8.989
REMARK  Name = 
REMARK  7 active torsions:
REMARK  status: ('A' for Active; 'I' for Inactive)
REMARK    1  A    between atoms: C_2  and  C_3
REMARK    2  A    between atoms: C_3  and  N_4
REMARK    3  A    between atoms: C_5  and  C_7
REMARK    4  A    between atoms: C_11  and  N_12
REMARK    5  A    between atoms: N_16  and  C_17
REMARK    6  A    between atoms: N_20  and  C_21
REMARK    7  A    between atoms: C_21  and  C_22
REMARK                            x       y       z     vdW  Elec       q    Type
REMARK                         _______ _______ _______ _____ _____    ______ ____
ROOT
ATOM      1  O   UNL     1       1.421   8.771  19.717  0.00  0.00    +0.000 OA
ATOM      2  C   UNL     1       1.411   8.286  20.846  0.00  0.00    +0.000 C 
ATOM      3  N   UNL     1       1.596   6.939  21.092  0.00  0.00    +0.000 N 
ATOM      4  H   UNL     1       1.665   6.636  22.063  0.00  0.00    +0.000 HD
ENDROOT
BRANCH   3   5
ATOM      5  C   UNL     1       1.665   5.940  20.025  0.00  0.00    +0.000 C 
ATOM      6  C   UNL     1       1.223   4.567  20.509  0.00  0.00    +0.000 C 
ATOM      7  C   UNL     1       2.489   4.030  21.151  0.00  0.00    +0.000 C 
ATOM      8  N   UNL     1       3.591   4.436  20.261  0.00  0.00    +0.000 NA
ATOM      9  C   UNL     1       3.106   5.662  19.557  0.00  0.00    +0.000 C 
BRANCH   8  10
ATOM     10  C   UNL     1       3.952   3.402  19.269  0.00  0.00    +0.000 C 
BRANCH  10  11
ATOM     11  C   UNL     1       4.784   3.876  18.091  0.00  0.00    +0.000 A 
ATOM     12  C   UNL     1       6.093   4.343  18.304  0.00  0.00    +0.000 A 
ATOM     13  C   UNL     1       6.890   4.748  17.231  0.00  0.00    +0.000 A 
ATOM     14  C   UNL     1       6.390   4.674  15.933  0.00  0.00    +0.000 A 
ATOM     15 CL   UNL     1       7.375   5.163  14.609  0.00  0.00    +0.000 Cl
ATOM     16  C   UNL     1       5.099   4.205  15.701  0.00  0.00    +0.000 A 
ATOM     17  C   UNL     1       4.296   3.811  16.779  0.00  0.00    +0.000 A 
ENDBRANCH  10  11
ENDBRANCH   8  10
ENDBRANCH   3   5
BRANCH   2  18
ATOM     18  C   UNL     1       1.243   9.149  22.102  0.00  0.00    +0.000 C 
BRANCH  18  19
ATOM     19  N   UNL     1      -0.046   9.818  22.157  0.00  0.00    +0.000 N 
ATOM     20  C   UNL     1      -0.151  11.151  21.839  0.00  0.00    +0.000 C 
ATOM     21  O   UNL     1       0.804  11.815  21.448  0.00  0.00    +0.000 OA
ATOM     22  H   UNL     1      -0.872   9.239  22.239  0.00  0.00    +0.000 HD
BRANCH  20  23
ATOM     23  C   UNL     1      -1.500  11.770  21.947  0.00  0.00    +0.000 A 
ATOM     24  C   UNL     1      -2.070  12.310  20.786  0.00  0.00    +0.000 A 
ATOM     25  C   UNL     1      -3.328  12.916  20.824  0.00  0.00    +0.000 A 
ATOM     26  C   UNL     1      -4.023  13.003  22.029  0.00  0.00    +0.000 A 
ATOM     27  C   UNL     1      -3.445  12.487  23.198  0.00  0.00    +0.000 A 
ATOM     28  C   UNL     1      -2.181  11.872  23.167  0.00  0.00    +0.000 A 
BRANCH  27  29
ATOM     29  N   UNL     1      -4.171  12.595  24.470  0.00  0.00    +0.000 N 
ATOM     30  O   UNL     1      -3.684  13.314  25.354  0.00  0.00    +0.000 OA
ATOM     31  O   UNL     1      -5.229  11.962  24.580  0.00  0.00    +0.000 OA
ENDBRANCH  27  29
ENDBRANCH  20  23
ENDBRANCH  18  19
ENDBRANCH   2  18
TORSDOF 7
ENDMDL
MODEL 4
REMARK VINA RESULT:      -7.6      7.466     10.380
REMARK  Name = 
REMARK  7 active torsions:
REMARK  status: ('A' for Active; 'I' for Inactive)
REMARK    1  A    between atoms: C_2  and  C_3
REMARK    2  A    between atoms: C_3  and  N_4
REMARK    3  A    between atoms: C_5  and  C_7
REMARK    4  A    between atoms: C_11  and  N_12
REMARK    5  A    between atoms: N_16  and  C_17
REMARK    6  A    between atoms: N_20  and  C_21
REMARK    7  A    between atoms: C_21  and  C_22
REMARK                            x       y       z     vdW  Elec       q    Type
REMARK                         _______ _______ _______ _____ _____    ______ ____
ROOT
ATOM      1  O   UNL     1       2.413   9.518  17.628  0.00  0.00    +0.000 OA
ATOM      2  C   UNL     1       1.752   8.857  18.425  0.00  0.00    +0.000 C 
ATOM      3  N   UNL     1       0.674   9.368  19.122  0.00  0.00    +0.000 N 
ATOM      4  H   UNL     1       0.126   8.725  19.693  0.00  0.00    +0.000 HD
ENDROOT
BRANCH   3   5
ATOM      5  C   UNL     1       0.314  10.786  19.095  0.00  0.00    +0.000 C 
ATOM      6  C   UNL     1       1.045  11.574  20.172  0.00  0.00    +0.000 C 
ATOM      7  C   UNL     1       0.176  11.332  21.392  0.00  0.00    +0.000 C 
ATOM      8  N   UNL     1      -1.215  11.406  20.913  0.00  0.00    +0.000 NA
ATOM      9  C   UNL     1      -1.161  11.035  19.467  0.00  0.00    +0.000 C 
BRANCH   8  10
ATOM     10  C   UNL     1      -1.813  12.749  21.062  0.00  0.00    +0.000 C 
BRANCH  10  11
ATOM     11  C   UNL     1      -3.117  12.811  21.838  0.00  0.00    +0.000 A 
ATOM     12  C   UNL     1      -3.112  12.605  23.229  0.00  0.00    +0.000 A 
ATOM     13  C   UNL     1      -4.293  12.695  23.969  0.00  0.00    +0.000 A 
ATOM     14  C   UNL     1      -5.488  13.007  23.325  0.00  0.00    +0.000 A 
ATOM     15 CL   UNL     1      -6.943  13.128  24.238  0.00  0.00    +0.000 Cl
ATOM     16  C   UNL     1      -5.512  13.224  21.949  0.00  0.00    +0.000 A 
ATOM     17  C   UNL     1      -4.329  13.121  21.207  0.00  0.00    +0.000 A 
ENDBRANCH  10  11
ENDBRANCH   8  10
ENDBRANCH   3   5
BRANCH   2  18
ATOM     18  C   UNL     1       2.035   7.372  18.683  0.00  0.00    +0.000 C 
BRANCH  18  19
ATOM     19  N   UNL     1       3.347   6.959  18.213  0.00  0.00    +0.000 N 
ATOM     20  C   UNL     1       3.550   5.678  17.759  0.00  0.00    +0.000 C 
ATOM     21  O   UNL     1       2.644   4.853  17.675  0.00  0.00    +0.000 OA
ATOM     22  H   UNL     1       4.035   7.682  18.047  0.00  0.00    +0.000 HD
BRANCH  20  23
ATOM     23  C   UNL     1       4.927   5.324  17.321  0.00  0.00    +0.000 A 
ATOM     24  C   UNL     1       5.905   5.143  18.308  0.00  0.00    +0.000 A 
ATOM     25  C   UNL     1       7.219   4.821  17.961  0.00  0.00    +0.000 A 
ATOM     26  C   UNL     1       7.573   4.694  16.619  0.00  0.00    +0.000 A 
ATOM     27  C   UNL     1       6.604   4.899  15.627  0.00  0.00    +0.000 A 
ATOM     28  C   UNL     1       5.279   5.219  15.968  0.00  0.00    +0.000 A 
BRANCH  27  29
ATOM     29  N   UNL     1       6.984   4.782  14.213  0.00  0.00    +0.000 N 
ATOM     30  O   UNL     1       6.368   3.965  13.515  0.00  0.00    +0.000 OA
ATOM     31  O   UNL     1       7.897   5.512  13.804  0.00  0.00    +0.000 OA
ENDBRANCH  27  29
ENDBRANCH  20  23
ENDBRANCH  18  19
ENDBRANCH   2  18
TORSDOF 7
ENDMDL
MODEL 5
REMARK VINA RESULT:      -7.5      7.808     10.736
REMARK  Name = 
REMARK  7 active torsions:
REMARK  status: ('A' for Active; 'I' for Inactive)
REMARK    1  A    between atoms: C_2  and  C_3
REMARK    2  A    between atoms: C_3  and  N_4
REMARK    3  A    between atoms: C_5  and  C_7
REMARK    4  A    between atoms: C_11  and  N_12
REMARK    5  A    between atoms: N_16  and  C_17
REMARK    6  A    between atoms: N_20  and  C_21
REMARK    7  A    between atoms: C_21  and  C_22
REMARK                            x       y       z     vdW  Elec       q    Type
REMARK                         _______ _______ _______ _____ _____    ______ ____
ROOT
ATOM      1  O   UNL     1      -0.505   9.536  20.134  0.00  0.00    +0.000 OA
ATOM      2  C   UNL     1      -0.142   9.891  19.015  0.00  0.00    +0.000 C 
ATOM      3  N   UNL     1      -1.021  10.254  18.014  0.00  0.00    +0.000 N 
ATOM      4  H   UNL     1      -0.632  10.623  17.147  0.00  0.00    +0.000 HD
ENDROOT
BRANCH   3   5
ATOM      5  C   UNL     1      -2.471  10.102  18.138  0.00  0.00    +0.000 C 
ATOM      6  C   UNL     1      -3.078   9.445  16.908  0.00  0.00    +0.000 C 
ATOM      7  C   UNL     1      -3.239  10.621  15.963  0.00  0.00    +0.000 C 
ATOM      8  N   UNL     1      -3.712  11.741  16.796  0.00  0.00    +0.000 NA
ATOM      9  C   UNL     1      -3.214  11.453  18.174  0.00  0.00    +0.000 C 
BRANCH   8  10
ATOM     10  C   UNL     1      -5.183  11.874  16.815  0.00  0.00    +0.000 C 
BRANCH  10  11
ATOM     11  C   UNL     1      -5.834  11.837  18.187  0.00  0.00    +0.000 A 
ATOM     12  C   UNL     1      -6.465  10.660  18.628  0.00  0.00    +0.000 A 
ATOM     13  C   UNL     1      -7.037  10.592  19.901  0.00  0.00    +0.000 A 
ATOM     14  C   UNL     1      -6.970  11.694  20.749  0.00  0.00    +0.000 A 
ATOM     15 CL   UNL     1      -7.665  11.606  22.320  0.00  0.00    +0.000 Cl
ATOM     16  C   UNL     1      -6.340  12.866  20.333  0.00  0.00    +0.000 A 
ATOM     17  C   UNL     1      -5.778  12.938  19.052  0.00  0.00    +0.000 A 
ENDBRANCH  10  11
ENDBRANCH   8  10
ENDBRANCH   3   5
BRANCH   2  18
ATOM     18  C   UNL     1       1.340  10.012  18.641  0.00  0.00    +0.000 C 
BRANCH  18  19
ATOM     19  N   UNL     1       1.875   8.795  18.055  0.00  0.00    +0.000 N 
ATOM     20  C   UNL     1       2.292   7.762  18.859  0.00  0.00    +0.000 C 
ATOM     21  O   UNL     1       2.185   7.790  20.082  0.00  0.00    +0.000 OA
ATOM     22  H   UNL     1       1.746   8.657  17.060  0.00  0.00    +0.000 HD
BRANCH  20  23
ATOM     23  C   UNL     1       2.853   6.561  18.184  0.00  0.00    +0.000 A 
ATOM     24  C   UNL     1       2.124   5.366  18.254  0.00  0.00    +0.000 A 
ATOM     25  C   UNL     1       2.603   4.201  17.652  0.00  0.00    +0.000 A 
ATOM     26  C   UNL     1       3.828   4.214  16.986  0.00  0.00    +0.000 A 
ATOM     27  C   UNL     1       4.573   5.400  16.936  0.00  0.00    +0.000 A 
ATOM     28  C   UNL     1       4.096   6.578  17.537  0.00  0.00    +0.000 A 
BRANCH  27  29
ATOM     29  N   UNL     1       5.872   5.408  16.250  0.00  0.00    +0.000 N 
ATOM     30  O   UNL     1       6.076   6.294  15.409  0.00  0.00    +0.000 OA
ATOM     31  O   UNL     1       6.686   4.526  16.558  0.00  0.00    +0.000 OA
ENDBRANCH  27  29
ENDBRANCH  20  23
ENDBRANCH  18  19
ENDBRANCH   2  18
TORSDOF 7
ENDMDL
MODEL 6
REMARK VINA RESULT:      -7.5      1.719      2.043
REMARK  Name = 
REMARK  7 active torsions:
REMARK  status: ('A' for Active; 'I' for Inactive)
REMARK    1  A    between atoms: C_2  and  C_3
REMARK    2  A    between atoms: C_3  and  N_4
REMARK    3  A    between atoms: C_5  and  C_7
REMARK    4  A    between atoms: C_11  and  N_12
REMARK    5  A    between atoms: N_16  and  C_17
REMARK    6  A    between atoms: N_20  and  C_21
REMARK    7  A    between atoms: C_21  and  C_22
REMARK                            x       y       z     vdW  Elec       q    Type
REMARK                         _______ _______ _______ _____ _____    ______ ____
ROOT
ATOM      1  O   UNL     1       8.504   7.775  18.725  0.00  0.00    +0.000 OA
ATOM      2  C   UNL     1       7.839   8.181  17.774  0.00  0.00    +0.000 C 
ATOM      3  N   UNL     1       7.007   7.367  17.030  0.00  0.00    +0.000 N 
ATOM      4  H   UNL     1       6.423   7.805  16.318  0.00  0.00    +0.000 HD
ENDROOT
BRANCH   3   5
ATOM      5  C   UNL     1       6.956   5.915  17.203  0.00  0.00    +0.000 C 
ATOM      6  C   UNL     1       6.921   5.189  15.867  0.00  0.00    +0.000 C 
ATOM      7  C   UNL     1       5.446   5.241  15.512  0.00  0.00    +0.000 C 
ATOM      8  N   UNL     1       4.723   4.990  16.771  0.00  0.00    +0.000 NA
ATOM      9  C   UNL     1       5.646   5.436  17.858  0.00  0.00    +0.000 C 
BRANCH   8  10
ATOM     10  C   UNL     1       4.370   3.569  16.968  0.00  0.00    +0.000 C 
BRANCH  10  11
ATOM     11  C   UNL     1       3.538   3.257  18.200  0.00  0.00    +0.000 A 
ATOM     12  C   UNL     1       4.162   2.752  19.354  0.00  0.00    +0.000 A 
ATOM     13  C   UNL     1       3.423   2.494  20.511  0.00  0.00    +0.000 A 
ATOM     14  C   UNL     1       2.055   2.754  20.528  0.00  0.00    +0.000 A 
ATOM     15 CL   UNL     1       1.145   2.447  21.956  0.00  0.00    +0.000 Cl
ATOM     16  C   UNL     1       1.420   3.265  19.398  0.00  0.00    +0.000 A 
ATOM     17  C   UNL     1       2.160   3.511  18.234  0.00  0.00    +0.000 A 
ENDBRANCH  10  11
ENDBRANCH   8  10
ENDBRANCH   3   5
BRANCH   2  18
ATOM     18  C   UNL     1       7.835   9.656  17.356  0.00  0.00    +0.000 C 
BRANCH  18  19
ATOM     19  N   UNL     1       8.844  10.440  18.047  0.00  0.00    +0.000 N 
ATOM     20  C   UNL     1       8.867  11.809  17.921  0.00  0.00    +0.000 C 
ATOM     21  O   UNL     1       8.024  12.428  17.278  0.00  0.00    +0.000 OA
ATOM     22  H   UNL     1       9.388   9.978  18.765  0.00  0.00    +0.000 HD
BRANCH  20  23
ATOM     23  C   UNL     1       9.947  12.539  18.637  0.00  0.00    +0.000 A 
ATOM     24  C   UNL     1      11.270  12.120  18.435  0.00  0.00    +0.000 A 
ATOM     25  C   UNL     1      12.327  12.757  19.088  0.00  0.00    +0.000 A 
ATOM     26  C   UNL     1      12.072  13.809  19.965  0.00  0.00    +0.000 A 
ATOM     27  C   UNL     1      10.748  14.214  20.190  0.00  0.00    +0.000 A 
ATOM     28  C   UNL     1       9.679  13.581  19.534  0.00  0.00    +0.000 A 
BRANCH  27  29
ATOM     29  N   UNL     1      10.479  15.312  21.129  0.00  0.00    +0.000 N 
ATOM     30  O   UNL     1      10.087  15.017  22.266  0.00  0.00    +0.000 OA
ATOM     31  O   UNL     1      10.664  16.468  20.724  0.00  0.00    +0.000 OA
ENDBRANCH  27  29
ENDBRANCH  20  23
ENDBRANCH  18  19
ENDBRANCH   2  18
TORSDOF 7
ENDMDL
MODEL 7
REMARK VINA RESULT:      -7.5      7.283      9.674
REMARK  Name = 
REMARK  7 active torsions:
REMARK  status: ('A' for Active; 'I' for Inactive)
REMARK    1  A    between atoms: C_2  and  C_3
REMARK    2  A    between atoms: C_3  and  N_4
REMARK    3  A    between atoms: C_5  and  C_7
REMARK    4  A    between atoms: C_11  and  N_12
REMARK    5  A    between atoms: N_16  and  C_17
REMARK    6  A    between atoms: N_20  and  C_21
REMARK    7  A    between atoms: C_21  and  C_22
REMARK                            x       y       z     vdW  Elec       q    Type
REMARK                         _______ _______ _______ _____ _____    ______ ____
ROOT
ATOM      1  O   UNL     1       2.863   8.991  16.998  0.00  0.00    +0.000 OA
ATOM      2  C   UNL     1       2.167   8.804  17.994  0.00  0.00    +0.000 C 
ATOM      3  N   UNL     1       2.038   7.573  18.606  0.00  0.00    +0.000 N 
ATOM      4  H   UNL     1       1.514   7.527  19.479  0.00  0.00    +0.000 HD
ENDROOT
BRANCH   3   5
ATOM      5  C   UNL     1       2.590   6.343  18.037  0.00  0.00    +0.000 C 
ATOM      6  C   UNL     1       2.238   5.125  18.878  0.00  0.00    +0.000 C 
ATOM      7  C   UNL     1       3.308   5.158  19.954  0.00  0.00    +0.000 C 
ATOM      8  N   UNL     1       4.555   5.533  19.265  0.00  0.00    +0.000 NA
ATOM      9  C   UNL     1       4.130   6.310  18.062  0.00  0.00    +0.000 C 
BRANCH   8  10
ATOM     10  C   UNL     1       5.363   4.369  18.847  0.00  0.00    +0.000 C 
BRANCH  10  11
ATOM     11  C   UNL     1       5.843   4.379  17.406  0.00  0.00    +0.000 A 
ATOM     12  C   UNL     1       4.993   3.921  16.384  0.00  0.00    +0.000 A 
ATOM     13  C   UNL     1       5.399   3.956  15.048  0.00  0.00    +0.000 A 
ATOM     14  C   UNL     1       6.654   4.464  14.721  0.00  0.00    +0.000 A 
ATOM     15 CL   UNL     1       7.150   4.517  13.075  0.00  0.00    +0.000 Cl
ATOM     16  C   UNL     1       7.507   4.931  15.719  0.00  0.00    +0.000 A 
ATOM     17  C   UNL     1       7.104   4.883  17.060  0.00  0.00    +0.000 A 
ENDBRANCH  10  11
ENDBRANCH   8  10
ENDBRANCH   3   5
BRANCH   2  18
ATOM     18  C   UNL     1       1.413   9.946  18.685  0.00  0.00    +0.000 C 
BRANCH  18  19
ATOM     19  N   UNL     1       0.175  10.294  18.008  0.00  0.00    +0.000 N 
ATOM     20  C   UNL     1      -1.024  10.230  18.678  0.00  0.00    +0.000 C 
ATOM     21  O   UNL     1      -1.103   9.938  19.868  0.00  0.00    +0.000 OA
ATOM     22  H   UNL     1       0.244  10.765  17.115  0.00  0.00    +0.000 HD
BRANCH  20  23
ATOM     23  C   UNL     1      -2.250  10.575  17.909  0.00  0.00    +0.000 A 
ATOM     24  C   UNL     1      -2.348  10.117  16.587  0.00  0.00    +0.000 A 
ATOM     25  C   UNL     1      -3.468  10.418  15.809  0.00  0.00    +0.000 A 
ATOM     26  C   UNL     1      -4.496  11.195  16.340  0.00  0.00    +0.000 A 
ATOM     27  C   UNL     1      -4.391  11.677  17.653  0.00  0.00    +0.000 A 
ATOM     28  C   UNL     1      -3.269  11.375  18.443  0.00  0.00    +0.000 A 
BRANCH  27  29
ATOM     29  N   UNL     1      -5.467  12.510  18.204  0.00  0.00    +0.000 N 
ATOM     30  O   UNL     1      -5.499  12.677  19.431  0.00  0.00    +0.000 OA
ATOM     31  O   UNL     1      -6.278  12.998  17.405  0.00  0.00    +0.000 OA
ENDBRANCH  27  29
ENDBRANCH  20  23
ENDBRANCH  18  19
ENDBRANCH   2  18
TORSDOF 7
ENDMDL
MODEL 8
REMARK VINA RESULT:      -7.4      6.142      7.225
REMARK  Name = 
REMARK  7 active torsions:
REMARK  status: ('A' for Active; 'I' for Inactive)
REMARK    1  A    between atoms: C_2  and  C_3
REMARK    2  A    between atoms: C_3  and  N_4
REMARK    3  A    between atoms: C_5  and  C_7
REMARK    4  A    between atoms: C_11  and  N_12
REMARK    5  A    between atoms: N_16  and  C_17
REMARK    6  A    between atoms: N_20  and  C_21
REMARK    7  A    between atoms: C_21  and  C_22
REMARK                            x       y       z     vdW  Elec       q    Type
REMARK                         _______ _______ _______ _____ _____    ______ ____
ROOT
ATOM      1  O   UNL     1       2.078   9.208  17.437  0.00  0.00    +0.000 OA
ATOM      2  C   UNL     1       1.783   8.839  18.571  0.00  0.00    +0.000 C 
ATOM      3  N   UNL     1       2.108   7.593  19.069  0.00  0.00    +0.000 N 
ATOM      4  H   UNL     1       1.906   7.403  20.050  0.00  0.00    +0.000 HD
ENDROOT
BRANCH   3   5
ATOM      5  C   UNL     1       2.696   6.537  18.244  0.00  0.00    +0.000 C 
ATOM      6  C   UNL     1       2.029   5.191  18.488  0.00  0.00    +0.000 C 
ATOM      7  C   UNL     1       2.759   4.692  19.722  0.00  0.00    +0.000 C 
ATOM      8  N   UNL     1       4.174   5.051  19.521  0.00  0.00    +0.000 NA
ATOM      9  C   UNL     1       4.162   6.236  18.612  0.00  0.00    +0.000 C 
BRANCH   8  10
ATOM     10  C   UNL     1       4.971   3.964  18.915  0.00  0.00    +0.000 C 
BRANCH  10  11
ATOM     11  C   UNL     1       5.553   4.256  17.543  0.00  0.00    +0.000 A 
ATOM     12  C   UNL     1       6.884   4.695  17.428  0.00  0.00    +0.000 A 
ATOM     13  C   UNL     1       7.452   4.933  16.174  0.00  0.00    +0.000 A 
ATOM     14  C   UNL     1       6.698   4.719  15.023  0.00  0.00    +0.000 A 
ATOM     15 CL   UNL     1       7.400   5.002  13.478  0.00  0.00    +0.000 Cl
ATOM     16  C   UNL     1       5.380   4.275  15.116  0.00  0.00    +0.000 A 
ATOM     17  C   UNL     1       4.808   4.049  16.374  0.00  0.00    +0.000 A 
ENDBRANCH  10  11
ENDBRANCH   8  10
ENDBRANCH   3   5
BRANCH   2  18
ATOM     18  C   UNL     1       1.064   9.759  19.564  0.00  0.00    +0.000 C 
BRANCH  18  19
ATOM     19  N   UNL     1       1.071  11.151  19.150  0.00  0.00    +0.000 N 
ATOM     20  C   UNL     1       1.211  12.152  20.081  0.00  0.00    +0.000 C 
ATOM     21  O   UNL     1       1.388  11.926  21.275  0.00  0.00    +0.000 OA
ATOM     22  H   UNL     1       1.170  11.347  18.162  0.00  0.00    +0.000 HD
BRANCH  20  23
ATOM     23  C   UNL     1       1.181  13.553  19.581  0.00  0.00    +0.000 A 
ATOM     24  C   UNL     1      -0.005  14.283  19.740  0.00  0.00    +0.000 A 
ATOM     25  C   UNL     1      -0.101  15.598  19.281  0.00  0.00    +0.000 A 
ATOM     26  C   UNL     1       0.985  16.193  18.642  0.00  0.00    +0.000 A 
ATOM     27  C   UNL     1       2.166  15.459  18.458  0.00  0.00    +0.000 A 
ATOM     28  C   UNL     1       2.271  14.136  18.920  0.00  0.00    +0.000 A 
BRANCH  27  29
ATOM     29  N   UNL     1       3.303  16.081  17.768  0.00  0.00    +0.000 N 
ATOM     30  O   UNL     1       4.270  15.362  17.483  0.00  0.00    +0.000 OA
ATOM     31  O   UNL     1       3.223  17.291  17.512  0.00  0.00    +0.000 OA
ENDBRANCH  27  29
ENDBRANCH  20  23
ENDBRANCH  18  19
ENDBRANCH   2  18
TORSDOF 7
ENDMDL
MODEL 9
REMARK VINA RESULT:      -7.3      6.088      7.202
REMARK  Name = 
REMARK  7 active torsions:
REMARK  status: ('A' for Active; 'I' for Inactive)
REMARK    1  A    between atoms: C_2  and  C_3
REMARK    2  A    between atoms: C_3  and  N_4
REMARK    3  A    between atoms: C_5  and  C_7
REMARK    4  A    between atoms: C_11  and  N_12
REMARK    5  A    between atoms: N_16  and  C_17
REMARK    6  A    between atoms: N_20  and  C_21
REMARK    7  A    between atoms: C_21  and  C_22
REMARK                            x       y       z     vdW  Elec       q    Type
REMARK                         _______ _______ _______ _____ _____    ______ ____
ROOT
ATOM      1  O   UNL     1       2.260   9.210  17.313  0.00  0.00    +0.000 OA
ATOM      2  C   UNL     1       1.892   8.826  18.420  0.00  0.00    +0.000 C 
ATOM      3  N   UNL     1       2.199   7.580  18.930  0.00  0.00    +0.000 N 
ATOM      4  H   UNL     1       1.931   7.378  19.893  0.00  0.00    +0.000 HD
ENDROOT
BRANCH   3   5
ATOM      5  C   UNL     1       2.856   6.539  18.139  0.00  0.00    +0.000 C 
ATOM      6  C   UNL     1       2.137   5.203  18.254  0.00  0.00    +0.000 C 
ATOM      7  C   UNL     1       2.708   4.642  19.544  0.00  0.00    +0.000 C 
ATOM      8  N   UNL     1       4.144   4.972  19.521  0.00  0.00    +0.000 NA
ATOM      9  C   UNL     1       4.263   6.188  18.662  0.00  0.00    +0.000 C 
BRANCH   8  10
ATOM     10  C   UNL     1       4.983   3.888  18.970  0.00  0.00    +0.000 C 
BRANCH  10  11
ATOM     11  C   UNL     1       5.615   4.161  17.616  0.00  0.00    +0.000 A 
ATOM     12  C   UNL     1       4.879   3.923  16.442  0.00  0.00    +0.000 A 
ATOM     13  C   UNL     1       5.426   4.203  15.188  0.00  0.00    +0.000 A 
ATOM     14  C   UNL     1       6.708   4.739  15.098  0.00  0.00    +0.000 A 
ATOM     15 CL   UNL     1       7.378   5.094  13.553  0.00  0.00    +0.000 Cl
ATOM     16  C   UNL     1       7.448   4.992  16.250  0.00  0.00    +0.000 A 
ATOM     17  C   UNL     1       6.904   4.698  17.507  0.00  0.00    +0.000 A 
ENDBRANCH  10  11
ENDBRANCH   8  10
ENDBRANCH   3   5
BRANCH   2  18
ATOM     18  C   UNL     1       1.094   9.728  19.369  0.00  0.00    +0.000 C 
BRANCH  18  19
ATOM     19  N   UNL     1       1.116  11.125  18.971  0.00  0.00    +0.000 N 
ATOM     20  C   UNL     1       1.282  12.113  19.911  0.00  0.00    +0.000 C 
ATOM     21  O   UNL     1       1.473  11.871  21.100  0.00  0.00    +0.000 OA
ATOM     22  H   UNL     1       1.205  11.330  17.983  0.00  0.00    +0.000 HD
BRANCH  20  23
ATOM     23  C   UNL     1       1.266  13.520  19.427  0.00  0.00    +0.000 A 
ATOM     24  C   UNL     1       0.073  14.245  19.552  0.00  0.00    +0.000 A 
ATOM     25  C   UNL     1      -0.011  15.565  19.106  0.00  0.00    +0.000 A 
ATOM     26  C   UNL     1       1.095  16.171  18.513  0.00  0.00    +0.000 A 
ATOM     27  C   UNL     1       2.284  15.442  18.362  0.00  0.00    +0.000 A 
ATOM     28  C   UNL     1       2.377  14.113  18.812  0.00  0.00    +0.000 A 
BRANCH  27  29
ATOM     29  N   UNL     1       3.443  16.076  17.721  0.00  0.00    +0.000 N 
ATOM     30  O   UNL     1       3.305  17.227  17.286  0.00  0.00    +0.000 OA
ATOM     31  O   UNL     1       4.491  15.418  17.657  0.00  0.00    +0.000 OA
ENDBRANCH  27  29
ENDBRANCH  20  23
ENDBRANCH  18  19
ENDBRANCH   2  18
TORSDOF 7
ENDMDL
