MODEL 1
REMARK VINA RESULT:      -7.3      0.000      0.000
REMARK  Name = 
REMARK  1 active torsions:
REMARK  status: ('A' for Active; 'I' for Inactive)
REMARK    1  A    between atoms: N_3  and  C_4
REMARK                            x       y       z     vdW  Elec       q    Type
REMARK                         _______ _______ _______ _____ _____    ______ ____
ROOT
ATOM      1  O   UNL     1       0.814  11.103  20.768  0.00  0.00    +0.000 OA
ATOM      2  C   UNL     1       1.016  10.849  19.584  0.00  0.00    +0.000 C 
ATOM      3  N   UNL     1       0.895  11.786  18.580  0.00  0.00    +0.000 N 
ATOM      4  N   UNL     1       1.322   9.574  19.144  0.00  0.00    +0.000 N 
ATOM      5  C   UNL     1       1.568   9.170  17.739  0.00  0.00    +0.000 C 
ATOM      6  C   UNL     1       2.668   8.086  17.614  0.00  0.00    +0.000 C 
ATOM      7  N   UNL     1       2.320   7.002  18.539  0.00  0.00    +0.000 N 
ATOM      8  C   UNL     1       2.704   5.706  18.260  0.00  0.00    +0.000 A 
ATOM      9  C   UNL     1       1.961   4.669  18.803  0.00  0.00    +0.000 A 
ATOM     10  C   UNL     1       2.302   3.384  18.456  0.00  0.00    +0.000 A 
ATOM     11  N   UNL     1       3.325   3.096  17.642  0.00  0.00    +0.000 NA
ATOM     12  C   UNL     1       3.978   4.170  17.172  0.00  0.00    +0.000 A 
ATOM     13 CL   UNL     1       5.304   3.843  16.147  0.00  0.00    +0.000 Cl
ATOM     14  N   UNL     1       3.717   5.465  17.411  0.00  0.00    +0.000 NA
ATOM     15  C   UNL     1       2.313   7.433  19.946  0.00  0.00    +0.000 C 
ATOM     16  C   UNL     1       1.196   8.472  20.109  0.00  0.00    +0.000 C 
ATOM     17  H   UNL     1       0.357  11.423  17.803  0.00  0.00    +0.000 HD
ENDROOT
BRANCH   3  18
ATOM     18  C   UNL     1       0.632  13.153  18.871  0.00  0.00    +0.000 A 
ATOM     19  C   UNL     1      -0.634  13.639  19.246  0.00  0.00    +0.000 A 
ATOM     20 CL   UNL     1      -1.981  12.600  19.573  0.00  0.00    +0.000 Cl
ATOM     21  C   UNL     1      -0.821  15.003  19.490  0.00  0.00    +0.000 A 
ATOM     22  C   UNL     1       0.252  15.883  19.382  0.00  0.00    +0.000 A 
ATOM     23 CL   UNL     1       0.018  17.559  19.692  0.00  0.00    +0.000 Cl
ATOM     24  C   UNL     1       1.520  15.417  19.050  0.00  0.00    +0.000 A 
ATOM     25  C   UNL     1       1.708  14.058  18.808  0.00  0.00    +0.000 A 
ATOM     26 CL   UNL     1       3.299  13.518  18.388  0.00  0.00    +0.000 Cl
ENDBRANCH   3  18
TORSDOF 1
ENDMDL
MODEL 2
REMARK VINA RESULT:      -7.2      0.175      1.831
REMARK  Name = 
REMARK  1 active torsions:
REMARK  status: ('A' for Active; 'I' for Inactive)
REMARK    1  A    between atoms: N_3  and  C_4
REMARK                            x       y       z     vdW  Elec       q    Type
REMARK                         _______ _______ _______ _____ _____    ______ ____
ROOT
ATOM      1  O   UNL     1       0.881  11.123  20.741  0.00  0.00    +0.000 OA
ATOM      2  C   UNL     1       1.107  10.869  19.561  0.00  0.00    +0.000 C 
ATOM      3  N   UNL     1       1.040  11.814  18.560  0.00  0.00    +0.000 N 
ATOM      4  N   UNL     1       1.388   9.588  19.122  0.00  0.00    +0.000 N 
ATOM      5  C   UNL     1       1.660   9.184  17.721  0.00  0.00    +0.000 C 
ATOM      6  C   UNL     1       2.731   8.069  17.619  0.00  0.00    +0.000 C 
ATOM      7  N   UNL     1       2.328   6.991  18.528  0.00  0.00    +0.000 N 
ATOM      8  C   UNL     1       2.682   5.686  18.252  0.00  0.00    +0.000 A 
ATOM      9  C   UNL     1       1.895   4.669  18.769  0.00  0.00    +0.000 A 
ATOM     10  C   UNL     1       2.208   3.376  18.424  0.00  0.00    +0.000 A 
ATOM     11  N   UNL     1       3.244   3.062  17.636  0.00  0.00    +0.000 NA
ATOM     12  C   UNL     1       3.939   4.120  17.189  0.00  0.00    +0.000 A 
ATOM     13 CL   UNL     1       5.282   3.760  16.198  0.00  0.00    +0.000 Cl
ATOM     14  N   UNL     1       3.709   5.420  17.429  0.00  0.00    +0.000 NA
ATOM     15  C   UNL     1       2.296   7.415  19.937  0.00  0.00    +0.000 C 
ATOM     16  C   UNL     1       1.204   8.485  20.076  0.00  0.00    +0.000 C 
ATOM     17  H   UNL     1       0.512  11.470  17.766  0.00  0.00    +0.000 HD
ENDROOT
BRANCH   3  18
ATOM     18  C   UNL     1       0.809  13.186  18.852  0.00  0.00    +0.000 A 
ATOM     19  C   UNL     1       1.826  14.159  18.878  0.00  0.00    +0.000 A 
ATOM     20 CL   UNL     1       3.452  13.831  18.379  0.00  0.00    +0.000 Cl
ATOM     21  C   UNL     1       1.525  15.485  19.202  0.00  0.00    +0.000 A 
ATOM     22  C   UNL     1       0.211  15.853  19.480  0.00  0.00    +0.000 A 
ATOM     23 CL   UNL     1      -0.155  17.488  19.868  0.00  0.00    +0.000 Cl
ATOM     24  C   UNL     1      -0.815  14.915  19.422  0.00  0.00    +0.000 A 
ATOM     25  C   UNL     1      -0.516  13.592  19.098  0.00  0.00    +0.000 A 
ATOM     26 CL   UNL     1      -1.819  12.453  19.045  0.00  0.00    +0.000 Cl
ENDBRANCH   3  18
TORSDOF 1
ENDMDL
MODEL 3
REMARK VINA RESULT:      -6.8      1.105      2.066
REMARK  Name = 
REMARK  1 active torsions:
REMARK  status: ('A' for Active; 'I' for Inactive)
REMARK    1  A    between atoms: N_3  and  C_4
REMARK                            x       y       z     vdW  Elec       q    Type
REMARK                         _______ _______ _______ _____ _____    ______ ____
ROOT
ATOM      1  O   UNL     1       0.499  10.569  21.572  0.00  0.00    +0.000 OA
ATOM      2  C   UNL     1       0.731  10.512  20.367  0.00  0.00    +0.000 C 
ATOM      3  N   UNL     1       0.574  11.584  19.517  0.00  0.00    +0.000 N 
ATOM      4  N   UNL     1       1.113   9.337  19.745  0.00  0.00    +0.000 N 
ATOM      5  C   UNL     1       1.401   9.168  18.300  0.00  0.00    +0.000 C 
ATOM      6  C   UNL     1       2.561   8.175  18.036  0.00  0.00    +0.000 C 
ATOM      7  N   UNL     1       2.259   6.945  18.775  0.00  0.00    +0.000 N 
ATOM      8  C   UNL     1       2.718   5.729  18.309  0.00  0.00    +0.000 A 
ATOM      9  C   UNL     1       2.024   4.584  18.670  0.00  0.00    +0.000 A 
ATOM     10  C   UNL     1       2.440   3.386  18.138  0.00  0.00    +0.000 A 
ATOM     11  N   UNL     1       3.490   3.281  17.314  0.00  0.00    +0.000 NA
ATOM     12  C   UNL     1       4.089   4.447  17.028  0.00  0.00    +0.000 A 
ATOM     13 CL   UNL     1       5.446   4.351  15.997  0.00  0.00    +0.000 Cl
ATOM     14  N   UNL     1       3.754   5.674  17.458  0.00  0.00    +0.000 NA
ATOM     15  C   UNL     1       2.208   7.152  20.231  0.00  0.00    +0.000 C 
ATOM     16  C   UNL     1       1.033   8.095  20.526  0.00  0.00    +0.000 C 
ATOM     17  H   UNL     1       0.068  11.318  18.681  0.00  0.00    +0.000 HD
ENDROOT
BRANCH   3  18
ATOM     18  C   UNL     1       0.233  12.874  20.008  0.00  0.00    +0.000 A 
ATOM     19  C   UNL     1       1.176  13.790  20.512  0.00  0.00    +0.000 A 
ATOM     20 CL   UNL     1       2.885  13.523  20.425  0.00  0.00    +0.000 Cl
ATOM     21  C   UNL     1       0.760  15.031  21.004  0.00  0.00    +0.000 A 
ATOM     22  C   UNL     1      -0.589  15.373  20.978  0.00  0.00    +0.000 A 
ATOM     23 CL   UNL     1      -1.094  16.905  21.576  0.00  0.00    +0.000 Cl
ATOM     24  C   UNL     1      -1.532  14.499  20.449  0.00  0.00    +0.000 A 
ATOM     25  C   UNL     1      -1.119  13.261  19.957  0.00  0.00    +0.000 A 
ATOM     26 CL   UNL     1      -2.324  12.197  19.316  0.00  0.00    +0.000 Cl
ENDBRANCH   3  18
TORSDOF 1
ENDMDL
MODEL 4
REMARK VINA RESULT:      -6.7      1.205      1.210
REMARK  Name = 
REMARK  1 active torsions:
REMARK  status: ('A' for Active; 'I' for Inactive)
REMARK    1  A    between atoms: N_3  and  C_4
REMARK                            x       y       z     vdW  Elec       q    Type
REMARK                         _______ _______ _______ _____ _____    ______ ____
ROOT
ATOM      1  O   UNL     1       0.458  10.731  21.714  0.00  0.00    +0.000 OA
ATOM      2  C   UNL     1       0.656  10.696  20.503  0.00  0.00    +0.000 C 
ATOM      3  N   UNL     1       0.440  11.774  19.672  0.00  0.00    +0.000 N 
ATOM      4  N   UNL     1       1.055   9.542  19.853  0.00  0.00    +0.000 N 
ATOM      5  C   UNL     1       1.304   9.401  18.398  0.00  0.00    +0.000 C 
ATOM      6  C   UNL     1       2.484   8.447  18.086  0.00  0.00    +0.000 C 
ATOM      7  N   UNL     1       2.244   7.199  18.817  0.00  0.00    +0.000 N 
ATOM      8  C   UNL     1       2.725   6.004  18.321  0.00  0.00    +0.000 A 
ATOM      9  C   UNL     1       2.079   4.834  18.687  0.00  0.00    +0.000 A 
ATOM     10  C   UNL     1       2.514   3.657  18.126  0.00  0.00    +0.000 A 
ATOM     11  N   UNL     1       3.541   3.594  17.269  0.00  0.00    +0.000 NA
ATOM     12  C   UNL     1       4.096   4.783  16.982  0.00  0.00    +0.000 A 
ATOM     13 CL   UNL     1       5.423   4.742  15.909  0.00  0.00    +0.000 Cl
ATOM     14  N   UNL     1       3.736   5.992  17.438  0.00  0.00    +0.000 NA
ATOM     15  C   UNL     1       2.230   7.387  20.276  0.00  0.00    +0.000 C 
ATOM     16  C   UNL     1       1.037   8.288  20.619  0.00  0.00    +0.000 C 
ATOM     17  H   UNL     1      -0.083  11.503  18.848  0.00  0.00    +0.000 HD
ENDROOT
BRANCH   3  18
ATOM     18  C   UNL     1       0.074  13.046  20.191  0.00  0.00    +0.000 A 
ATOM     19  C   UNL     1      -1.259  13.456  20.379  0.00  0.00    +0.000 A 
ATOM     20 CL   UNL     1      -2.608  12.390  20.172  0.00  0.00    +0.000 Cl
ATOM     21  C   UNL     1      -1.541  14.736  20.869  0.00  0.00    +0.000 A 
ATOM     22  C   UNL     1      -0.500  15.602  21.191  0.00  0.00    +0.000 A 
ATOM     23 CL   UNL     1      -0.852  17.171  21.801  0.00  0.00    +0.000 Cl
ATOM     24  C   UNL     1       0.824  15.203  21.048  0.00  0.00    +0.000 A 
ATOM     25  C   UNL     1       1.107  13.928  20.561  0.00  0.00    +0.000 A 
ATOM     26 CL   UNL     1       2.768  13.472  20.389  0.00  0.00    +0.000 Cl
ENDBRANCH   3  18
TORSDOF 1
ENDMDL
MODEL 5
REMARK VINA RESULT:      -6.7      1.148      1.206
REMARK  Name = 
REMARK  1 active torsions:
REMARK  status: ('A' for Active; 'I' for Inactive)
REMARK    1  A    between atoms: N_3  and  C_4
REMARK                            x       y       z     vdW  Elec       q    Type
REMARK                         _______ _______ _______ _____ _____    ______ ____
ROOT
ATOM      1  O   UNL     1       0.857  11.746  21.155  0.00  0.00    +0.000 OA
ATOM      2  C   UNL     1       0.959  11.250  20.036  0.00  0.00    +0.000 C 
ATOM      3  N   UNL     1       0.864  11.984  18.874  0.00  0.00    +0.000 N 
ATOM      4  N   UNL     1       1.115   9.889  19.844  0.00  0.00    +0.000 N 
ATOM      5  C   UNL     1       1.233   9.199  18.537  0.00  0.00    +0.000 C 
ATOM      6  C   UNL     1       2.215   8.002  18.580  0.00  0.00    +0.000 C 
ATOM      7  N   UNL     1       1.826   7.158  19.715  0.00  0.00    +0.000 N 
ATOM      8  C   UNL     1       2.067   5.799  19.680  0.00  0.00    +0.000 A 
ATOM      9  C   UNL     1       1.265   4.970  20.449  0.00  0.00    +0.000 A 
ATOM     10  C   UNL     1       1.460   3.613  20.348  0.00  0.00    +0.000 A 
ATOM     11  N   UNL     1       2.399   3.069  19.563  0.00  0.00    +0.000 NA
ATOM     12  C   UNL     1       3.119   3.959  18.862  0.00  0.00    +0.000 A 
ATOM     13 CL   UNL     1       4.341   3.304  17.866  0.00  0.00    +0.000 Cl
ATOM     14  N   UNL     1       2.997   5.295  18.853  0.00  0.00    +0.000 NA
ATOM     15  C   UNL     1       1.948   7.849  21.008  0.00  0.00    +0.000 C 
ATOM     16  C   UNL     1       0.946   9.012  21.012  0.00  0.00    +0.000 C 
ATOM     17  H   UNL     1       0.246  11.537  18.208  0.00  0.00    +0.000 HD
ENDROOT
BRANCH   3  18
ATOM     18  C   UNL     1       0.751  13.401  18.901  0.00  0.00    +0.000 A 
ATOM     19  C   UNL     1      -0.433  14.081  19.243  0.00  0.00    +0.000 A 
ATOM     20 CL   UNL     1      -1.841  13.271  19.847  0.00  0.00    +0.000 Cl
ATOM     21  C   UNL     1      -0.476  15.478  19.220  0.00  0.00    +0.000 A 
ATOM     22  C   UNL     1       0.662  16.203  18.878  0.00  0.00    +0.000 A 
ATOM     23 CL   UNL     1       0.607  17.922  18.860  0.00  0.00    +0.000 Cl
ATOM     24  C   UNL     1       1.853  15.552  18.574  0.00  0.00    +0.000 A 
ATOM     25  C   UNL     1       1.897  14.159  18.597  0.00  0.00    +0.000 A 
ATOM     26 CL   UNL     1       3.395  13.385  18.205  0.00  0.00    +0.000 Cl
ENDBRANCH   3  18
TORSDOF 1
ENDMDL
MODEL 6
REMARK VINA RESULT:      -6.6      1.131      2.182
REMARK  Name = 
REMARK  1 active torsions:
REMARK  status: ('A' for Active; 'I' for Inactive)
REMARK    1  A    between atoms: N_3  and  C_4
REMARK                            x       y       z     vdW  Elec       q    Type
REMARK                         _______ _______ _______ _____ _____    ______ ____
ROOT
ATOM      1  O   UNL     1       0.820  11.636  21.321  0.00  0.00    +0.000 OA
ATOM      2  C   UNL     1       0.943  11.163  20.194  0.00  0.00    +0.000 C 
ATOM      3  N   UNL     1       0.862  11.920  19.046  0.00  0.00    +0.000 N 
ATOM      4  N   UNL     1       1.110   9.807  19.977  0.00  0.00    +0.000 N 
ATOM      5  C   UNL     1       1.253   9.145  18.658  0.00  0.00    +0.000 C 
ATOM      6  C   UNL     1       2.242   7.953  18.694  0.00  0.00    +0.000 C 
ATOM      7  N   UNL     1       1.839   7.084  19.804  0.00  0.00    +0.000 N 
ATOM      8  C   UNL     1       2.089   5.728  19.746  0.00  0.00    +0.000 A 
ATOM      9  C   UNL     1       1.280   4.879  20.485  0.00  0.00    +0.000 A 
ATOM     10  C   UNL     1       1.485   3.525  20.360  0.00  0.00    +0.000 A 
ATOM     11  N   UNL     1       2.439   3.002  19.580  0.00  0.00    +0.000 NA
ATOM     12  C   UNL     1       3.165   3.910  18.908  0.00  0.00    +0.000 A 
ATOM     13 CL   UNL     1       4.407   3.283  17.919  0.00  0.00    +0.000 Cl
ATOM     14  N   UNL     1       3.035   5.246  18.924  0.00  0.00    +0.000 NA
ATOM     15  C   UNL     1       1.937   7.749  21.113  0.00  0.00    +0.000 C 
ATOM     16  C   UNL     1       0.928   8.906  21.124  0.00  0.00    +0.000 C 
ATOM     17  H   UNL     1       0.258  11.483  18.361  0.00  0.00    +0.000 HD
ENDROOT
BRANCH   3  18
ATOM     18  C   UNL     1       0.740  13.336  19.100  0.00  0.00    +0.000 A 
ATOM     19  C   UNL     1       1.816  14.219  18.891  0.00  0.00    +0.000 A 
ATOM     20 CL   UNL     1       3.378  13.688  18.364  0.00  0.00    +0.000 Cl
ATOM     21  C   UNL     1       1.623  15.600  18.988  0.00  0.00    +0.000 A 
ATOM     22  C   UNL     1       0.358  16.108  19.273  0.00  0.00    +0.000 A 
ATOM     23 CL   UNL     1       0.125  17.809  19.381  0.00  0.00    +0.000 Cl
ATOM     24  C   UNL     1      -0.726  15.254  19.444  0.00  0.00    +0.000 A 
ATOM     25  C   UNL     1      -0.535  13.877  19.347  0.00  0.00    +0.000 A 
ATOM     26 CL   UNL     1      -1.908  12.847  19.577  0.00  0.00    +0.000 Cl
ENDBRANCH   3  18
TORSDOF 1
ENDMDL
MODEL 7
REMARK VINA RESULT:      -6.4      1.872      2.602
REMARK  Name = 
REMARK  1 active torsions:
REMARK  status: ('A' for Active; 'I' for Inactive)
REMARK    1  A    between atoms: N_3  and  C_4
REMARK                            x       y       z     vdW  Elec       q    Type
REMARK                         _______ _______ _______ _____ _____    ______ ____
ROOT
ATOM      1  O   UNL     1      -0.264  10.588  21.784  0.00  0.00    +0.000 OA
ATOM      2  C   UNL     1       0.040  10.699  20.599  0.00  0.00    +0.000 C 
ATOM      3  N   UNL     1      -0.235  11.824  19.852  0.00  0.00    +0.000 N 
ATOM      4  N   UNL     1       0.632   9.670  19.889  0.00  0.00    +0.000 N 
ATOM      5  C   UNL     1       1.021   9.706  18.459  0.00  0.00    +0.000 C 
ATOM      6  C   UNL     1       2.333   8.931  18.178  0.00  0.00    +0.000 C 
ATOM      7  N   UNL     1       2.186   7.596  18.766  0.00  0.00    +0.000 N 
ATOM      8  C   UNL     1       2.852   6.520  18.214  0.00  0.00    +0.000 A 
ATOM      9  C   UNL     1       2.325   5.252  18.407  0.00  0.00    +0.000 A 
ATOM     10  C   UNL     1       2.949   4.196  17.788  0.00  0.00    +0.000 A 
ATOM     11  N   UNL     1       4.046   4.339  17.033  0.00  0.00    +0.000 NA
ATOM     12  C   UNL     1       4.472   5.605  16.910  0.00  0.00    +0.000 A 
ATOM     13 CL   UNL     1       5.882   5.826  15.972  0.00  0.00    +0.000 Cl
ATOM     14  N   UNL     1       3.929   6.714  17.436  0.00  0.00    +0.000 NA
ATOM     15  C   UNL     1       2.024   7.631  20.228  0.00  0.00    +0.000 C 
ATOM     16  C   UNL     1       0.703   8.350  20.533  0.00  0.00    +0.000 C 
ATOM     17  H   UNL     1      -0.647  11.580  18.960  0.00  0.00    +0.000 HD
ENDROOT
BRANCH   3  18
ATOM     18  C   UNL     1      -0.798  12.987  20.446  0.00  0.00    +0.000 A 
ATOM     19  C   UNL     1      -0.045  13.941  21.156  0.00  0.00    +0.000 A 
ATOM     20 CL   UNL     1       1.685  13.904  21.233  0.00  0.00    +0.000 Cl
ATOM     21  C   UNL     1      -0.675  15.046  21.736  0.00  0.00    +0.000 A 
ATOM     22  C   UNL     1      -2.049  15.217  21.596  0.00  0.00    +0.000 A 
ATOM     23 CL   UNL     1      -2.817  16.583  22.304  0.00  0.00    +0.000 Cl
ATOM     24  C   UNL     1      -2.806  14.306  20.866  0.00  0.00    +0.000 A 
ATOM     25  C   UNL     1      -2.179  13.204  20.286  0.00  0.00    +0.000 A 
ATOM     26 CL   UNL     1      -3.157  12.088  19.394  0.00  0.00    +0.000 Cl
ENDBRANCH   3  18
TORSDOF 1
ENDMDL
MODEL 8
REMARK VINA RESULT:      -6.4      2.945      4.036
REMARK  Name = 
REMARK  1 active torsions:
REMARK  status: ('A' for Active; 'I' for Inactive)
REMARK    1  A    between atoms: N_3  and  C_4
REMARK                            x       y       z     vdW  Elec       q    Type
REMARK                         _______ _______ _______ _____ _____    ______ ____
ROOT
ATOM      1  O   UNL     1      -0.880  11.991  23.434  0.00  0.00    +0.000 OA
ATOM      2  C   UNL     1      -0.920  11.811  22.220  0.00  0.00    +0.000 C 
ATOM      3  N   UNL     1      -1.559  12.668  21.351  0.00  0.00    +0.000 N 
ATOM      4  N   UNL     1      -0.375  10.688  21.622  0.00  0.00    +0.000 N 
ATOM      5  C   UNL     1      -0.386  10.379  20.172  0.00  0.00    +0.000 C 
ATOM      6  C   UNL     1       0.914   9.679  19.702  0.00  0.00    +0.000 C 
ATOM      7  N   UNL     1       1.144   8.540  20.596  0.00  0.00    +0.000 N 
ATOM      8  C   UNL     1       1.807   7.421  20.133  0.00  0.00    +0.000 A 
ATOM      9  C   UNL     1       1.563   6.208  20.758  0.00  0.00    +0.000 A 
ATOM     10  C   UNL     1       2.165   5.086  20.241  0.00  0.00    +0.000 A 
ATOM     11  N   UNL     1       2.988   5.122  19.184  0.00  0.00    +0.000 NA
ATOM     12  C   UNL     1       3.156   6.344  18.655  0.00  0.00    +0.000 A 
ATOM     13 CL   UNL     1       4.215   6.435  17.319  0.00  0.00    +0.000 Cl
ATOM     14  N   UNL     1       2.597   7.498  19.050  0.00  0.00    +0.000 NA
ATOM     15  C   UNL     1       1.368   8.947  21.993  0.00  0.00    +0.000 C 
ATOM     16  C   UNL     1       0.075   9.599  22.500  0.00  0.00    +0.000 C 
ATOM     17  H   UNL     1      -2.146  12.159  20.700  0.00  0.00    +0.000 HD
ENDROOT
BRANCH   3  18
ATOM     18  C   UNL     1      -2.128  13.890  21.802  0.00  0.00    +0.000 A 
ATOM     19  C   UNL     1      -1.375  15.053  22.054  0.00  0.00    +0.000 A 
ATOM     20 CL   UNL     1       0.309  15.183  21.670  0.00  0.00    +0.000 Cl
ATOM     21  C   UNL     1      -2.003  16.211  22.523  0.00  0.00    +0.000 A 
ATOM     22  C   UNL     1      -3.380  16.224  22.723  0.00  0.00    +0.000 A 
ATOM     23 CL   UNL     1      -4.148  17.654  23.291  0.00  0.00    +0.000 Cl
ATOM     24  C   UNL     1      -4.148  15.098  22.444  0.00  0.00    +0.000 A 
ATOM     25  C   UNL     1      -3.523  13.943  21.975  0.00  0.00    +0.000 A 
ATOM     26 CL   UNL     1      -4.512  12.559  21.647  0.00  0.00    +0.000 Cl
ENDBRANCH   3  18
TORSDOF 1
ENDMDL
MODEL 9
REMARK VINA RESULT:      -6.4      2.616      3.212
REMARK  Name = 
REMARK  1 active torsions:
REMARK  status: ('A' for Active; 'I' for Inactive)
REMARK    1  A    between atoms: N_3  and  C_4
REMARK                            x       y       z     vdW  Elec       q    Type
REMARK                         _______ _______ _______ _____ _____    ______ ____
ROOT
ATOM      1  O   UNL     1      -0.703  11.969  23.110  0.00  0.00    +0.000 OA
ATOM      2  C   UNL     1      -0.739  11.750  21.902  0.00  0.00    +0.000 C 
ATOM      3  N   UNL     1      -1.363  12.586  21.002  0.00  0.00    +0.000 N 
ATOM      4  N   UNL     1      -0.207  10.602  21.344  0.00  0.00    +0.000 N 
ATOM      5  C   UNL     1      -0.215  10.245  19.905  0.00  0.00    +0.000 C 
ATOM      6  C   UNL     1       1.077   9.513  19.465  0.00  0.00    +0.000 C 
ATOM      7  N   UNL     1       1.289   8.401  20.397  0.00  0.00    +0.000 N 
ATOM      8  C   UNL     1       1.939   7.259  19.974  0.00  0.00    +0.000 A 
ATOM      9  C   UNL     1       1.676   6.070  20.637  0.00  0.00    +0.000 A 
ATOM     10  C   UNL     1       2.266   4.924  20.160  0.00  0.00    +0.000 A 
ATOM     11  N   UNL     1       3.093   4.915  19.107  0.00  0.00    +0.000 NA
ATOM     12  C   UNL     1       3.280   6.117  18.539  0.00  0.00    +0.000 A 
ATOM     13 CL   UNL     1       4.346   6.150  17.206  0.00  0.00    +0.000 Cl
ATOM     14  N   UNL     1       2.734   7.291  18.893  0.00  0.00    +0.000 NA
ATOM     15  C   UNL     1       1.511   8.851  21.780  0.00  0.00    +0.000 C 
ATOM     16  C   UNL     1       0.225   9.536  22.260  0.00  0.00    +0.000 C 
ATOM     17  H   UNL     1      -1.954  12.065  20.366  0.00  0.00    +0.000 HD
ENDROOT
BRANCH   3  18
ATOM     18  C   UNL     1      -1.918  13.831  21.410  0.00  0.00    +0.000 A 
ATOM     19  C   UNL     1      -3.211  13.968  21.948  0.00  0.00    +0.000 A 
ATOM     20 CL   UNL     1      -4.211  12.611  22.347  0.00  0.00    +0.000 Cl
ATOM     21  C   UNL     1      -3.697  15.230  22.301  0.00  0.00    +0.000 A 
ATOM     22  C   UNL     1      -2.895  16.356  22.138  0.00  0.00    +0.000 A 
ATOM     23 CL   UNL     1      -3.495  17.905  22.582  0.00  0.00    +0.000 Cl
ATOM     24  C   UNL     1      -1.600  16.238  21.644  0.00  0.00    +0.000 A 
ATOM     25  C   UNL     1      -1.113  14.979  21.292  0.00  0.00    +0.000 A 
ATOM     26 CL   UNL     1       0.500  14.875  20.672  0.00  0.00    +0.000 Cl
ENDBRANCH   3  18
TORSDOF 1
ENDMDL
