MODEL 1
REMARK VINA RESULT:      -9.7      0.000      0.000
REMARK  Name = 
REMARK  7 active torsions:
REMARK  status: ('A' for Active; 'I' for Inactive)
REMARK    1  A    between atoms: C_1  and  C_2
REMARK    2  A    between atoms: C_2  and  O_3
REMARK    3  A    between atoms: O_3  and  C_4
REMARK    4  A    between atoms: C_9  and  C_10
REMARK    5  A    between atoms: N_12  and  C_13
REMARK    6  A    between atoms: C_13  and  C_14
REMARK    7  A    between atoms: C_17  and  C_18
REMARK                            x       y       z     vdW  Elec       q    Type
REMARK                         _______ _______ _______ _____ _____    ______ ____
ROOT
ATOM      1  C   UNL     1       3.177   6.422  18.534  0.00  0.00    +0.000 A 
ATOM      2  N   UNL     1       4.232   6.613  17.720  0.00  0.00    +0.000 NA
ATOM      3  N   UNL     1       4.818   5.407  17.627  0.00  0.00    +0.000 N 
ATOM      4  C   UNL     1       4.164   4.435  18.334  0.00  0.00    +0.000 A 
ATOM      5  N   UNL     1       4.517   3.142  18.445  0.00  0.00    +0.000 NA
ATOM      6  C   UNL     1       3.677   2.473  19.250  0.00  0.00    +0.000 A 
ATOM      7  N   UNL     1       2.591   2.944  19.889  0.00  0.00    +0.000 NA
ATOM      8  C   UNL     1       2.267   4.246  19.746  0.00  0.00    +0.000 A 
ATOM      9  N   UNL     1       1.131   4.666  20.422  0.00  0.00    +0.000 N 
ATOM     10  C   UNL     1       3.085   5.058  18.944  0.00  0.00    +0.000 A 
ATOM     11  H   UNL     1       0.603   3.870  20.761  0.00  0.00    +0.000 HD
ATOM     12  H   UNL     1       0.590   5.378  19.949  0.00  0.00    +0.000 HD
ENDROOT
BRANCH   1  18
ATOM     13  C   UNL     1      -0.704  10.862  21.277  0.00  0.00    +0.000 A 
ATOM     14  C   UNL     1      -0.248   9.965  22.243  0.00  0.00    +0.000 A 
ATOM     15  C   UNL     1       0.644   8.949  21.896  0.00  0.00    +0.000 A 
ATOM     16  C   UNL     1       1.082   8.803  20.576  0.00  0.00    +0.000 A 
ATOM     17  C   UNL     1       1.941   7.756  20.213  0.00  0.00    +0.000 A 
ATOM     18  C   UNL     1       2.334   7.567  18.884  0.00  0.00    +0.000 A 
ATOM     19  C   UNL     1       1.862   8.456  17.909  0.00  0.00    +0.000 A 
ATOM     20  C   UNL     1       1.043   9.532  18.263  0.00  0.00    +0.000 A 
ATOM     21  C   UNL     1       0.629   9.708  19.591  0.00  0.00    +0.000 A 
ATOM     22  C   UNL     1      -0.249  10.740  19.960  0.00  0.00    +0.000 A 
BRANCH  13  23
ATOM     23  O   UNL     1      -1.593  11.881  21.490  0.00  0.00    +0.000 OA
BRANCH  23  25
ATOM     24  C   UNL     1      -3.012  12.200  23.390  0.00  0.00    +0.000 C 
ATOM     25  C   UNL     1      -1.627  12.420  22.812  0.00  0.00    +0.000 C 
ENDBRANCH  23  25
ENDBRANCH  13  23
ENDBRANCH   1  18
BRANCH   3  26
ATOM     26  C   UNL     1       6.142   5.302  17.026  0.00  0.00    +0.000 C 
BRANCH  26  27
ATOM     27  C   UNL     1       6.341   4.253  15.941  0.00  0.00    +0.000 C 
ATOM     28  C   UNL     1       5.186   3.965  14.965  0.00  0.00    +0.000 C 
ATOM     29  N   UNL     1       6.189   3.892  13.924  0.00  0.00    +0.000 N 
ATOM     30  C   UNL     1       6.125   3.764  12.567  0.00  0.00    +0.000 C 
ATOM     31  C   UNL     1       4.778   3.420  11.988  0.00  0.00    +0.000 C 
ATOM     32  O   UNL     1       7.110   3.900  11.842  0.00  0.00    +0.000 OA
ATOM     33  C   UNL     1       7.253   4.487  14.717  0.00  0.00    +0.000 C 
ENDBRANCH  26  27
ENDBRANCH   3  26
TORSDOF 5
ENDMDL
MODEL 2
REMARK VINA RESULT:      -9.5      2.134      2.816
REMARK  Name = 
REMARK  7 active torsions:
REMARK  status: ('A' for Active; 'I' for Inactive)
REMARK    1  A    between atoms: C_1  and  C_2
REMARK    2  A    between atoms: C_2  and  O_3
REMARK    3  A    between atoms: O_3  and  C_4
REMARK    4  A    between atoms: C_9  and  C_10
REMARK    5  A    between atoms: N_12  and  C_13
REMARK    6  A    between atoms: C_13  and  C_14
REMARK    7  A    between atoms: C_17  and  C_18
REMARK                            x       y       z     vdW  Elec       q    Type
REMARK                         _______ _______ _______ _____ _____    ______ ____
ROOT
ATOM      1  C   UNL     1       2.879   5.585  18.128  0.00  0.00    +0.000 A 
ATOM      2  N   UNL     1       3.780   5.550  17.127  0.00  0.00    +0.000 NA
ATOM      3  N   UNL     1       4.081   4.248  16.981  0.00  0.00    +0.000 N 
ATOM      4  C   UNL     1       3.388   3.436  17.837  0.00  0.00    +0.000 A 
ATOM      5  N   UNL     1       3.487   2.098  17.937  0.00  0.00    +0.000 NA
ATOM      6  C   UNL     1       2.695   1.621  18.910  0.00  0.00    +0.000 A 
ATOM      7  N   UNL     1       1.865   2.309  19.715  0.00  0.00    +0.000 NA
ATOM      8  C   UNL     1       1.791   3.649  19.577  0.00  0.00    +0.000 A 
ATOM      9  N   UNL     1       0.910   4.298  20.430  0.00  0.00    +0.000 N 
ATOM     10  C   UNL     1       2.591   4.272  18.606  0.00  0.00    +0.000 A 
ATOM     11  H   UNL     1       0.304   3.631  20.894  0.00  0.00    +0.000 HD
ATOM     12  H   UNL     1       0.445   5.106  20.034  0.00  0.00    +0.000 HD
ENDROOT
BRANCH   1  18
ATOM     13  C   UNL     1       0.346  10.680  21.279  0.00  0.00    +0.000 A 
ATOM     14  C   UNL     1       0.594   9.641  22.174  0.00  0.00    +0.000 A 
ATOM     15  C   UNL     1       1.188   8.457  21.733  0.00  0.00    +0.000 A 
ATOM     16  C   UNL     1       1.528   8.286  20.387  0.00  0.00    +0.000 A 
ATOM     17  C   UNL     1       2.081   7.082  19.931  0.00  0.00    +0.000 A 
ATOM     18  C   UNL     1       2.365   6.881  18.575  0.00  0.00    +0.000 A 
ATOM     19  C   UNL     1       2.099   7.918  17.671  0.00  0.00    +0.000 A 
ATOM     20  C   UNL     1       1.592   9.141  18.118  0.00  0.00    +0.000 A 
ATOM     21  C   UNL     1       1.283   9.334  19.473  0.00  0.00    +0.000 A 
ATOM     22  C   UNL     1       0.708  10.529  19.936  0.00  0.00    +0.000 A 
BRANCH  13  23
ATOM     23  O   UNL     1      -0.248  11.875  21.586  0.00  0.00    +0.000 OA
BRANCH  23  25
ATOM     24  C   UNL     1      -2.429  12.221  22.506  0.00  0.00    +0.000 C 
ATOM     25  C   UNL     1      -0.976  11.918  22.813  0.00  0.00    +0.000 C 
ENDBRANCH  23  25
ENDBRANCH  13  23
ENDBRANCH   1  18
BRANCH   3  26
ATOM     26  C   UNL     1       5.220   3.869  16.155  0.00  0.00    +0.000 C 
BRANCH  26  27
ATOM     27  C   UNL     1       6.549   4.561  16.427  0.00  0.00    +0.000 C 
ATOM     28  C   UNL     1       6.641   6.087  16.250  0.00  0.00    +0.000 C 
ATOM     29  N   UNL     1       7.448   6.098  17.453  0.00  0.00    +0.000 N 
ATOM     30  C   UNL     1       7.970   7.096  18.223  0.00  0.00    +0.000 C 
ATOM     31  C   UNL     1       7.904   8.489  17.652  0.00  0.00    +0.000 C 
ATOM     32  O   UNL     1       8.488   6.885  19.319  0.00  0.00    +0.000 OA
ATOM     33  C   UNL     1       7.114   4.741  17.852  0.00  0.00    +0.000 C 
ENDBRANCH  26  27
ENDBRANCH   3  26
TORSDOF 5
ENDMDL
MODEL 3
REMARK VINA RESULT:      -9.1      1.288      1.467
REMARK  Name = 
REMARK  7 active torsions:
REMARK  status: ('A' for Active; 'I' for Inactive)
REMARK    1  A    between atoms: C_1  and  C_2
REMARK    2  A    between atoms: C_2  and  O_3
REMARK    3  A    between atoms: O_3  and  C_4
REMARK    4  A    between atoms: C_9  and  C_10
REMARK    5  A    between atoms: N_12  and  C_13
REMARK    6  A    between atoms: C_13  and  C_14
REMARK    7  A    between atoms: C_17  and  C_18
REMARK                            x       y       z     vdW  Elec       q    Type
REMARK                         _______ _______ _______ _____ _____    ______ ____
ROOT
ATOM      1  C   UNL     1       3.243   6.206  19.216  0.00  0.00    +0.000 A 
ATOM      2  N   UNL     1       4.515   6.339  18.795  0.00  0.00    +0.000 NA
ATOM      3  N   UNL     1       5.046   5.110  18.910  0.00  0.00    +0.000 N 
ATOM      4  C   UNL     1       4.154   4.179  19.368  0.00  0.00    +0.000 A 
ATOM      5  N   UNL     1       4.395   2.876  19.599  0.00  0.00    +0.000 NA
ATOM      6  C   UNL     1       3.308   2.257  20.086  0.00  0.00    +0.000 A 
ATOM      7  N   UNL     1       2.093   2.782  20.327  0.00  0.00    +0.000 NA
ATOM      8  C   UNL     1       1.892   4.092  20.075  0.00  0.00    +0.000 A 
ATOM      9  N   UNL     1       0.615   4.570  20.335  0.00  0.00    +0.000 N 
ATOM     10  C   UNL     1       2.962   4.856  19.582  0.00  0.00    +0.000 A 
ATOM     11  H   UNL     1      -0.030   3.802  20.486  0.00  0.00    +0.000 HD
ATOM     12  H   UNL     1       0.291   5.293  19.705  0.00  0.00    +0.000 HD
ENDROOT
BRANCH   1  18
ATOM     13  C   UNL     1      -0.853  11.044  20.673  0.00  0.00    +0.000 A 
ATOM     14  C   UNL     1      -0.514  10.341  21.829  0.00  0.00    +0.000 A 
ATOM     15  C   UNL     1       0.397   9.286  21.770  0.00  0.00    +0.000 A 
ATOM     16  C   UNL     1       0.972   8.904  20.554  0.00  0.00    +0.000 A 
ATOM     17  C   UNL     1       1.852   7.815  20.482  0.00  0.00    +0.000 A 
ATOM     18  C   UNL     1       2.382   7.390  19.259  0.00  0.00    +0.000 A 
ATOM     19  C   UNL     1       2.028   8.084  18.094  0.00  0.00    +0.000 A 
ATOM     20  C   UNL     1       1.190   9.200  18.156  0.00  0.00    +0.000 A 
ATOM     21  C   UNL     1       0.638   9.612  19.378  0.00  0.00    +0.000 A 
ATOM     22  C   UNL     1      -0.261  10.688  19.457  0.00  0.00    +0.000 A 
BRANCH  13  23
ATOM     23  O   UNL     1      -1.746  12.079  20.601  0.00  0.00    +0.000 OA
BRANCH  23  25
ATOM     24  C   UNL     1      -3.854  12.197  19.475  0.00  0.00    +0.000 C 
ATOM     25  C   UNL     1      -2.348  12.301  19.326  0.00  0.00    +0.000 C 
ENDBRANCH  23  25
ENDBRANCH  13  23
ENDBRANCH   1  18
BRANCH   3  26
ATOM     26  C   UNL     1       6.488   4.942  18.781  0.00  0.00    +0.000 C 
BRANCH  26  27
ATOM     27  C   UNL     1       7.017   4.386  17.466  0.00  0.00    +0.000 C 
ATOM     28  C   UNL     1       6.014   3.853  16.427  0.00  0.00    +0.000 C 
ATOM     29  N   UNL     1       6.839   4.489  15.421  0.00  0.00    +0.000 N 
ATOM     30  C   UNL     1       6.703   4.674  14.076  0.00  0.00    +0.000 C 
ATOM     31  C   UNL     1       5.592   3.912  13.403  0.00  0.00    +0.000 C 
ATOM     32  O   UNL     1       7.452   5.406  13.429  0.00  0.00    +0.000 OA
ATOM     33  C   UNL     1       7.608   5.288  16.361  0.00  0.00    +0.000 C 
ENDBRANCH  26  27
ENDBRANCH   3  26
TORSDOF 5
ENDMDL
MODEL 4
REMARK VINA RESULT:      -8.9      2.315      3.248
REMARK  Name = 
REMARK  7 active torsions:
REMARK  status: ('A' for Active; 'I' for Inactive)
REMARK    1  A    between atoms: C_1  and  C_2
REMARK    2  A    between atoms: C_2  and  O_3
REMARK    3  A    between atoms: O_3  and  C_4
REMARK    4  A    between atoms: C_9  and  C_10
REMARK    5  A    between atoms: N_12  and  C_13
REMARK    6  A    between atoms: C_13  and  C_14
REMARK    7  A    between atoms: C_17  and  C_18
REMARK                            x       y       z     vdW  Elec       q    Type
REMARK                         _______ _______ _______ _____ _____    ______ ____
ROOT
ATOM      1  C   UNL     1       2.731   5.402  18.349  0.00  0.00    +0.000 A 
ATOM      2  N   UNL     1       3.560   5.516  17.294  0.00  0.00    +0.000 NA
ATOM      3  N   UNL     1       3.884   4.252  16.974  0.00  0.00    +0.000 N 
ATOM      4  C   UNL     1       3.275   3.321  17.770  0.00  0.00    +0.000 A 
ATOM      5  N   UNL     1       3.415   1.985  17.703  0.00  0.00    +0.000 NA
ATOM      6  C   UNL     1       2.706   1.370  18.662  0.00  0.00    +0.000 A 
ATOM      7  N   UNL     1       1.917   1.930  19.597  0.00  0.00    +0.000 NA
ATOM      8  C   UNL     1       1.798   3.273  19.625  0.00  0.00    +0.000 A 
ATOM      9  N   UNL     1       0.962   3.787  20.607  0.00  0.00    +0.000 N 
ATOM     10  C   UNL     1       2.511   4.032  18.684  0.00  0.00    +0.000 A 
ATOM     11  H   UNL     1       0.408   3.049  21.027  0.00  0.00    +0.000 HD
ATOM     12  H   UNL     1       0.450   4.619  20.341  0.00  0.00    +0.000 HD
ENDROOT
BRANCH   1  18
ATOM     13  C   UNL     1       0.883  11.410  20.022  0.00  0.00    +0.000 A 
ATOM     14  C   UNL     1       1.232  11.376  18.673  0.00  0.00    +0.000 A 
ATOM     15  C   UNL     1       1.614  10.176  18.073  0.00  0.00    +0.000 A 
ATOM     16  C   UNL     1       1.670   8.992  18.815  0.00  0.00    +0.000 A 
ATOM     17  C   UNL     1       2.098   7.792  18.229  0.00  0.00    +0.000 A 
ATOM     18  C   UNL     1       2.216   6.618  18.981  0.00  0.00    +0.000 A 
ATOM     19  C   UNL     1       1.883   6.654  20.342  0.00  0.00    +0.000 A 
ATOM     20  C   UNL     1       1.410   7.831  20.930  0.00  0.00    +0.000 A 
ATOM     21  C   UNL     1       1.315   9.014  20.182  0.00  0.00    +0.000 A 
ATOM     22  C   UNL     1       0.909  10.225  20.766  0.00  0.00    +0.000 A 
BRANCH  13  23
ATOM     23  O   UNL     1       0.515  12.526  20.725  0.00  0.00    +0.000 OA
BRANCH  23  25
ATOM     24  C   UNL     1      -1.871  12.696  20.698  0.00  0.00    +0.000 C 
ATOM     25  C   UNL     1      -0.648  12.397  21.543  0.00  0.00    +0.000 C 
ENDBRANCH  23  25
ENDBRANCH  13  23
ENDBRANCH   1  18
BRANCH   3  26
ATOM     26  C   UNL     1       4.973   4.011  16.034  0.00  0.00    +0.000 C 
BRANCH  26  27
ATOM     27  C   UNL     1       6.348   4.557  16.395  0.00  0.00    +0.000 C 
ATOM     28  C   UNL     1       6.605   6.068  16.264  0.00  0.00    +0.000 C 
ATOM     29  N   UNL     1       7.340   5.971  17.508  0.00  0.00    +0.000 N 
ATOM     30  C   UNL     1       7.917   6.893  18.331  0.00  0.00    +0.000 C 
ATOM     31  C   UNL     1       8.026   8.296  17.794  0.00  0.00    +0.000 C 
ATOM     32  O   UNL     1       8.349   6.606  19.447  0.00  0.00    +0.000 OA
ATOM     33  C   UNL     1       6.848   4.647  17.853  0.00  0.00    +0.000 C 
ENDBRANCH  26  27
ENDBRANCH   3  26
TORSDOF 5
ENDMDL
MODEL 5
REMARK VINA RESULT:      -8.9      1.065      1.797
REMARK  Name = 
REMARK  7 active torsions:
REMARK  status: ('A' for Active; 'I' for Inactive)
REMARK    1  A    between atoms: C_1  and  C_2
REMARK    2  A    between atoms: C_2  and  O_3
REMARK    3  A    between atoms: O_3  and  C_4
REMARK    4  A    between atoms: C_9  and  C_10
REMARK    5  A    between atoms: N_12  and  C_13
REMARK    6  A    between atoms: C_13  and  C_14
REMARK    7  A    between atoms: C_17  and  C_18
REMARK                            x       y       z     vdW  Elec       q    Type
REMARK                         _______ _______ _______ _____ _____    ______ ____
ROOT
ATOM      1  C   UNL     1       3.035   5.886  18.538  0.00  0.00    +0.000 A 
ATOM      2  N   UNL     1       4.086   6.162  17.743  0.00  0.00    +0.000 NA
ATOM      3  N   UNL     1       4.553   4.961  17.360  0.00  0.00    +0.000 N 
ATOM      4  C   UNL     1       3.824   3.916  17.860  0.00  0.00    +0.000 A 
ATOM      5  N   UNL     1       4.055   2.605  17.666  0.00  0.00    +0.000 NA
ATOM      6  C   UNL     1       3.172   1.848  18.337  0.00  0.00    +0.000 A 
ATOM      7  N   UNL     1       2.148   2.257  19.108  0.00  0.00    +0.000 NA
ATOM      8  C   UNL     1       1.947   3.581  19.271  0.00  0.00    +0.000 A 
ATOM      9  N   UNL     1       0.870   3.936  20.070  0.00  0.00    +0.000 N 
ATOM     10  C   UNL     1       2.821   4.478  18.637  0.00  0.00    +0.000 A 
ATOM     11  H   UNL     1       0.276   3.134  20.246  0.00  0.00    +0.000 HD
ATOM     12  H   UNL     1       0.389   4.782  19.791  0.00  0.00    +0.000 HD
ENDROOT
BRANCH   1  18
ATOM     13  C   UNL     1       0.193  11.488  20.223  0.00  0.00    +0.000 A 
ATOM     14  C   UNL     1       0.584  11.535  18.885  0.00  0.00    +0.000 A 
ATOM     15  C   UNL     1       1.173  10.422  18.284  0.00  0.00    +0.000 A 
ATOM     16  C   UNL     1       1.395   9.249  19.013  0.00  0.00    +0.000 A 
ATOM     17  C   UNL     1       2.029   8.145  18.426  0.00  0.00    +0.000 A 
ATOM     18  C   UNL     1       2.311   6.992  19.168  0.00  0.00    +0.000 A 
ATOM     19  C   UNL     1       1.935   6.950  20.517  0.00  0.00    +0.000 A 
ATOM     20  C   UNL     1       1.261   8.025  21.103  0.00  0.00    +0.000 A 
ATOM     21  C   UNL     1       1.000   9.191  20.367  0.00  0.00    +0.000 A 
ATOM     22  C   UNL     1       0.386  10.310  20.952  0.00  0.00    +0.000 A 
BRANCH  13  23
ATOM     23  O   UNL     1      -0.373  12.518  20.926  0.00  0.00    +0.000 OA
BRANCH  23  25
ATOM     24  C   UNL     1      -1.212  13.173  23.069  0.00  0.00    +0.000 C 
ATOM     25  C   UNL     1      -1.290  12.147  21.955  0.00  0.00    +0.000 C 
ENDBRANCH  23  25
ENDBRANCH  13  23
ENDBRANCH   1  18
BRANCH   3  26
ATOM     26  C   UNL     1       5.848   4.878  16.697  0.00  0.00    +0.000 C 
BRANCH  26  27
ATOM     27  C   UNL     1       5.877   5.055  15.185  0.00  0.00    +0.000 C 
ATOM     28  C   UNL     1       6.965   4.329  14.373  0.00  0.00    +0.000 C 
ATOM     29  N   UNL     1       5.936   4.055  13.391  0.00  0.00    +0.000 N 
ATOM     30  C   UNL     1       5.905   3.309  12.249  0.00  0.00    +0.000 C 
ATOM     31  C   UNL     1       7.230   2.807  11.739  0.00  0.00    +0.000 C 
ATOM     32  O   UNL     1       4.860   3.067  11.645  0.00  0.00    +0.000 OA
ATOM     33  C   UNL     1       4.824   4.417  14.254  0.00  0.00    +0.000 C 
ENDBRANCH  26  27
ENDBRANCH   3  26
TORSDOF 5
ENDMDL
MODEL 6
REMARK VINA RESULT:      -8.8      0.957      1.604
REMARK  Name = 
REMARK  7 active torsions:
REMARK  status: ('A' for Active; 'I' for Inactive)
REMARK    1  A    between atoms: C_1  and  C_2
REMARK    2  A    between atoms: C_2  and  O_3
REMARK    3  A    between atoms: O_3  and  C_4
REMARK    4  A    between atoms: C_9  and  C_10
REMARK    5  A    between atoms: N_12  and  C_13
REMARK    6  A    between atoms: C_13  and  C_14
REMARK    7  A    between atoms: C_17  and  C_18
REMARK                            x       y       z     vdW  Elec       q    Type
REMARK                         _______ _______ _______ _____ _____    ______ ____
ROOT
ATOM      1  C   UNL     1       2.977   6.093  18.905  0.00  0.00    +0.000 A 
ATOM      2  N   UNL     1       4.078   6.389  18.188  0.00  0.00    +0.000 NA
ATOM      3  N   UNL     1       4.610   5.198  17.867  0.00  0.00    +0.000 N 
ATOM      4  C   UNL     1       3.879   4.139  18.330  0.00  0.00    +0.000 A 
ATOM      5  N   UNL     1       4.165   2.833  18.181  0.00  0.00    +0.000 NA
ATOM      6  C   UNL     1       3.257   2.060  18.796  0.00  0.00    +0.000 A 
ATOM      7  N   UNL     1       2.164   2.447  19.479  0.00  0.00    +0.000 NA
ATOM      8  C   UNL     1       1.909   3.767  19.599  0.00  0.00    +0.000 A 
ATOM      9  N   UNL     1       0.763   4.100  20.306  0.00  0.00    +0.000 N 
ATOM     10  C   UNL     1       2.801   4.681  19.016  0.00  0.00    +0.000 A 
ATOM     11  H   UNL     1       0.182   3.282  20.451  0.00  0.00    +0.000 HD
ATOM     12  H   UNL     1       0.279   4.925  19.973  0.00  0.00    +0.000 HD
ENDROOT
BRANCH   1  18
ATOM     13  C   UNL     1      -0.193  11.615  20.234  0.00  0.00    +0.000 A 
ATOM     14  C   UNL     1       0.270  11.635  18.919  0.00  0.00    +0.000 A 
ATOM     15  C   UNL     1       0.939  10.530  18.390  0.00  0.00    +0.000 A 
ATOM     16  C   UNL     1       1.171   9.393  19.171  0.00  0.00    +0.000 A 
ATOM     17  C   UNL     1       1.883   8.300  18.659  0.00  0.00    +0.000 A 
ATOM     18  C   UNL     1       2.172   7.186  19.455  0.00  0.00    +0.000 A 
ATOM     19  C   UNL     1       1.724   7.171  20.783  0.00  0.00    +0.000 A 
ATOM     20  C   UNL     1       0.972   8.234  21.292  0.00  0.00    +0.000 A 
ATOM     21  C   UNL     1       0.703   9.362  20.503  0.00  0.00    +0.000 A 
ATOM     22  C   UNL     1       0.010  10.471  21.014  0.00  0.00    +0.000 A 
BRANCH  13  23
ATOM     23  O   UNL     1      -0.841  12.640  20.869  0.00  0.00    +0.000 OA
BRANCH  23  25
ATOM     24  C   UNL     1      -3.223  12.855  20.837  0.00  0.00    +0.000 C 
ATOM     25  C   UNL     1      -1.923  13.237  20.155  0.00  0.00    +0.000 C 
ENDBRANCH  23  25
ENDBRANCH  13  23
ENDBRANCH   1  18
BRANCH   3  26
ATOM     26  C   UNL     1       5.955   5.146  17.307  0.00  0.00    +0.000 C 
BRANCH  26  27
ATOM     27  C   UNL     1       6.209   4.158  16.177  0.00  0.00    +0.000 C 
ATOM     28  C   UNL     1       5.097   3.911  15.142  0.00  0.00    +0.000 C 
ATOM     29  N   UNL     1       6.142   3.903  14.139  0.00  0.00    +0.000 N 
ATOM     30  C   UNL     1       6.134   3.847  12.776  0.00  0.00    +0.000 C 
ATOM     31  C   UNL     1       4.815   3.521  12.126  0.00  0.00    +0.000 C 
ATOM     32  O   UNL     1       7.146   4.030  12.099  0.00  0.00    +0.000 OA
ATOM     33  C   UNL     1       7.167   4.464  15.005  0.00  0.00    +0.000 C 
ENDBRANCH  26  27
ENDBRANCH   3  26
TORSDOF 5
ENDMDL
MODEL 7
REMARK VINA RESULT:      -8.8      1.133      1.415
REMARK  Name = 
REMARK  7 active torsions:
REMARK  status: ('A' for Active; 'I' for Inactive)
REMARK    1  A    between atoms: C_1  and  C_2
REMARK    2  A    between atoms: C_2  and  O_3
REMARK    3  A    between atoms: O_3  and  C_4
REMARK    4  A    between atoms: C_9  and  C_10
REMARK    5  A    between atoms: N_12  and  C_13
REMARK    6  A    between atoms: C_13  and  C_14
REMARK    7  A    between atoms: C_17  and  C_18
REMARK                            x       y       z     vdW  Elec       q    Type
REMARK                         _______ _______ _______ _____ _____    ______ ____
ROOT
ATOM      1  C   UNL     1       2.773   5.733  18.400  0.00  0.00    +0.000 A 
ATOM      2  N   UNL     1       3.761   5.731  17.486  0.00  0.00    +0.000 NA
ATOM      3  N   UNL     1       4.058   4.433  17.303  0.00  0.00    +0.000 N 
ATOM      4  C   UNL     1       3.280   3.593  18.051  0.00  0.00    +0.000 A 
ATOM      5  N   UNL     1       3.352   2.250  18.094  0.00  0.00    +0.000 NA
ATOM      6  C   UNL     1       2.468   1.740  18.966  0.00  0.00    +0.000 A 
ATOM      7  N   UNL     1       1.577   2.403  19.725  0.00  0.00    +0.000 NA
ATOM      8  C   UNL     1       1.532   3.749  19.647  0.00  0.00    +0.000 A 
ATOM      9  N   UNL     1       0.585   4.371  20.448  0.00  0.00    +0.000 N 
ATOM     10  C   UNL     1       2.426   4.403  18.785  0.00  0.00    +0.000 A 
ATOM     11  H   UNL     1      -0.068   3.692  20.821  0.00  0.00    +0.000 HD
ATOM     12  H   UNL     1       0.169   5.204  20.051  0.00  0.00    +0.000 HD
ENDROOT
BRANCH   1  18
ATOM     13  C   UNL     1       0.164  10.750  21.616  0.00  0.00    +0.000 A 
ATOM     14  C   UNL     1       0.443   9.709  22.500  0.00  0.00    +0.000 A 
ATOM     15  C   UNL     1       1.057   8.541  22.044  0.00  0.00    +0.000 A 
ATOM     16  C   UNL     1       1.387   8.388  20.694  0.00  0.00    +0.000 A 
ATOM     17  C   UNL     1       1.962   7.199  20.223  0.00  0.00    +0.000 A 
ATOM     18  C   UNL     1       2.237   7.015  18.863  0.00  0.00    +0.000 A 
ATOM     19  C   UNL     1       1.940   8.053  17.970  0.00  0.00    +0.000 A 
ATOM     20  C   UNL     1       1.412   9.262  18.431  0.00  0.00    +0.000 A 
ATOM     21  C   UNL     1       1.112   9.438  19.790  0.00  0.00    +0.000 A 
ATOM     22  C   UNL     1       0.517  10.616  20.268  0.00  0.00    +0.000 A 
BRANCH  13  23
ATOM     23  O   UNL     1      -0.451  11.929  21.938  0.00  0.00    +0.000 OA
BRANCH  23  25
ATOM     24  C   UNL     1      -2.766  12.505  22.123  0.00  0.00    +0.000 C 
ATOM     25  C   UNL     1      -1.587  11.831  22.798  0.00  0.00    +0.000 C 
ENDBRANCH  23  25
ENDBRANCH  13  23
ENDBRANCH   1  18
BRANCH   3  26
ATOM     26  C   UNL     1       5.264   4.075  16.566  0.00  0.00    +0.000 C 
BRANCH  26  27
ATOM     27  C   UNL     1       5.506   4.770  15.233  0.00  0.00    +0.000 C 
ATOM     28  C   UNL     1       6.848   5.486  15.002  0.00  0.00    +0.000 C 
ATOM     29  N   UNL     1       6.814   4.946  13.659  0.00  0.00    +0.000 N 
ATOM     30  C   UNL     1       7.705   4.947  12.625  0.00  0.00    +0.000 C 
ATOM     31  C   UNL     1       8.903   5.848  12.772  0.00  0.00    +0.000 C 
ATOM     32  O   UNL     1       7.542   4.269  11.611  0.00  0.00    +0.000 OA
ATOM     33  C   UNL     1       5.750   3.992  13.923  0.00  0.00    +0.000 C 
ENDBRANCH  26  27
ENDBRANCH   3  26
TORSDOF 5
ENDMDL
MODEL 8
REMARK VINA RESULT:      -8.7      1.253      1.963
REMARK  Name = 
REMARK  7 active torsions:
REMARK  status: ('A' for Active; 'I' for Inactive)
REMARK    1  A    between atoms: C_1  and  C_2
REMARK    2  A    between atoms: C_2  and  O_3
REMARK    3  A    between atoms: O_3  and  C_4
REMARK    4  A    between atoms: C_9  and  C_10
REMARK    5  A    between atoms: N_12  and  C_13
REMARK    6  A    between atoms: C_13  and  C_14
REMARK    7  A    between atoms: C_17  and  C_18
REMARK                            x       y       z     vdW  Elec       q    Type
REMARK                         _______ _______ _______ _____ _____    ______ ____
ROOT
ATOM      1  C   UNL     1       3.060   6.016  19.581  0.00  0.00    +0.000 A 
ATOM      2  N   UNL     1       4.319   6.290  19.192  0.00  0.00    +0.000 NA
ATOM      3  N   UNL     1       4.903   5.088  19.046  0.00  0.00    +0.000 N 
ATOM      4  C   UNL     1       4.058   4.044  19.303  0.00  0.00    +0.000 A 
ATOM      5  N   UNL     1       4.356   2.733  19.255  0.00  0.00    +0.000 NA
ATOM      6  C   UNL     1       3.302   1.979  19.607  0.00  0.00    +0.000 A 
ATOM      7  N   UNL     1       2.070   2.388  19.956  0.00  0.00    +0.000 NA
ATOM      8  C   UNL     1       1.810   3.712  19.984  0.00  0.00    +0.000 A 
ATOM      9  N   UNL     1       0.517   4.068  20.342  0.00  0.00    +0.000 N 
ATOM     10  C   UNL     1       2.840   4.607  19.658  0.00  0.00    +0.000 A 
ATOM     11  H   UNL     1      -0.092   3.258  20.332  0.00  0.00    +0.000 HD
ATOM     12  H   UNL     1       0.156   4.892  19.878  0.00  0.00    +0.000 HD
ENDROOT
BRANCH   1  18
ATOM     13  C   UNL     1      -0.363  11.542  19.826  0.00  0.00    +0.000 A 
ATOM     14  C   UNL     1       0.361  11.481  18.636  0.00  0.00    +0.000 A 
ATOM     15  C   UNL     1       1.135  10.358  18.337  0.00  0.00    +0.000 A 
ATOM     16  C   UNL     1       1.210   9.284  19.230  0.00  0.00    +0.000 A 
ATOM     17  C   UNL     1       2.021   8.174  18.956  0.00  0.00    +0.000 A 
ATOM     18  C   UNL     1       2.150   7.125  19.874  0.00  0.00    +0.000 A 
ATOM     19  C   UNL     1       1.437   7.193  21.078  0.00  0.00    +0.000 A 
ATOM     20  C   UNL     1       0.588   8.270  21.344  0.00  0.00    +0.000 A 
ATOM     21  C   UNL     1       0.477   9.334  20.436  0.00  0.00    +0.000 A 
ATOM     22  C   UNL     1      -0.316  10.460  20.712  0.00  0.00    +0.000 A 
BRANCH  13  23
ATOM     23  O   UNL     1      -1.136  12.594  20.238  0.00  0.00    +0.000 OA
BRANCH  23  25
ATOM     24  C   UNL     1      -0.193  13.903  22.004  0.00  0.00    +0.000 C 
ATOM     25  C   UNL     1      -1.191  12.819  21.646  0.00  0.00    +0.000 C 
ENDBRANCH  23  25
ENDBRANCH  13  23
ENDBRANCH   1  18
BRANCH   3  26
ATOM     26  C   UNL     1       6.350   5.014  18.880  0.00  0.00    +0.000 C 
BRANCH  26  27
ATOM     27  C   UNL     1       6.879   4.424  17.580  0.00  0.00    +0.000 C 
ATOM     28  C   UNL     1       5.874   3.946  16.517  0.00  0.00    +0.000 C 
ATOM     29  N   UNL     1       6.760   4.529  15.531  0.00  0.00    +0.000 N 
ATOM     30  C   UNL     1       6.669   4.717  14.183  0.00  0.00    +0.000 C 
ATOM     31  C   UNL     1       5.534   4.018  13.483  0.00  0.00    +0.000 C 
ATOM     32  O   UNL     1       7.476   5.401  13.554  0.00  0.00    +0.000 OA
ATOM     33  C   UNL     1       7.550   5.286  16.489  0.00  0.00    +0.000 C 
ENDBRANCH  26  27
ENDBRANCH   3  26
TORSDOF 5
ENDMDL
MODEL 9
REMARK VINA RESULT:      -8.6      1.320      2.083
REMARK  Name = 
REMARK  7 active torsions:
REMARK  status: ('A' for Active; 'I' for Inactive)
REMARK    1  A    between atoms: C_1  and  C_2
REMARK    2  A    between atoms: C_2  and  O_3
REMARK    3  A    between atoms: O_3  and  C_4
REMARK    4  A    between atoms: C_9  and  C_10
REMARK    5  A    between atoms: N_12  and  C_13
REMARK    6  A    between atoms: C_13  and  C_14
REMARK    7  A    between atoms: C_17  and  C_18
REMARK                            x       y       z     vdW  Elec       q    Type
REMARK                         _______ _______ _______ _____ _____    ______ ____
ROOT
ATOM      1  C   UNL     1       2.791   5.492  18.630  0.00  0.00    +0.000 A 
ATOM      2  N   UNL     1       3.815   5.615  17.764  0.00  0.00    +0.000 NA
ATOM      3  N   UNL     1       4.146   4.353  17.442  0.00  0.00    +0.000 N 
ATOM      4  C   UNL     1       3.357   3.417  18.051  0.00  0.00    +0.000 A 
ATOM      5  N   UNL     1       3.456   2.080  17.937  0.00  0.00    +0.000 NA
ATOM      6  C   UNL     1       2.548   1.455  18.704  0.00  0.00    +0.000 A 
ATOM      7  N   UNL     1       1.613   2.007  19.498  0.00  0.00    +0.000 NA
ATOM      8  C   UNL     1       1.544   3.353  19.579  0.00  0.00    +0.000 A 
ATOM      9  N   UNL     1       0.552   3.859  20.407  0.00  0.00    +0.000 N 
ATOM     10  C   UNL     1       2.457   4.120  18.839  0.00  0.00    +0.000 A 
ATOM     11  H   UNL     1      -0.102   3.130  20.669  0.00  0.00    +0.000 HD
ATOM     12  H   UNL     1       0.135   4.727  20.095  0.00  0.00    +0.000 HD
ENDROOT
BRANCH   1  18
ATOM     13  C   UNL     1       0.676  11.460  20.117  0.00  0.00    +0.000 A 
ATOM     14  C   UNL     1       1.084  11.417  18.784  0.00  0.00    +0.000 A 
ATOM     15  C   UNL     1       1.531  10.220  18.223  0.00  0.00    +0.000 A 
ATOM     16  C   UNL     1       1.593   9.051  18.988  0.00  0.00    +0.000 A 
ATOM     17  C   UNL     1       2.085   7.857  18.441  0.00  0.00    +0.000 A 
ATOM     18  C   UNL     1       2.209   6.700  19.219  0.00  0.00    +0.000 A 
ATOM     19  C   UNL     1       1.818   6.747  20.563  0.00  0.00    +0.000 A 
ATOM     20  C   UNL     1       1.282   7.916  21.109  0.00  0.00    +0.000 A 
ATOM     21  C   UNL     1       1.180   9.083  20.338  0.00  0.00    +0.000 A 
ATOM     22  C   UNL     1       0.709  10.289  20.882  0.00  0.00    +0.000 A 
BRANCH  13  23
ATOM     23  O   UNL     1       0.241  12.574  20.784  0.00  0.00    +0.000 OA
BRANCH  23  25
ATOM     24  C   UNL     1      -1.084  12.840  22.757  0.00  0.00    +0.000 C 
ATOM     25  C   UNL     1      -1.099  12.531  21.273  0.00  0.00    +0.000 C 
ENDBRANCH  23  25
ENDBRANCH  13  23
ENDBRANCH   1  18
BRANCH   3  26
ATOM     26  C   UNL     1       5.388   4.105  16.719  0.00  0.00    +0.000 C 
BRANCH  26  27
ATOM     27  C   UNL     1       5.569   4.796  15.374  0.00  0.00    +0.000 C 
ATOM     28  C   UNL     1       6.897   5.517  15.083  0.00  0.00    +0.000 C 
ATOM     29  N   UNL     1       6.807   4.971  13.744  0.00  0.00    +0.000 N 
ATOM     30  C   UNL     1       7.652   4.972  12.673  0.00  0.00    +0.000 C 
ATOM     31  C   UNL     1       8.851   5.878  12.764  0.00  0.00    +0.000 C 
ATOM     32  O   UNL     1       7.449   4.289  11.669  0.00  0.00    +0.000 OA
ATOM     33  C   UNL     1       5.760   4.013  14.058  0.00  0.00    +0.000 C 
ENDBRANCH  26  27
ENDBRANCH   3  26
TORSDOF 5
ENDMDL
