MODEL 1
REMARK VINA RESULT:      -6.4      0.000      0.000
REMARK  Name = 
REMARK  7 active torsions:
REMARK  status: ('A' for Active; 'I' for Inactive)
REMARK    1  A    between atoms: C_2  and  C_3
REMARK    2  A    between atoms: C_3  and  O_4
REMARK    3  A    between atoms: O_4  and  C_5
REMARK    4  A    between atoms: C_8  and  C_9
REMARK    5  A    between atoms: C_10  and  C_11
REMARK    6  A    between atoms: C_11  and  C_12
REMARK    7  A    between atoms: N_13  and  O_14
REMARK                            x       y       z     vdW  Elec       q    Type
REMARK                         _______ _______ _______ _____ _____    ______ ____
ROOT
ATOM      1  C   UNL     1       3.754   2.724  20.029  0.00  0.00    +0.000 A 
ATOM      2  C   UNL     1       4.389   3.930  19.788  0.00  0.00    +0.000 A 
ATOM      3  C   UNL     1       4.713   4.349  18.514  0.00  0.00    +0.000 A 
ATOM      4  C   UNL     1       4.458   3.521  17.405  0.00  0.00    +0.000 A 
ATOM      5  C   UNL     1       3.797   2.307  17.638  0.00  0.00    +0.000 A 
ATOM      6  C   UNL     1       3.451   1.887  18.936  0.00  0.00    +0.000 A 
ENDROOT
BRANCH   4   7
ATOM      7  C   UNL     1       4.859   3.988  16.069  0.00  0.00    +0.000 C 
ATOM      8  C   UNL     1       6.064   3.756  15.523  0.00  0.00    +0.000 C 
BRANCH   8   9
ATOM      9  C   UNL     1       6.567   4.268  14.202  0.00  0.00    +0.000 C 
ATOM     10  C   UNL     1       6.105   3.633  12.906  0.00  0.00    +0.000 C 
ATOM     11  N   UNL     1       7.396   5.262  14.063  0.00  0.00    +0.000 NA
BRANCH  11  12
ATOM     12  O   UNL     1       7.782   5.821  15.287  0.00  0.00    +0.000 OA
ATOM     13  H   UNL     1       8.704   6.087  15.117  0.00  0.00    +0.000 HD
ENDBRANCH  11  12
ENDBRANCH   8   9
ENDBRANCH   4   7
BRANCH   1  14
ATOM     14  O   UNL     1       3.414   2.340  21.307  0.00  0.00    +0.000 OA
BRANCH  14  15
ATOM     15  C   UNL     1       2.365   3.159  21.861  0.00  0.00    +0.000 C 
BRANCH  15  17
ATOM     16  C   UNL     1       0.650   4.001  20.256  0.00  0.00    +0.000 C 
ATOM     17  C   UNL     1       1.151   3.012  21.008  0.00  0.00    +0.000 C 
ENDBRANCH  15  17
ENDBRANCH  14  15
ENDBRANCH   1  14
TORSDOF 6
ENDMDL
MODEL 2
REMARK VINA RESULT:      -6.3      1.461      1.756
REMARK  Name = 
REMARK  7 active torsions:
REMARK  status: ('A' for Active; 'I' for Inactive)
REMARK    1  A    between atoms: C_2  and  C_3
REMARK    2  A    between atoms: C_3  and  O_4
REMARK    3  A    between atoms: O_4  and  C_5
REMARK    4  A    between atoms: C_8  and  C_9
REMARK    5  A    between atoms: C_10  and  C_11
REMARK    6  A    between atoms: C_11  and  C_12
REMARK    7  A    between atoms: N_13  and  O_14
REMARK                            x       y       z     vdW  Elec       q    Type
REMARK                         _______ _______ _______ _____ _____    ______ ____
ROOT
ATOM      1  C   UNL     1       1.836   3.038  18.444  0.00  0.00    +0.000 A 
ATOM      2  C   UNL     1       2.173   4.240  17.844  0.00  0.00    +0.000 A 
ATOM      3  C   UNL     1       3.298   4.377  17.057  0.00  0.00    +0.000 A 
ATOM      4  C   UNL     1       4.184   3.298  16.885  0.00  0.00    +0.000 A 
ATOM      5  C   UNL     1       3.840   2.073  17.471  0.00  0.00    +0.000 A 
ATOM      6  C   UNL     1       2.684   1.927  18.261  0.00  0.00    +0.000 A 
ENDROOT
BRANCH   4   7
ATOM      7  C   UNL     1       5.394   3.502  16.072  0.00  0.00    +0.000 C 
ATOM      8  C   UNL     1       5.575   4.542  15.243  0.00  0.00    +0.000 C 
BRANCH   8   9
ATOM      9  C   UNL     1       6.746   4.770  14.327  0.00  0.00    +0.000 C 
ATOM     10  C   UNL     1       6.779   4.136  12.951  0.00  0.00    +0.000 C 
ATOM     11  N   UNL     1       7.780   5.504  14.620  0.00  0.00    +0.000 NA
BRANCH  11  12
ATOM     12  O   UNL     1       7.694   6.076  15.895  0.00  0.00    +0.000 OA
ATOM     13  H   UNL     1       6.734   6.087  16.057  0.00  0.00    +0.000 HD
ENDBRANCH  11  12
ENDBRANCH   8   9
ENDBRANCH   4   7
BRANCH   1  14
ATOM     14  O   UNL     1       0.693   2.917  19.201  0.00  0.00    +0.000 OA
BRANCH  14  15
ATOM     15  C   UNL     1       0.746   3.714  20.401  0.00  0.00    +0.000 C 
BRANCH  15  17
ATOM     16  C   UNL     1       2.622   2.732  21.721  0.00  0.00    +0.000 C 
ATOM     17  C   UNL     1       1.309   2.878  21.500  0.00  0.00    +0.000 C 
ENDBRANCH  15  17
ENDBRANCH  14  15
ENDBRANCH   1  14
TORSDOF 6
ENDMDL
MODEL 3
REMARK VINA RESULT:      -6.3      1.479      1.736
REMARK  Name = 
REMARK  7 active torsions:
REMARK  status: ('A' for Active; 'I' for Inactive)
REMARK    1  A    between atoms: C_2  and  C_3
REMARK    2  A    between atoms: C_3  and  O_4
REMARK    3  A    between atoms: O_4  and  C_5
REMARK    4  A    between atoms: C_8  and  C_9
REMARK    5  A    between atoms: C_10  and  C_11
REMARK    6  A    between atoms: C_11  and  C_12
REMARK    7  A    between atoms: N_13  and  O_14
REMARK                            x       y       z     vdW  Elec       q    Type
REMARK                         _______ _______ _______ _____ _____    ______ ____
ROOT
ATOM      1  C   UNL     1       3.598   4.714  19.221  0.00  0.00    +0.000 A 
ATOM      2  C   UNL     1       4.982   4.714  19.178  0.00  0.00    +0.000 A 
ATOM      3  C   UNL     1       5.682   4.442  18.021  0.00  0.00    +0.000 A 
ATOM      4  C   UNL     1       5.000   4.090  16.842  0.00  0.00    +0.000 A 
ATOM      5  C   UNL     1       3.599   4.107  16.870  0.00  0.00    +0.000 A 
ATOM      6  C   UNL     1       2.883   4.402  18.046  0.00  0.00    +0.000 A 
ENDROOT
BRANCH   4   7
ATOM      7  C   UNL     1       5.787   3.765  15.641  0.00  0.00    +0.000 C 
ATOM      8  C   UNL     1       5.766   4.490  14.511  0.00  0.00    +0.000 C 
BRANCH   8   9
ATOM      9  C   UNL     1       6.480   4.174  13.226  0.00  0.00    +0.000 C 
ATOM     10  C   UNL     1       5.912   3.150  12.264  0.00  0.00    +0.000 C 
ATOM     11  N   UNL     1       7.592   4.732  12.843  0.00  0.00    +0.000 NA
BRANCH  11  12
ATOM     12  O   UNL     1       8.067   5.677  13.759  0.00  0.00    +0.000 OA
ATOM     13  H   UNL     1       8.637   6.241  13.204  0.00  0.00    +0.000 HD
ENDBRANCH  11  12
ENDBRANCH   8   9
ENDBRANCH   4   7
BRANCH   1  14
ATOM     14  O   UNL     1       2.920   5.017  20.380  0.00  0.00    +0.000 OA
BRANCH  14  15
ATOM     15  C   UNL     1       1.544   4.590  20.336  0.00  0.00    +0.000 C 
BRANCH  15  17
ATOM     16  C   UNL     1       2.342   2.542  21.516  0.00  0.00    +0.000 C 
ATOM     17  C   UNL     1       1.378   3.437  21.267  0.00  0.00    +0.000 C 
ENDBRANCH  15  17
ENDBRANCH  14  15
ENDBRANCH   1  14
TORSDOF 6
ENDMDL
MODEL 4
REMARK VINA RESULT:      -6.3      4.091      7.018
REMARK  Name = 
REMARK  7 active torsions:
REMARK  status: ('A' for Active; 'I' for Inactive)
REMARK    1  A    between atoms: C_2  and  C_3
REMARK    2  A    between atoms: C_3  and  O_4
REMARK    3  A    between atoms: O_4  and  C_5
REMARK    4  A    between atoms: C_8  and  C_9
REMARK    5  A    between atoms: C_10  and  C_11
REMARK    6  A    between atoms: C_11  and  C_12
REMARK    7  A    between atoms: N_13  and  O_14
REMARK                            x       y       z     vdW  Elec       q    Type
REMARK                         _______ _______ _______ _____ _____    ______ ____
ROOT
ATOM      1  C   UNL     1       6.347   6.811  17.451  0.00  0.00    +0.000 A 
ATOM      2  C   UNL     1       5.049   6.749  16.971  0.00  0.00    +0.000 A 
ATOM      3  C   UNL     1       4.151   5.794  17.402  0.00  0.00    +0.000 A 
ATOM      4  C   UNL     1       4.551   4.799  18.313  0.00  0.00    +0.000 A 
ATOM      5  C   UNL     1       5.855   4.866  18.820  0.00  0.00    +0.000 A 
ATOM      6  C   UNL     1       6.767   5.851  18.394  0.00  0.00    +0.000 A 
ENDROOT
BRANCH   4   7
ATOM      7  C   UNL     1       3.573   3.774  18.712  0.00  0.00    +0.000 C 
ATOM      8  C   UNL     1       2.469   4.031  19.432  0.00  0.00    +0.000 C 
BRANCH   8   9
ATOM      9  C   UNL     1       1.473   3.025  19.940  0.00  0.00    +0.000 C 
ATOM     10  C   UNL     1       0.533   2.323  18.981  0.00  0.00    +0.000 C 
ATOM     11  N   UNL     1       1.345   2.679  21.189  0.00  0.00    +0.000 NA
BRANCH  11  12
ATOM     12  O   UNL     1       2.243   3.345  22.031  0.00  0.00    +0.000 OA
ATOM     13  H   UNL     1       2.411   4.174  21.546  0.00  0.00    +0.000 HD
ENDBRANCH  11  12
ENDBRANCH   8   9
ENDBRANCH   4   7
BRANCH   1  14
ATOM     14  O   UNL     1       7.216   7.791  17.029  0.00  0.00    +0.000 OA
BRANCH  14  15
ATOM     15  C   UNL     1       8.204   8.112  18.029  0.00  0.00    +0.000 C 
BRANCH  15  17
ATOM     16  C   UNL     1       9.165  10.227  18.941  0.00  0.00    +0.000 C 
ATOM     17  C   UNL     1       8.377   9.593  18.063  0.00  0.00    +0.000 C 
ENDBRANCH  15  17
ENDBRANCH  14  15
ENDBRANCH   1  14
TORSDOF 6
ENDMDL
MODEL 5
REMARK VINA RESULT:      -6.3      4.140      6.945
REMARK  Name = 
REMARK  7 active torsions:
REMARK  status: ('A' for Active; 'I' for Inactive)
REMARK    1  A    between atoms: C_2  and  C_3
REMARK    2  A    between atoms: C_3  and  O_4
REMARK    3  A    between atoms: O_4  and  C_5
REMARK    4  A    between atoms: C_8  and  C_9
REMARK    5  A    between atoms: C_10  and  C_11
REMARK    6  A    between atoms: C_11  and  C_12
REMARK    7  A    between atoms: N_13  and  O_14
REMARK                            x       y       z     vdW  Elec       q    Type
REMARK                         _______ _______ _______ _____ _____    ______ ____
ROOT
ATOM      1  C   UNL     1       7.065   6.891  17.620  0.00  0.00    +0.000 A 
ATOM      2  C   UNL     1       5.802   6.759  17.066  0.00  0.00    +0.000 A 
ATOM      3  C   UNL     1       4.874   5.865  17.559  0.00  0.00    +0.000 A 
ATOM      4  C   UNL     1       5.207   5.003  18.619  0.00  0.00    +0.000 A 
ATOM      5  C   UNL     1       6.475   5.144  19.199  0.00  0.00    +0.000 A 
ATOM      6  C   UNL     1       7.418   6.068  18.708  0.00  0.00    +0.000 A 
ENDROOT
BRANCH   4   7
ATOM      7  C   UNL     1       4.201   4.035  19.085  0.00  0.00    +0.000 C 
ATOM      8  C   UNL     1       2.889   4.129  18.816  0.00  0.00    +0.000 C 
BRANCH   8   9
ATOM      9  C   UNL     1       1.800   3.225  19.323  0.00  0.00    +0.000 C 
ATOM     10  C   UNL     1       1.093   3.532  20.628  0.00  0.00    +0.000 C 
ATOM     11  N   UNL     1       1.383   2.155  18.709  0.00  0.00    +0.000 NA
BRANCH  11  12
ATOM     12  O   UNL     1       2.058   1.923  17.505  0.00  0.00    +0.000 OA
ATOM     13  H   UNL     1       1.375   2.119  16.839  0.00  0.00    +0.000 HD
ENDBRANCH  11  12
ENDBRANCH   8   9
ENDBRANCH   4   7
BRANCH   1  14
ATOM     14  O   UNL     1       7.965   7.811  17.130  0.00  0.00    +0.000 OA
BRANCH  14  15
ATOM     15  C   UNL     1       7.772   9.120  17.701  0.00  0.00    +0.000 C 
BRANCH  15  17
ATOM     16  C   UNL     1       9.405  10.552  18.931  0.00  0.00    +0.000 C 
ATOM     17  C   UNL     1       8.843   9.356  18.712  0.00  0.00    +0.000 C 
ENDBRANCH  15  17
ENDBRANCH  14  15
ENDBRANCH   1  14
TORSDOF 6
ENDMDL
MODEL 6
REMARK VINA RESULT:      -6.3      1.449      2.206
REMARK  Name = 
REMARK  7 active torsions:
REMARK  status: ('A' for Active; 'I' for Inactive)
REMARK    1  A    between atoms: C_2  and  C_3
REMARK    2  A    between atoms: C_3  and  O_4
REMARK    3  A    between atoms: O_4  and  C_5
REMARK    4  A    between atoms: C_8  and  C_9
REMARK    5  A    between atoms: C_10  and  C_11
REMARK    6  A    between atoms: C_11  and  C_12
REMARK    7  A    between atoms: N_13  and  O_14
REMARK                            x       y       z     vdW  Elec       q    Type
REMARK                         _______ _______ _______ _____ _____    ______ ____
ROOT
ATOM      1  C   UNL     1       3.017   4.662  18.620  0.00  0.00    +0.000 A 
ATOM      2  C   UNL     1       3.254   3.382  18.148  0.00  0.00    +0.000 A 
ATOM      3  C   UNL     1       4.154   3.128  17.134  0.00  0.00    +0.000 A 
ATOM      4  C   UNL     1       4.826   4.186  16.495  0.00  0.00    +0.000 A 
ATOM      5  C   UNL     1       4.608   5.483  16.980  0.00  0.00    +0.000 A 
ATOM      6  C   UNL     1       3.702   5.741  18.027  0.00  0.00    +0.000 A 
ENDROOT
BRANCH   4   7
ATOM      7  C   UNL     1       5.744   3.873  15.388  0.00  0.00    +0.000 C 
ATOM      8  C   UNL     1       5.673   4.437  14.172  0.00  0.00    +0.000 C 
BRANCH   8   9
ATOM      9  C   UNL     1       6.524   4.108  12.977  0.00  0.00    +0.000 C 
ATOM     10  C   UNL     1       6.091   3.035  11.998  0.00  0.00    +0.000 C 
ATOM     11  N   UNL     1       7.649   4.695  12.688  0.00  0.00    +0.000 NA
BRANCH  11  12
ATOM     12  O   UNL     1       7.997   5.685  13.614  0.00  0.00    +0.000 OA
ATOM     13  H   UNL     1       7.181   6.214  13.674  0.00  0.00    +0.000 HD
ENDBRANCH  11  12
ENDBRANCH   8   9
ENDBRANCH   4   7
BRANCH   1  14
ATOM     14  O   UNL     1       2.136   4.888  19.654  0.00  0.00    +0.000 OA
BRANCH  14  15
ATOM     15  C   UNL     1       1.126   3.864  19.744  0.00  0.00    +0.000 C 
BRANCH  15  17
ATOM     16  C   UNL     1       2.350   2.797  21.638  0.00  0.00    +0.000 C 
ATOM     17  C   UNL     1       1.208   3.237  21.094  0.00  0.00    +0.000 C 
ENDBRANCH  15  17
ENDBRANCH  14  15
ENDBRANCH   1  14
TORSDOF 6
ENDMDL
MODEL 7
REMARK VINA RESULT:      -6.3      1.424      1.745
REMARK  Name = 
REMARK  7 active torsions:
REMARK  status: ('A' for Active; 'I' for Inactive)
REMARK    1  A    between atoms: C_2  and  C_3
REMARK    2  A    between atoms: C_3  and  O_4
REMARK    3  A    between atoms: O_4  and  C_5
REMARK    4  A    between atoms: C_8  and  C_9
REMARK    5  A    between atoms: C_10  and  C_11
REMARK    6  A    between atoms: C_11  and  C_12
REMARK    7  A    between atoms: N_13  and  O_14
REMARK                            x       y       z     vdW  Elec       q    Type
REMARK                         _______ _______ _______ _____ _____    ______ ____
ROOT
ATOM      1  C   UNL     1       2.106   4.451  19.061  0.00  0.00    +0.000 A 
ATOM      2  C   UNL     1       3.260   5.195  19.241  0.00  0.00    +0.000 A 
ATOM      3  C   UNL     1       4.308   5.153  18.344  0.00  0.00    +0.000 A 
ATOM      4  C   UNL     1       4.260   4.293  17.232  0.00  0.00    +0.000 A 
ATOM      5  C   UNL     1       3.087   3.552  17.031  0.00  0.00    +0.000 A 
ATOM      6  C   UNL     1       2.011   3.607  17.936  0.00  0.00    +0.000 A 
ENDROOT
BRANCH   4   7
ATOM      7  C   UNL     1       5.418   4.247  16.324  0.00  0.00    +0.000 C 
ATOM      8  C   UNL     1       5.368   4.588  15.027  0.00  0.00    +0.000 C 
BRANCH   8   9
ATOM      9  C   UNL     1       6.488   4.490  14.028  0.00  0.00    +0.000 C 
ATOM     10  C   UNL     1       6.329   3.651  12.776  0.00  0.00    +0.000 C 
ATOM     11  N   UNL     1       7.633   5.098  14.141  0.00  0.00    +0.000 NA
BRANCH  11  12
ATOM     12  O   UNL     1       7.725   5.869  15.306  0.00  0.00    +0.000 OA
ATOM     13  H   UNL     1       8.678   6.066  15.355  0.00  0.00    +0.000 HD
ENDBRANCH  11  12
ENDBRANCH   8   9
ENDBRANCH   4   7
BRANCH   1  14
ATOM     14  O   UNL     1       1.061   4.532  19.954  0.00  0.00    +0.000 OA
BRANCH  14  15
ATOM     15  C   UNL     1       0.793   3.270  20.597  0.00  0.00    +0.000 C 
BRANCH  15  17
ATOM     16  C   UNL     1       2.807   2.222  21.633  0.00  0.00    +0.000 C 
ATOM     17  C   UNL     1       1.783   3.082  21.697  0.00  0.00    +0.000 C 
ENDBRANCH  15  17
ENDBRANCH  14  15
ENDBRANCH   1  14
TORSDOF 6
ENDMDL
MODEL 8
REMARK VINA RESULT:      -6.2      4.187      6.977
REMARK  Name = 
REMARK  7 active torsions:
REMARK  status: ('A' for Active; 'I' for Inactive)
REMARK    1  A    between atoms: C_2  and  C_3
REMARK    2  A    between atoms: C_3  and  O_4
REMARK    3  A    between atoms: O_4  and  C_5
REMARK    4  A    between atoms: C_8  and  C_9
REMARK    5  A    between atoms: C_10  and  C_11
REMARK    6  A    between atoms: C_11  and  C_12
REMARK    7  A    between atoms: N_13  and  O_14
REMARK                            x       y       z     vdW  Elec       q    Type
REMARK                         _______ _______ _______ _____ _____    ______ ____
ROOT
ATOM      1  C   UNL     1       7.036   7.018  17.654  0.00  0.00    +0.000 A 
ATOM      2  C   UNL     1       7.300   6.080  18.638  0.00  0.00    +0.000 A 
ATOM      3  C   UNL     1       6.324   5.241  19.134  0.00  0.00    +0.000 A 
ATOM      4  C   UNL     1       4.993   5.356  18.692  0.00  0.00    +0.000 A 
ATOM      5  C   UNL     1       4.720   6.288  17.682  0.00  0.00    +0.000 A 
ATOM      6  C   UNL     1       5.720   7.133  17.162  0.00  0.00    +0.000 A 
ENDROOT
BRANCH   4   7
ATOM      7  C   UNL     1       3.975   4.470  19.280  0.00  0.00    +0.000 C 
ATOM      8  C   UNL     1       2.843   4.110  18.656  0.00  0.00    +0.000 C 
BRANCH   8   9
ATOM      9  C   UNL     1       1.728   3.277  19.225  0.00  0.00    +0.000 C 
ATOM     10  C   UNL     1       0.996   3.724  20.475  0.00  0.00    +0.000 C 
ATOM     11  N   UNL     1       1.307   2.157  18.712  0.00  0.00    +0.000 NA
BRANCH  11  12
ATOM     12  O   UNL     1       2.005   1.795  17.554  0.00  0.00    +0.000 OA
ATOM     13  H   UNL     1       1.545   0.983  17.275  0.00  0.00    +0.000 HD
ENDBRANCH  11  12
ENDBRANCH   8   9
ENDBRANCH   4   7
BRANCH   1  14
ATOM     14  O   UNL     1       8.033   7.824  17.152  0.00  0.00    +0.000 OA
BRANCH  14  15
ATOM     15  C   UNL     1       7.910   9.188  17.602  0.00  0.00    +0.000 C 
BRANCH  15  17
ATOM     16  C   UNL     1       9.411  10.570  19.039  0.00  0.00    +0.000 C 
ATOM     17  C   UNL     1       8.842   9.393  18.748  0.00  0.00    +0.000 C 
ENDBRANCH  15  17
ENDBRANCH  14  15
ENDBRANCH   1  14
TORSDOF 6
ENDMDL
MODEL 9
REMARK VINA RESULT:      -6.2      2.058      2.461
REMARK  Name = 
REMARK  7 active torsions:
REMARK  status: ('A' for Active; 'I' for Inactive)
REMARK    1  A    between atoms: C_2  and  C_3
REMARK    2  A    between atoms: C_3  and  O_4
REMARK    3  A    between atoms: O_4  and  C_5
REMARK    4  A    between atoms: C_8  and  C_9
REMARK    5  A    between atoms: C_10  and  C_11
REMARK    6  A    between atoms: C_11  and  C_12
REMARK    7  A    between atoms: N_13  and  O_14
REMARK                            x       y       z     vdW  Elec       q    Type
REMARK                         _______ _______ _______ _____ _____    ______ ____
ROOT
ATOM      1  C   UNL     1       3.790   4.705  18.713  0.00  0.00    +0.000 A 
ATOM      2  C   UNL     1       4.165   5.929  18.187  0.00  0.00    +0.000 A 
ATOM      3  C   UNL     1       4.795   6.041  16.965  0.00  0.00    +0.000 A 
ATOM      4  C   UNL     1       5.136   4.891  16.230  0.00  0.00    +0.000 A 
ATOM      5  C   UNL     1       4.741   3.649  16.745  0.00  0.00    +0.000 A 
ATOM      6  C   UNL     1       4.083   3.535  17.985  0.00  0.00    +0.000 A 
ENDROOT
BRANCH   4   7
ATOM      7  C   UNL     1       5.846   5.055  14.951  0.00  0.00    +0.000 C 
ATOM      8  C   UNL     1       6.043   4.061  14.070  0.00  0.00    +0.000 C 
BRANCH   8   9
ATOM      9  C   UNL     1       6.824   4.139  12.787  0.00  0.00    +0.000 C 
ATOM     10  C   UNL     1       7.750   5.309  12.522  0.00  0.00    +0.000 C 
ATOM     11  N   UNL     1       6.783   3.244  11.843  0.00  0.00    +0.000 NA
BRANCH  11  12
ATOM     12  O   UNL     1       5.926   2.179  12.142  0.00  0.00    +0.000 OA
ATOM     13  H   UNL     1       5.846   1.725  11.284  0.00  0.00    +0.000 HD
ENDBRANCH  11  12
ENDBRANCH   8   9
ENDBRANCH   4   7
BRANCH   1  14
ATOM     14  O   UNL     1       3.135   4.620  19.922  0.00  0.00    +0.000 OA
BRANCH  14  15
ATOM     15  C   UNL     1       1.713   4.814  19.787  0.00  0.00    +0.000 C 
BRANCH  15  17
ATOM     16  C   UNL     1       0.660   2.643  19.149  0.00  0.00    +0.000 C 
ATOM     17  C   UNL     1       1.030   3.523  20.089  0.00  0.00    +0.000 C 
ENDBRANCH  15  17
ENDBRANCH  14  15
ENDBRANCH   1  14
TORSDOF 6
ENDMDL
