MODEL 1
REMARK VINA RESULT:      -7.3      0.000      0.000
REMARK  Name = 
REMARK  5 active torsions:
REMARK  status: ('A' for Active; 'I' for Inactive)
REMARK    1  A    between atoms: C_1  and  C_2
REMARK    2  A    between atoms: C_2  and  C_3
REMARK    3  A    between atoms: C_3  and  C_4
REMARK    4  A    between atoms: C_12  and  O_13
REMARK    5  A    between atoms: C_15  and  C_16
REMARK                            x       y       z     vdW  Elec       q    Type
REMARK                         _______ _______ _______ _____ _____    ______ ____
ROOT
ATOM      1  C   UNL     1       3.914   2.662  19.817  0.00  0.00    +0.000 C 
ATOM      2  C   UNL     1       3.669   2.133  21.239  0.00  0.00    +0.000 C 
ATOM      3  C   UNL     1       2.233   2.388  21.680  0.00  0.00    +0.000 C 
ATOM      4  N   UNL     1       1.866   3.791  21.562  0.00  0.00    +0.000 N 
ATOM      5  C   UNL     1       2.478   4.600  20.612  0.00  0.00    +0.000 A 
ATOM      6  C   UNL     1       2.029   5.915  20.417  0.00  0.00    +0.000 A 
ATOM      7  C   UNL     1       2.497   6.733  19.390  0.00  0.00    +0.000 A 
ATOM      8  N   UNL     1       1.973   7.961  19.221  0.00  0.00    +0.000 NA
ATOM      9  C   UNL     1       2.406   8.680  18.174  0.00  0.00    +0.000 A 
ATOM     10  C   UNL     1       3.335   8.272  17.250  0.00  0.00    +0.000 A 
ATOM     11  C   UNL     1       3.902   7.010  17.422  0.00  0.00    +0.000 A 
ATOM     12  C   UNL     1       3.492   6.224  18.529  0.00  0.00    +0.000 A 
ATOM     13  C   UNL     1       4.005   4.942  18.771  0.00  0.00    +0.000 A 
ATOM     14  C   UNL     1       3.458   4.106  19.748  0.00  0.00    +0.000 A 
ATOM     15  H   UNL     1       1.560   4.255  22.411  0.00  0.00    +0.000 HD
ENDROOT
BRANCH  11  16
ATOM     16  C   UNL     1       4.879   6.493  16.398  0.00  0.00    +0.000 C 
ATOM     17  F   UNL     1       4.706   5.179  16.088  0.00  0.00    +0.000 F 
ATOM     18  F   UNL     1       4.806   7.163  15.213  0.00  0.00    +0.000 F 
ATOM     19  F   UNL     1       6.176   6.602  16.807  0.00  0.00    +0.000 F 
ENDBRANCH  11  16
BRANCH   9  20
ATOM     20  O   UNL     1       1.826   9.899  18.051  0.00  0.00    +0.000 OA
ATOM     21  H   UNL     1       2.262  10.214  17.238  0.00  0.00    +0.000 HD
ENDBRANCH   9  20
BRANCH   1  22
ATOM     22  C   UNL     1       3.221   1.774  18.748  0.00  0.00    +0.000 C 
BRANCH  22  24
ATOM     23  C   UNL     1       0.729   2.202  18.543  0.00  0.00    +0.000 C 
ATOM     24  C   UNL     1       2.105   2.470  17.956  0.00  0.00    +0.000 C 
ENDBRANCH  22  24
ENDBRANCH   1  22
TORSDOF 4
ENDMDL
MODEL 2
REMARK VINA RESULT:      -7.0      2.732      3.697
REMARK  Name = 
REMARK  5 active torsions:
REMARK  status: ('A' for Active; 'I' for Inactive)
REMARK    1  A    between atoms: C_1  and  C_2
REMARK    2  A    between atoms: C_2  and  C_3
REMARK    3  A    between atoms: C_3  and  C_4
REMARK    4  A    between atoms: C_12  and  O_13
REMARK    5  A    between atoms: C_15  and  C_16
REMARK                            x       y       z     vdW  Elec       q    Type
REMARK                         _______ _______ _______ _____ _____    ______ ____
ROOT
ATOM      1  C   UNL     1       0.773   3.473  18.908  0.00  0.00    +0.000 C 
ATOM      2  C   UNL     1       0.583   1.994  18.537  0.00  0.00    +0.000 C 
ATOM      3  C   UNL     1       1.821   1.177  18.886  0.00  0.00    +0.000 C 
ATOM      4  N   UNL     1       3.026   1.727  18.285  0.00  0.00    +0.000 N 
ATOM      5  C   UNL     1       3.119   3.087  18.014  0.00  0.00    +0.000 A 
ATOM      6  C   UNL     1       4.329   3.630  17.556  0.00  0.00    +0.000 A 
ATOM      7  C   UNL     1       4.537   5.000  17.401  0.00  0.00    +0.000 A 
ATOM      8  N   UNL     1       5.745   5.454  17.022  0.00  0.00    +0.000 NA
ATOM      9  C   UNL     1       5.914   6.784  16.959  0.00  0.00    +0.000 A 
ATOM     10  C   UNL     1       4.963   7.728  17.254  0.00  0.00    +0.000 A 
ATOM     11  C   UNL     1       3.700   7.274  17.630  0.00  0.00    +0.000 A 
ATOM     12  C   UNL     1       3.469   5.875  17.688  0.00  0.00    +0.000 A 
ATOM     13  C   UNL     1       2.231   5.334  18.063  0.00  0.00    +0.000 A 
ATOM     14  C   UNL     1       2.072   3.965  18.301  0.00  0.00    +0.000 A 
ATOM     15  H   UNL     1       3.549   1.114  17.667  0.00  0.00    +0.000 HD
ENDROOT
BRANCH  11  16
ATOM     16  C   UNL     1       2.643   8.272  18.026  0.00  0.00    +0.000 C 
ATOM     17  F   UNL     1       1.476   8.138  17.337  0.00  0.00    +0.000 F 
ATOM     18  F   UNL     1       2.304   8.187  19.343  0.00  0.00    +0.000 F 
ATOM     19  F   UNL     1       3.038   9.562  17.826  0.00  0.00    +0.000 F 
ENDBRANCH  11  16
BRANCH   9  20
ATOM     20  O   UNL     1       7.158   7.175  16.587  0.00  0.00    +0.000 OA
ATOM     21  H   UNL     1       7.261   6.658  15.766  0.00  0.00    +0.000 HD
ENDBRANCH   9  20
BRANCH   1  22
ATOM     22  C   UNL     1       0.722   3.689  20.445  0.00  0.00    +0.000 C 
BRANCH  22  24
ATOM     23  C   UNL     1       2.640   2.723  21.796  0.00  0.00    +0.000 C 
ATOM     24  C   UNL     1       2.084   3.956  21.104  0.00  0.00    +0.000 C 
ENDBRANCH  22  24
ENDBRANCH   1  22
TORSDOF 4
ENDMDL
MODEL 3
REMARK VINA RESULT:      -7.0      4.324      5.446
REMARK  Name = 
REMARK  5 active torsions:
REMARK  status: ('A' for Active; 'I' for Inactive)
REMARK    1  A    between atoms: C_1  and  C_2
REMARK    2  A    between atoms: C_2  and  C_3
REMARK    3  A    between atoms: C_3  and  C_4
REMARK    4  A    between atoms: C_12  and  O_13
REMARK    5  A    between atoms: C_15  and  C_16
REMARK                            x       y       z     vdW  Elec       q    Type
REMARK                         _______ _______ _______ _____ _____    ______ ____
ROOT
ATOM      1  C   UNL     1       3.969   2.926  17.422  0.00  0.00    +0.000 C 
ATOM      2  C   UNL     1       4.366   2.758  18.897  0.00  0.00    +0.000 C 
ATOM      3  C   UNL     1       4.892   4.065  19.477  0.00  0.00    +0.000 C 
ATOM      4  N   UNL     1       5.986   4.611  18.688  0.00  0.00    +0.000 N 
ATOM      5  C   UNL     1       6.074   4.345  17.327  0.00  0.00    +0.000 A 
ATOM      6  C   UNL     1       7.056   4.979  16.551  0.00  0.00    +0.000 A 
ATOM      7  C   UNL     1       7.112   4.871  15.162  0.00  0.00    +0.000 A 
ATOM      8  N   UNL     1       8.041   5.561  14.475  0.00  0.00    +0.000 NA
ATOM      9  C   UNL     1       8.006   5.481  13.135  0.00  0.00    +0.000 A 
ATOM     10  C   UNL     1       7.100   4.760  12.398  0.00  0.00    +0.000 A 
ATOM     11  C   UNL     1       6.143   4.025  13.096  0.00  0.00    +0.000 A 
ATOM     12  C   UNL     1       6.156   4.061  14.514  0.00  0.00    +0.000 A 
ATOM     13  C   UNL     1       5.226   3.357  15.292  0.00  0.00    +0.000 A 
ATOM     14  C   UNL     1       5.129   3.552  16.673  0.00  0.00    +0.000 A 
ATOM     15  H   UNL     1       6.868   4.756  19.170  0.00  0.00    +0.000 HD
ENDROOT
BRANCH  11  16
ATOM     16  C   UNL     1       5.088   3.269  12.329  0.00  0.00    +0.000 C 
ATOM     17  F   UNL     1       3.888   3.202  12.968  0.00  0.00    +0.000 F 
ATOM     18  F   UNL     1       4.825   3.820  11.111  0.00  0.00    +0.000 F 
ATOM     19  F   UNL     1       5.443   1.975  12.084  0.00  0.00    +0.000 F 
ENDBRANCH  11  16
BRANCH   9  20
ATOM     20  O   UNL     1       8.957   6.211  12.504  0.00  0.00    +0.000 OA
ATOM     21  H   UNL     1       8.726   6.026  11.575  0.00  0.00    +0.000 HD
ENDBRANCH   9  20
BRANCH   1  22
ATOM     22  C   UNL     1       2.660   3.747  17.271  0.00  0.00    +0.000 C 
BRANCH  22  24
ATOM     23  C   UNL     1       1.221   4.139  19.323  0.00  0.00    +0.000 C 
ATOM     24  C   UNL     1       1.483   3.247  18.121  0.00  0.00    +0.000 C 
ENDBRANCH  22  24
ENDBRANCH   1  22
TORSDOF 4
ENDMDL
MODEL 4
REMARK VINA RESULT:      -7.0      2.960      5.103
REMARK  Name = 
REMARK  5 active torsions:
REMARK  status: ('A' for Active; 'I' for Inactive)
REMARK    1  A    between atoms: C_1  and  C_2
REMARK    2  A    between atoms: C_2  and  C_3
REMARK    3  A    between atoms: C_3  and  C_4
REMARK    4  A    between atoms: C_12  and  O_13
REMARK    5  A    between atoms: C_15  and  C_16
REMARK                            x       y       z     vdW  Elec       q    Type
REMARK                         _______ _______ _______ _____ _____    ______ ____
ROOT
ATOM      1  C   UNL     1       5.245   4.237  16.542  0.00  0.00    +0.000 C 
ATOM      2  C   UNL     1       5.519   4.742  15.117  0.00  0.00    +0.000 C 
ATOM      3  C   UNL     1       5.982   6.194  15.128  0.00  0.00    +0.000 C 
ATOM      4  N   UNL     1       5.047   7.060  15.831  0.00  0.00    +0.000 N 
ATOM      5  C   UNL     1       4.252   6.554  16.852  0.00  0.00    +0.000 A 
ATOM      6  C   UNL     1       3.449   7.420  17.611  0.00  0.00    +0.000 A 
ATOM      7  C   UNL     1       2.739   7.006  18.736  0.00  0.00    +0.000 A 
ATOM      8  N   UNL     1       2.043   7.906  19.456  0.00  0.00    +0.000 NA
ATOM      9  C   UNL     1       1.437   7.470  20.571  0.00  0.00    +0.000 A 
ATOM     10  C   UNL     1       1.468   6.185  21.051  0.00  0.00    +0.000 A 
ATOM     11  C   UNL     1       2.169   5.237  20.308  0.00  0.00    +0.000 A 
ATOM     12  C   UNL     1       2.806   5.647  19.108  0.00  0.00    +0.000 A 
ATOM     13  C   UNL     1       3.537   4.760  18.305  0.00  0.00    +0.000 A 
ATOM     14  C   UNL     1       4.315   5.213  17.235  0.00  0.00    +0.000 A 
ATOM     15  H   UNL     1       4.654   7.832  15.302  0.00  0.00    +0.000 HD
ENDROOT
BRANCH  11  16
ATOM     16  C   UNL     1       2.285   3.827  20.828  0.00  0.00    +0.000 C 
ATOM     17  F   UNL     1       3.484   3.241  20.563  0.00  0.00    +0.000 F 
ATOM     18  F   UNL     1       2.128   3.749  22.179  0.00  0.00    +0.000 F 
ATOM     19  F   UNL     1       1.346   2.993  20.296  0.00  0.00    +0.000 F 
ENDBRANCH  11  16
BRANCH   9  20
ATOM     20  O   UNL     1       0.767   8.428  21.258  0.00  0.00    +0.000 OA
ATOM     21  H   UNL     1       1.156   8.306  22.144  0.00  0.00    +0.000 HD
ENDBRANCH   9  20
BRANCH   1  22
ATOM     22  C   UNL     1       6.562   4.015  17.334  0.00  0.00    +0.000 C 
BRANCH  22  24
ATOM     23  C   UNL     1       7.664   6.022  18.427  0.00  0.00    +0.000 C 
ATOM     24  C   UNL     1       6.699   4.862  18.608  0.00  0.00    +0.000 C 
ENDBRANCH  22  24
ENDBRANCH   1  22
TORSDOF 4
ENDMDL
MODEL 5
REMARK VINA RESULT:      -6.9      3.619      5.680
REMARK  Name = 
REMARK  5 active torsions:
REMARK  status: ('A' for Active; 'I' for Inactive)
REMARK    1  A    between atoms: C_1  and  C_2
REMARK    2  A    between atoms: C_2  and  C_3
REMARK    3  A    between atoms: C_3  and  C_4
REMARK    4  A    between atoms: C_12  and  O_13
REMARK    5  A    between atoms: C_15  and  C_16
REMARK                            x       y       z     vdW  Elec       q    Type
REMARK                         _______ _______ _______ _____ _____    ______ ____
ROOT
ATOM      1  C   UNL     1       6.370   5.803  17.940  0.00  0.00    +0.000 C 
ATOM      2  C   UNL     1       7.612   5.231  17.240  0.00  0.00    +0.000 C 
ATOM      3  C   UNL     1       7.259   4.669  15.868  0.00  0.00    +0.000 C 
ATOM      4  N   UNL     1       6.187   3.687  15.940  0.00  0.00    +0.000 N 
ATOM      5  C   UNL     1       5.238   3.755  16.952  0.00  0.00    +0.000 A 
ATOM      6  C   UNL     1       4.137   2.885  16.940  0.00  0.00    +0.000 A 
ATOM      7  C   UNL     1       3.076   2.991  17.839  0.00  0.00    +0.000 A 
ATOM      8  N   UNL     1       2.020   2.165  17.727  0.00  0.00    +0.000 NA
ATOM      9  C   UNL     1       0.993   2.356  18.569  0.00  0.00    +0.000 A 
ATOM     10  C   UNL     1       0.918   3.327  19.536  0.00  0.00    +0.000 A 
ATOM     11  C   UNL     1       2.012   4.179  19.677  0.00  0.00    +0.000 A 
ATOM     12  C   UNL     1       3.131   3.999  18.824  0.00  0.00    +0.000 A 
ATOM     13  C   UNL     1       4.268   4.816  18.895  0.00  0.00    +0.000 A 
ATOM     14  C   UNL     1       5.277   4.753  17.928  0.00  0.00    +0.000 A 
ATOM     15  H   UNL     1       6.396   2.758  15.588  0.00  0.00    +0.000 HD
ENDROOT
BRANCH  11  16
ATOM     16  C   UNL     1       1.950   5.301  20.682  0.00  0.00    +0.000 C 
ATOM     17  F   UNL     1       2.623   6.420  20.298  0.00  0.00    +0.000 F 
ATOM     18  F   UNL     1       0.676   5.709  20.940  0.00  0.00    +0.000 F 
ATOM     19  F   UNL     1       2.481   4.954  21.890  0.00  0.00    +0.000 F 
ENDBRANCH  11  16
BRANCH   9  20
ATOM     20  O   UNL     1      -0.045   1.502  18.393  0.00  0.00    +0.000 OA
ATOM     21  H   UNL     1       0.298   0.717  18.861  0.00  0.00    +0.000 HD
ENDBRANCH   9  20
BRANCH   1  22
ATOM     22  C   UNL     1       5.911   7.138  17.294  0.00  0.00    +0.000 C 
BRANCH  22  24
ATOM     23  C   UNL     1       3.482   7.857  17.437  0.00  0.00    +0.000 C 
ATOM     24  C   UNL     1       4.524   7.093  16.636  0.00  0.00    +0.000 C 
ENDBRANCH  22  24
ENDBRANCH   1  22
TORSDOF 4
ENDMDL
MODEL 6
REMARK VINA RESULT:      -6.9      3.802      5.941
REMARK  Name = 
REMARK  5 active torsions:
REMARK  status: ('A' for Active; 'I' for Inactive)
REMARK    1  A    between atoms: C_1  and  C_2
REMARK    2  A    between atoms: C_2  and  C_3
REMARK    3  A    between atoms: C_3  and  C_4
REMARK    4  A    between atoms: C_12  and  O_13
REMARK    5  A    between atoms: C_15  and  C_16
REMARK                            x       y       z     vdW  Elec       q    Type
REMARK                         _______ _______ _______ _____ _____    ______ ____
ROOT
ATOM      1  C   UNL     1       6.559   5.732  18.264  0.00  0.00    +0.000 C 
ATOM      2  C   UNL     1       7.813   5.101  17.641  0.00  0.00    +0.000 C 
ATOM      3  C   UNL     1       7.521   4.564  16.245  0.00  0.00    +0.000 C 
ATOM      4  N   UNL     1       6.399   3.638  16.239  0.00  0.00    +0.000 N 
ATOM      5  C   UNL     1       5.391   3.749  17.189  0.00  0.00    +0.000 A 
ATOM      6  C   UNL     1       4.250   2.937  17.099  0.00  0.00    +0.000 A 
ATOM      7  C   UNL     1       3.140   3.092  17.928  0.00  0.00    +0.000 A 
ATOM      8  N   UNL     1       2.053   2.322  17.741  0.00  0.00    +0.000 NA
ATOM      9  C   UNL     1       0.984   2.561  18.517  0.00  0.00    +0.000 A 
ATOM     10  C   UNL     1       0.896   3.529  19.485  0.00  0.00    +0.000 A 
ATOM     11  C   UNL     1       2.021   4.324  19.703  0.00  0.00    +0.000 A 
ATOM     12  C   UNL     1       3.182   4.091  18.922  0.00  0.00    +0.000 A 
ATOM     13  C   UNL     1       4.352   4.849  19.073  0.00  0.00    +0.000 A 
ATOM     14  C   UNL     1       5.416   4.739  18.173  0.00  0.00    +0.000 A 
ATOM     15  H   UNL     1       6.583   2.701  15.894  0.00  0.00    +0.000 HD
ENDROOT
BRANCH  11  16
ATOM     16  C   UNL     1       1.950   5.443  20.711  0.00  0.00    +0.000 C 
ATOM     17  F   UNL     1       0.682   5.846  20.996  0.00  0.00    +0.000 F 
ATOM     18  F   UNL     1       2.508   5.109  21.909  0.00  0.00    +0.000 F 
ATOM     19  F   UNL     1       2.605   6.565  20.295  0.00  0.00    +0.000 F 
ENDBRANCH  11  16
BRANCH   9  20
ATOM     20  O   UNL     1      -0.082   1.761  18.267  0.00  0.00    +0.000 OA
ATOM     21  H   UNL     1       0.075   1.058  18.924  0.00  0.00    +0.000 HD
ENDBRANCH   9  20
BRANCH   1  22
ATOM     22  C   UNL     1       6.210   7.092  17.601  0.00  0.00    +0.000 C 
BRANCH  22  24
ATOM     23  C   UNL     1       8.144   8.627  18.186  0.00  0.00    +0.000 C 
ATOM     24  C   UNL     1       7.418   7.882  17.077  0.00  0.00    +0.000 C 
ENDBRANCH  22  24
ENDBRANCH   1  22
TORSDOF 4
ENDMDL
MODEL 7
REMARK VINA RESULT:      -6.8      3.224      4.191
REMARK  Name = 
REMARK  5 active torsions:
REMARK  status: ('A' for Active; 'I' for Inactive)
REMARK    1  A    between atoms: C_1  and  C_2
REMARK    2  A    between atoms: C_2  and  C_3
REMARK    3  A    between atoms: C_3  and  C_4
REMARK    4  A    between atoms: C_12  and  O_13
REMARK    5  A    between atoms: C_15  and  C_16
REMARK                            x       y       z     vdW  Elec       q    Type
REMARK                         _______ _______ _______ _____ _____    ______ ____
ROOT
ATOM      1  C   UNL     1       2.806   3.991  20.409  0.00  0.00    +0.000 C 
ATOM      2  C   UNL     1       1.278   3.897  20.280  0.00  0.00    +0.000 C 
ATOM      3  C   UNL     1       0.878   2.899  19.199  0.00  0.00    +0.000 C 
ATOM      4  N   UNL     1       1.504   3.200  17.921  0.00  0.00    +0.000 N 
ATOM      5  C   UNL     1       2.729   3.854  17.874  0.00  0.00    +0.000 A 
ATOM      6  C   UNL     1       3.387   4.025  16.646  0.00  0.00    +0.000 A 
ATOM      7  C   UNL     1       4.678   4.542  16.541  0.00  0.00    +0.000 A 
ATOM      8  N   UNL     1       5.273   4.614  15.337  0.00  0.00    +0.000 NA
ATOM      9  C   UNL     1       6.542   5.050  15.299  0.00  0.00    +0.000 A 
ATOM     10  C   UNL     1       7.294   5.424  16.384  0.00  0.00    +0.000 A 
ATOM     11  C   UNL     1       6.686   5.372  17.637  0.00  0.00    +0.000 A 
ATOM     12  C   UNL     1       5.337   4.940  17.723  0.00  0.00    +0.000 A 
ATOM     13  C   UNL     1       4.653   4.852  18.943  0.00  0.00    +0.000 A 
ATOM     14  C   UNL     1       3.396   4.246  19.036  0.00  0.00    +0.000 A 
ATOM     15  H   UNL     1       0.882   3.365  17.136  0.00  0.00    +0.000 HD
ENDROOT
BRANCH  11  16
ATOM     16  C   UNL     1       7.492   5.711  18.865  0.00  0.00    +0.000 C 
ATOM     17  F   UNL     1       6.774   5.672  20.020  0.00  0.00    +0.000 F 
ATOM     18  F   UNL     1       8.543   4.866  19.056  0.00  0.00    +0.000 F 
ATOM     19  F   UNL     1       8.027   6.965  18.811  0.00  0.00    +0.000 F 
ENDBRANCH  11  16
BRANCH   9  20
ATOM     20  O   UNL     1       7.087   5.084  14.058  0.00  0.00    +0.000 OA
ATOM     21  H   UNL     1       7.900   4.568  14.215  0.00  0.00    +0.000 HD
ENDBRANCH   9  20
BRANCH   1  22
ATOM     22  C   UNL     1       3.404   2.725  21.081  0.00  0.00    +0.000 C 
BRANCH  22  24
ATOM     23  C   UNL     1       5.330   1.075  21.110  0.00  0.00    +0.000 C 
ATOM     24  C   UNL     1       4.486   2.009  20.260  0.00  0.00    +0.000 C 
ENDBRANCH  22  24
ENDBRANCH   1  22
TORSDOF 4
ENDMDL
MODEL 8
REMARK VINA RESULT:      -6.7      2.660      5.642
REMARK  Name = 
REMARK  5 active torsions:
REMARK  status: ('A' for Active; 'I' for Inactive)
REMARK    1  A    between atoms: C_1  and  C_2
REMARK    2  A    between atoms: C_2  and  C_3
REMARK    3  A    between atoms: C_3  and  C_4
REMARK    4  A    between atoms: C_12  and  O_13
REMARK    5  A    between atoms: C_15  and  C_16
REMARK                            x       y       z     vdW  Elec       q    Type
REMARK                         _______ _______ _______ _____ _____    ______ ____
ROOT
ATOM      1  C   UNL     1       1.641   9.655  17.916  0.00  0.00    +0.000 C 
ATOM      2  C   UNL     1       0.320   9.990  18.626  0.00  0.00    +0.000 C 
ATOM      3  C   UNL     1       0.457   9.845  20.137  0.00  0.00    +0.000 C 
ATOM      4  N   UNL     1       0.948   8.529  20.517  0.00  0.00    +0.000 N 
ATOM      5  C   UNL     1       1.758   7.804  19.652  0.00  0.00    +0.000 A 
ATOM      6  C   UNL     1       2.333   6.596  20.076  0.00  0.00    +0.000 A 
ATOM      7  C   UNL     1       3.266   5.891  19.317  0.00  0.00    +0.000 A 
ATOM      8  N   UNL     1       3.827   4.774  19.816  0.00  0.00    +0.000 NA
ATOM      9  C   UNL     1       4.773   4.174  19.077  0.00  0.00    +0.000 A 
ATOM     10  C   UNL     1       5.228   4.602  17.855  0.00  0.00    +0.000 A 
ATOM     11  C   UNL     1       4.644   5.747  17.316  0.00  0.00    +0.000 A 
ATOM     12  C   UNL     1       3.623   6.402  18.052  0.00  0.00    +0.000 A 
ATOM     13  C   UNL     1       2.988   7.562  17.586  0.00  0.00    +0.000 A 
ATOM     14  C   UNL     1       2.125   8.302  18.400  0.00  0.00    +0.000 A 
ATOM     15  H   UNL     1       0.357   7.982  21.135  0.00  0.00    +0.000 HD
ENDROOT
BRANCH  11  16
ATOM     16  C   UNL     1       5.155   6.292  16.007  0.00  0.00    +0.000 C 
ATOM     17  F   UNL     1       4.411   7.318  15.511  0.00  0.00    +0.000 F 
ATOM     18  F   UNL     1       6.428   6.771  16.096  0.00  0.00    +0.000 F 
ATOM     19  F   UNL     1       5.180   5.350  15.021  0.00  0.00    +0.000 F 
ENDBRANCH  11  16
BRANCH   9  20
ATOM     20  O   UNL     1       5.309   3.065  19.643  0.00  0.00    +0.000 OA
ATOM     21  H   UNL     1       4.794   3.031  20.471  0.00  0.00    +0.000 HD
ENDBRANCH   9  20
BRANCH   1  22
ATOM     22  C   UNL     1       2.702  10.769  18.124  0.00  0.00    +0.000 C 
BRANCH  22  24
ATOM     23  C   UNL     1       2.344  13.039  19.198  0.00  0.00    +0.000 C 
ATOM     24  C   UNL     1       2.178  12.201  17.942  0.00  0.00    +0.000 C 
ENDBRANCH  22  24
ENDBRANCH   1  22
TORSDOF 4
ENDMDL
MODEL 9
REMARK VINA RESULT:      -6.6      2.660      3.412
REMARK  Name = 
REMARK  5 active torsions:
REMARK  status: ('A' for Active; 'I' for Inactive)
REMARK    1  A    between atoms: C_1  and  C_2
REMARK    2  A    between atoms: C_2  and  C_3
REMARK    3  A    between atoms: C_3  and  C_4
REMARK    4  A    between atoms: C_12  and  O_13
REMARK    5  A    between atoms: C_15  and  C_16
REMARK                            x       y       z     vdW  Elec       q    Type
REMARK                         _______ _______ _______ _____ _____    ______ ____
ROOT
ATOM      1  C   UNL     1       2.220   2.692  17.911  0.00  0.00    +0.000 C 
ATOM      2  C   UNL     1       1.804   1.650  18.960  0.00  0.00    +0.000 C 
ATOM      3  C   UNL     1       1.795   2.253  20.360  0.00  0.00    +0.000 C 
ATOM      4  N   UNL     1       3.069   2.870  20.696  0.00  0.00    +0.000 N 
ATOM      5  C   UNL     1       3.885   3.388  19.698  0.00  0.00    +0.000 A 
ATOM      6  C   UNL     1       5.048   4.095  20.039  0.00  0.00    +0.000 A 
ATOM      7  C   UNL     1       5.834   4.763  19.101  0.00  0.00    +0.000 A 
ATOM      8  N   UNL     1       6.899   5.478  19.508  0.00  0.00    +0.000 NA
ATOM      9  C   UNL     1       7.579   6.161  18.574  0.00  0.00    +0.000 A 
ATOM     10  C   UNL     1       7.282   6.203  17.236  0.00  0.00    +0.000 A 
ATOM     11  C   UNL     1       6.192   5.453  16.795  0.00  0.00    +0.000 A 
ATOM     12  C   UNL     1       5.458   4.695  17.743  0.00  0.00    +0.000 A 
ATOM     13  C   UNL     1       4.346   3.920  17.386  0.00  0.00    +0.000 A 
ATOM     14  C   UNL     1       3.520   3.335  18.351  0.00  0.00    +0.000 A 
ATOM     15  H   UNL     1       3.546   2.513  21.519  0.00  0.00    +0.000 HD
ENDROOT
BRANCH  11  16
ATOM     16  C   UNL     1       5.788   5.518  15.344  0.00  0.00    +0.000 C 
ATOM     17  F   UNL     1       5.063   4.444  14.928  0.00  0.00    +0.000 F 
ATOM     18  F   UNL     1       5.025   6.610  15.058  0.00  0.00    +0.000 F 
ATOM     19  F   UNL     1       6.860   5.583  14.503  0.00  0.00    +0.000 F 
ENDBRANCH  11  16
BRANCH   9  20
ATOM     20  O   UNL     1       8.629   6.872  19.052  0.00  0.00    +0.000 OA
ATOM     21  H   UNL     1       8.419   7.753  18.688  0.00  0.00    +0.000 HD
ENDBRANCH   9  20
BRANCH   1  22
ATOM     22  C   UNL     1       1.099   3.738  17.665  0.00  0.00    +0.000 C 
BRANCH  22  24
ATOM     23  C   UNL     1       1.538   5.769  19.121  0.00  0.00    +0.000 C 
ATOM     24  C   UNL     1       1.562   5.202  17.711  0.00  0.00    +0.000 C 
ENDBRANCH  22  24
ENDBRANCH   1  22
TORSDOF 4
ENDMDL
