MODEL 1
REMARK VINA RESULT:      -6.4      0.000      0.000
REMARK  Name = 
REMARK  12 active torsions:
REMARK  status: ('A' for Active; 'I' for Inactive)
REMARK    1  A    between atoms: C_1  and  C_2
REMARK    2  A    between atoms: C_2  and  C_3
REMARK    3  A    between atoms: C_3  and  C_4
REMARK    4  A    between atoms: C_4  and  C_5
REMARK    5  A    between atoms: C_5  and  C_6
REMARK    6  A    between atoms: C_6  and  C_7
REMARK    7  A    between atoms: C_7  and  C_8
REMARK    8  A    between atoms: C_8  and  C_9
REMARK    9  A    between atoms: C_9  and  C_10
REMARK   10  A    between atoms: C_10  and  C_11
REMARK   11  A    between atoms: C_11  and  O_12
REMARK   12  A    between atoms: O_12  and  P_13
REMARK                            x       y       z     vdW  Elec       q    Type
REMARK                         _______ _______ _______ _____ _____    ______ ____
ROOT
ATOM      1  O   UNL     1       7.991   8.114  17.074  0.00  0.00    +0.000 OA
ENDROOT
BRANCH   1   2
ATOM      2  P   UNL     1       7.219   6.762  17.507  0.00  0.00    +0.000 P 
ATOM      3  S   UNL     1       7.829   5.884  19.126  0.00  0.00    +0.000 S 
ATOM      4  O   UNL     1       7.404   5.933  16.134  0.00  0.00    +0.000 OA
ATOM      5  C   UNL     1       6.554   4.830  15.908  0.00  0.00    +0.000 C 
ATOM      6  C   UNL     1       5.211   4.907  16.581  0.00  0.00    +0.000 A 
ATOM      7  C   UNL     1       4.373   3.784  16.541  0.00  0.00    +0.000 A 
ATOM      8  C   UNL     1       3.147   3.791  17.202  0.00  0.00    +0.000 A 
ATOM      9  C   UNL     1       2.721   4.943  17.865  0.00  0.00    +0.000 A 
ATOM     10  C   UNL     1       3.530   6.082  17.886  0.00  0.00    +0.000 A 
ATOM     11  C   UNL     1       4.779   6.049  17.272  0.00  0.00    +0.000 A 
ATOM     12  O   UNL     1       5.633   7.122  17.416  0.00  0.00    +0.000 OA
ENDBRANCH   1   2
BRANCH   1  13
ATOM     13  C   UNL     1       7.798   9.342  17.751  0.00  0.00    +0.000 C 
BRANCH  13  14
ATOM     14  C   UNL     1       8.962   9.567  18.732  0.00  0.00    +0.000 C 
BRANCH  14  15
ATOM     15  C   UNL     1       9.724  10.842  18.360  0.00  0.00    +0.000 C 
BRANCH  15  16
ATOM     16  C   UNL     1       8.846  12.000  17.882  0.00  0.00    +0.000 C 
BRANCH  16  17
ATOM     17  C   UNL     1       9.285  13.287  18.594  0.00  0.00    +0.000 C 
BRANCH  17  18
ATOM     18  C   UNL     1      10.478  13.075  19.524  0.00  0.00    +0.000 C 
BRANCH  18  19
ATOM     19  C   UNL     1      10.109  13.438  20.969  0.00  0.00    +0.000 C 
BRANCH  19  20
ATOM     20  C   UNL     1       9.588  12.229  21.736  0.00  0.00    +0.000 C 
BRANCH  20  21
ATOM     21  C   UNL     1       8.269  12.544  22.441  0.00  0.00    +0.000 C 
BRANCH  21  23
ATOM     22  C   UNL     1       8.375  12.374  24.950  0.00  0.00    +0.000 C 
ATOM     23  C   UNL     1       8.057  11.643  23.655  0.00  0.00    +0.000 C 
ENDBRANCH  21  23
ENDBRANCH  20  21
ENDBRANCH  19  20
ENDBRANCH  18  19
ENDBRANCH  17  18
ENDBRANCH  16  17
ENDBRANCH  15  16
ENDBRANCH  14  15
ENDBRANCH  13  14
ENDBRANCH   1  13
TORSDOF 11
ENDMDL
MODEL 2
REMARK VINA RESULT:      -6.3      1.971      2.846
REMARK  Name = 
REMARK  12 active torsions:
REMARK  status: ('A' for Active; 'I' for Inactive)
REMARK    1  A    between atoms: C_1  and  C_2
REMARK    2  A    between atoms: C_2  and  C_3
REMARK    3  A    between atoms: C_3  and  C_4
REMARK    4  A    between atoms: C_4  and  C_5
REMARK    5  A    between atoms: C_5  and  C_6
REMARK    6  A    between atoms: C_6  and  C_7
REMARK    7  A    between atoms: C_7  and  C_8
REMARK    8  A    between atoms: C_8  and  C_9
REMARK    9  A    between atoms: C_9  and  C_10
REMARK   10  A    between atoms: C_10  and  C_11
REMARK   11  A    between atoms: C_11  and  O_12
REMARK   12  A    between atoms: O_12  and  P_13
REMARK                            x       y       z     vdW  Elec       q    Type
REMARK                         _______ _______ _______ _____ _____    ______ ____
ROOT
ATOM      1  O   UNL     1       7.490   7.447  17.090  0.00  0.00    +0.000 OA
ENDROOT
BRANCH   1   2
ATOM      2  P   UNL     1       6.612   6.211  17.648  0.00  0.00    +0.000 P 
ATOM      3  S   UNL     1       7.156   5.443  19.345  0.00  0.00    +0.000 S 
ATOM      4  O   UNL     1       6.720   5.242  16.361  0.00  0.00    +0.000 OA
ATOM      5  C   UNL     1       5.781   4.197  16.239  0.00  0.00    +0.000 C 
ATOM      6  C   UNL     1       4.452   4.448  16.899  0.00  0.00    +0.000 A 
ATOM      7  C   UNL     1       3.525   3.400  16.964  0.00  0.00    +0.000 A 
ATOM      8  C   UNL     1       2.307   3.571  17.619  0.00  0.00    +0.000 A 
ATOM      9  C   UNL     1       1.981   4.811  18.168  0.00  0.00    +0.000 A 
ATOM     10  C   UNL     1       2.882   5.877  18.082  0.00  0.00    +0.000 A 
ATOM     11  C   UNL     1       4.120   5.682  17.477  0.00  0.00    +0.000 A 
ATOM     12  O   UNL     1       5.061   6.690  17.519  0.00  0.00    +0.000 OA
ENDBRANCH   1   2
BRANCH   1  13
ATOM     13  C   UNL     1       7.413   8.742  17.655  0.00  0.00    +0.000 C 
BRANCH  13  14
ATOM     14  C   UNL     1       8.716   9.040  18.417  0.00  0.00    +0.000 C 
BRANCH  14  15
ATOM     15  C   UNL     1       8.974  10.549  18.448  0.00  0.00    +0.000 C 
BRANCH  15  16
ATOM     16  C   UNL     1       9.684  11.056  19.704  0.00  0.00    +0.000 C 
BRANCH  16  17
ATOM     17  C   UNL     1      11.091  11.538  19.323  0.00  0.00    +0.000 C 
BRANCH  17  18
ATOM     18  C   UNL     1      11.272  11.713  17.817  0.00  0.00    +0.000 C 
BRANCH  18  19
ATOM     19  C   UNL     1      10.847  13.122  17.381  0.00  0.00    +0.000 C 
BRANCH  19  20
ATOM     20  C   UNL     1      12.043  14.057  17.258  0.00  0.00    +0.000 C 
BRANCH  20  21
ATOM     21  C   UNL     1      12.333  14.766  18.581  0.00  0.00    +0.000 C 
BRANCH  21  23
ATOM     22  C   UNL     1      10.706  15.128  20.467  0.00  0.00    +0.000 C 
ATOM     23  C   UNL     1      11.120  15.556  19.068  0.00  0.00    +0.000 C 
ENDBRANCH  21  23
ENDBRANCH  20  21
ENDBRANCH  19  20
ENDBRANCH  18  19
ENDBRANCH  17  18
ENDBRANCH  16  17
ENDBRANCH  15  16
ENDBRANCH  14  15
ENDBRANCH  13  14
ENDBRANCH   1  13
TORSDOF 11
ENDMDL
MODEL 3
REMARK VINA RESULT:      -6.2      1.348      2.993
REMARK  Name = 
REMARK  12 active torsions:
REMARK  status: ('A' for Active; 'I' for Inactive)
REMARK    1  A    between atoms: C_1  and  C_2
REMARK    2  A    between atoms: C_2  and  C_3
REMARK    3  A    between atoms: C_3  and  C_4
REMARK    4  A    between atoms: C_4  and  C_5
REMARK    5  A    between atoms: C_5  and  C_6
REMARK    6  A    between atoms: C_6  and  C_7
REMARK    7  A    between atoms: C_7  and  C_8
REMARK    8  A    between atoms: C_8  and  C_9
REMARK    9  A    between atoms: C_9  and  C_10
REMARK   10  A    between atoms: C_10  and  C_11
REMARK   11  A    between atoms: C_11  and  O_12
REMARK   12  A    between atoms: O_12  and  P_13
REMARK                            x       y       z     vdW  Elec       q    Type
REMARK                         _______ _______ _______ _____ _____    ______ ____
ROOT
ATOM      1  O   UNL     1       7.895   8.135  17.145  0.00  0.00    +0.000 OA
ENDROOT
BRANCH   1   2
ATOM      2  P   UNL     1       7.158   6.749  17.528  0.00  0.00    +0.000 P 
ATOM      3  S   UNL     1       7.789   5.830  19.117  0.00  0.00    +0.000 S 
ATOM      4  O   UNL     1       7.367   5.974  16.128  0.00  0.00    +0.000 OA
ATOM      5  C   UNL     1       6.546   4.858  15.860  0.00  0.00    +0.000 C 
ATOM      6  C   UNL     1       5.201   4.876  16.534  0.00  0.00    +0.000 A 
ATOM      7  C   UNL     1       4.393   3.734  16.451  0.00  0.00    +0.000 A 
ATOM      8  C   UNL     1       3.166   3.685  17.110  0.00  0.00    +0.000 A 
ATOM      9  C   UNL     1       2.709   4.801  17.812  0.00  0.00    +0.000 A 
ATOM     10  C   UNL     1       3.488   5.960  17.875  0.00  0.00    +0.000 A 
ATOM     11  C   UNL     1       4.738   5.981  17.263  0.00  0.00    +0.000 A 
ATOM     12  O   UNL     1       5.564   7.071  17.447  0.00  0.00    +0.000 OA
ENDBRANCH   1   2
BRANCH   1  13
ATOM     13  C   UNL     1       7.842   9.274  17.984  0.00  0.00    +0.000 C 
BRANCH  13  14
ATOM     14  C   UNL     1       9.077  10.153  17.722  0.00  0.00    +0.000 C 
BRANCH  14  15
ATOM     15  C   UNL     1       9.167  11.261  18.776  0.00  0.00    +0.000 C 
BRANCH  15  16
ATOM     16  C   UNL     1       9.731  10.819  20.127  0.00  0.00    +0.000 C 
BRANCH  16  17
ATOM     17  C   UNL     1       9.857  12.047  21.041  0.00  0.00    +0.000 C 
BRANCH  17  18
ATOM     18  C   UNL     1      10.847  13.082  20.513  0.00  0.00    +0.000 C 
BRANCH  18  19
ATOM     19  C   UNL     1      10.260  14.496  20.619  0.00  0.00    +0.000 C 
BRANCH  19  20
ATOM     20  C   UNL     1      10.630  15.351  19.414  0.00  0.00    +0.000 C 
BRANCH  20  21
ATOM     21  C   UNL     1      10.135  14.722  18.112  0.00  0.00    +0.000 C 
BRANCH  21  23
ATOM     22  C   UNL     1      11.463  13.241  16.569  0.00  0.00    +0.000 C 
ATOM     23  C   UNL     1      11.244  14.662  17.064  0.00  0.00    +0.000 C 
ENDBRANCH  21  23
ENDBRANCH  20  21
ENDBRANCH  19  20
ENDBRANCH  18  19
ENDBRANCH  17  18
ENDBRANCH  16  17
ENDBRANCH  15  16
ENDBRANCH  14  15
ENDBRANCH  13  14
ENDBRANCH   1  13
TORSDOF 11
ENDMDL
MODEL 4
REMARK VINA RESULT:      -6.2      5.516      9.231
REMARK  Name = 
REMARK  12 active torsions:
REMARK  status: ('A' for Active; 'I' for Inactive)
REMARK    1  A    between atoms: C_1  and  C_2
REMARK    2  A    between atoms: C_2  and  C_3
REMARK    3  A    between atoms: C_3  and  C_4
REMARK    4  A    between atoms: C_4  and  C_5
REMARK    5  A    between atoms: C_5  and  C_6
REMARK    6  A    between atoms: C_6  and  C_7
REMARK    7  A    between atoms: C_7  and  C_8
REMARK    8  A    between atoms: C_8  and  C_9
REMARK    9  A    between atoms: C_9  and  C_10
REMARK   10  A    between atoms: C_10  and  C_11
REMARK   11  A    between atoms: C_11  and  O_12
REMARK   12  A    between atoms: O_12  and  P_13
REMARK                            x       y       z     vdW  Elec       q    Type
REMARK                         _______ _______ _______ _____ _____    ______ ____
ROOT
ATOM      1  O   UNL     1       5.287   6.677  16.949  0.00  0.00    +0.000 OA
ENDROOT
BRANCH   1   2
ATOM      2  P   UNL     1       4.011   6.315  17.873  0.00  0.00    +0.000 P 
ATOM      3  S   UNL     1       2.687   7.711  18.126  0.00  0.00    +0.000 S 
ATOM      4  O   UNL     1       4.803   5.837  19.196  0.00  0.00    +0.000 OA
ATOM      5  C   UNL     1       4.102   5.060  20.142  0.00  0.00    +0.000 C 
ATOM      6  C   UNL     1       2.974   4.236  19.586  0.00  0.00    +0.000 A 
ATOM      7  C   UNL     1       2.128   3.565  20.479  0.00  0.00    +0.000 A 
ATOM      8  C   UNL     1       1.034   2.840  20.009  0.00  0.00    +0.000 A 
ATOM      9  C   UNL     1       0.809   2.733  18.636  0.00  0.00    +0.000 A 
ATOM     10  C   UNL     1       1.664   3.368  17.732  0.00  0.00    +0.000 A 
ATOM     11  C   UNL     1       2.719   4.138  18.210  0.00  0.00    +0.000 A 
ATOM     12  O   UNL     1       3.473   4.879  17.323  0.00  0.00    +0.000 OA
ENDBRANCH   1   2
BRANCH   1  13
ATOM     13  C   UNL     1       6.562   6.105  17.168  0.00  0.00    +0.000 C 
BRANCH  13  14
ATOM     14  C   UNL     1       6.876   5.118  16.030  0.00  0.00    +0.000 C 
BRANCH  14  15
ATOM     15  C   UNL     1       5.787   5.191  14.956  0.00  0.00    +0.000 C 
BRANCH  15  16
ATOM     16  C   UNL     1       5.768   4.016  13.977  0.00  0.00    +0.000 C 
BRANCH  16  17
ATOM     17  C   UNL     1       7.003   4.101  13.070  0.00  0.00    +0.000 C 
BRANCH  17  18
ATOM     18  C   UNL     1       6.713   3.684  11.629  0.00  0.00    +0.000 C 
BRANCH  18  19
ATOM     19  C   UNL     1       6.250   2.222  11.573  0.00  0.00    +0.000 C 
BRANCH  19  20
ATOM     20  C   UNL     1       4.809   2.108  11.091  0.00  0.00    +0.000 C 
BRANCH  20  21
ATOM     21  C   UNL     1       4.123   3.474  11.057  0.00  0.00    +0.000 C 
BRANCH  21  23
ATOM     22  C   UNL     1       2.717   4.679   9.353  0.00  0.00    +0.000 C 
ATOM     23  C   UNL     1       2.847   3.436  10.219  0.00  0.00    +0.000 C 
ENDBRANCH  21  23
ENDBRANCH  20  21
ENDBRANCH  19  20
ENDBRANCH  18  19
ENDBRANCH  17  18
ENDBRANCH  16  17
ENDBRANCH  15  16
ENDBRANCH  14  15
ENDBRANCH  13  14
ENDBRANCH   1  13
TORSDOF 11
ENDMDL
MODEL 5
REMARK VINA RESULT:      -6.2      2.297      3.357
REMARK  Name = 
REMARK  12 active torsions:
REMARK  status: ('A' for Active; 'I' for Inactive)
REMARK    1  A    between atoms: C_1  and  C_2
REMARK    2  A    between atoms: C_2  and  C_3
REMARK    3  A    between atoms: C_3  and  C_4
REMARK    4  A    between atoms: C_4  and  C_5
REMARK    5  A    between atoms: C_5  and  C_6
REMARK    6  A    between atoms: C_6  and  C_7
REMARK    7  A    between atoms: C_7  and  C_8
REMARK    8  A    between atoms: C_8  and  C_9
REMARK    9  A    between atoms: C_9  and  C_10
REMARK   10  A    between atoms: C_10  and  C_11
REMARK   11  A    between atoms: C_11  and  O_12
REMARK   12  A    between atoms: O_12  and  P_13
REMARK                            x       y       z     vdW  Elec       q    Type
REMARK                         _______ _______ _______ _____ _____    ______ ____
ROOT
ATOM      1  O   UNL     1       7.565   6.727  18.161  0.00  0.00    +0.000 OA
ENDROOT
BRANCH   1   2
ATOM      2  P   UNL     1       6.427   5.725  17.601  0.00  0.00    +0.000 P 
ATOM      3  S   UNL     1       6.867   4.699  16.013  0.00  0.00    +0.000 S 
ATOM      4  O   UNL     1       5.225   6.791  17.450  0.00  0.00    +0.000 OA
ATOM      5  C   UNL     1       3.908   6.294  17.354  0.00  0.00    +0.000 C 
ATOM      6  C   UNL     1       3.675   4.965  18.019  0.00  0.00    +0.000 A 
ATOM      7  C   UNL     1       2.441   4.327  17.833  0.00  0.00    +0.000 A 
ATOM      8  C   UNL     1       2.205   3.068  18.380  0.00  0.00    +0.000 A 
ATOM      9  C   UNL     1       3.181   2.459  19.169  0.00  0.00    +0.000 A 
ATOM     10  C   UNL     1       4.404   3.097  19.393  0.00  0.00    +0.000 A 
ATOM     11  C   UNL     1       4.655   4.328  18.795  0.00  0.00    +0.000 A 
ATOM     12  O   UNL     1       5.911   4.889  18.900  0.00  0.00    +0.000 OA
ENDBRANCH   1   2
BRANCH   1  13
ATOM     13  C   UNL     1       7.824   7.983  17.562  0.00  0.00    +0.000 C 
BRANCH  13  14
ATOM     14  C   UNL     1       8.589   8.871  18.560  0.00  0.00    +0.000 C 
BRANCH  14  15
ATOM     15  C   UNL     1       8.610  10.320  18.065  0.00  0.00    +0.000 C 
BRANCH  15  16
ATOM     16  C   UNL     1       9.891  11.091  18.386  0.00  0.00    +0.000 C 
BRANCH  16  17
ATOM     17  C   UNL     1      10.046  11.190  19.910  0.00  0.00    +0.000 C 
BRANCH  17  18
ATOM     18  C   UNL     1      11.213  12.080  20.333  0.00  0.00    +0.000 C 
BRANCH  18  19
ATOM     19  C   UNL     1      11.733  12.894  19.141  0.00  0.00    +0.000 C 
BRANCH  19  20
ATOM     20  C   UNL     1      12.091  14.319  19.546  0.00  0.00    +0.000 C 
BRANCH  20  21
ATOM     21  C   UNL     1      11.443  15.342  18.613  0.00  0.00    +0.000 C 
BRANCH  21  23
ATOM     22  C   UNL     1       9.052  15.695  17.909  0.00  0.00    +0.000 C 
ATOM     23  C   UNL     1      10.241  14.747  17.882  0.00  0.00    +0.000 C 
ENDBRANCH  21  23
ENDBRANCH  20  21
ENDBRANCH  19  20
ENDBRANCH  18  19
ENDBRANCH  17  18
ENDBRANCH  16  17
ENDBRANCH  15  16
ENDBRANCH  14  15
ENDBRANCH  13  14
ENDBRANCH   1  13
TORSDOF 11
ENDMDL
MODEL 6
REMARK VINA RESULT:      -6.0      1.549      1.756
REMARK  Name = 
REMARK  12 active torsions:
REMARK  status: ('A' for Active; 'I' for Inactive)
REMARK    1  A    between atoms: C_1  and  C_2
REMARK    2  A    between atoms: C_2  and  C_3
REMARK    3  A    between atoms: C_3  and  C_4
REMARK    4  A    between atoms: C_4  and  C_5
REMARK    5  A    between atoms: C_5  and  C_6
REMARK    6  A    between atoms: C_6  and  C_7
REMARK    7  A    between atoms: C_7  and  C_8
REMARK    8  A    between atoms: C_8  and  C_9
REMARK    9  A    between atoms: C_9  and  C_10
REMARK   10  A    between atoms: C_10  and  C_11
REMARK   11  A    between atoms: C_11  and  O_12
REMARK   12  A    between atoms: O_12  and  P_13
REMARK                            x       y       z     vdW  Elec       q    Type
REMARK                         _______ _______ _______ _____ _____    ______ ____
ROOT
ATOM      1  O   UNL     1       7.747   8.220  17.274  0.00  0.00    +0.000 OA
ENDROOT
BRANCH   1   2
ATOM      2  P   UNL     1       7.063   6.791  17.589  0.00  0.00    +0.000 P 
ATOM      3  S   UNL     1       7.740   5.814  19.123  0.00  0.00    +0.000 S 
ATOM      4  O   UNL     1       7.286   6.097  16.148  0.00  0.00    +0.000 OA
ATOM      5  C   UNL     1       6.503   4.969  15.829  0.00  0.00    +0.000 C 
ATOM      6  C   UNL     1       5.164   4.904  16.511  0.00  0.00    +0.000 A 
ATOM      7  C   UNL     1       4.396   3.740  16.375  0.00  0.00    +0.000 A 
ATOM      8  C   UNL     1       3.177   3.613  17.039  0.00  0.00    +0.000 A 
ATOM      9  C   UNL     1       2.688   4.674  17.801  0.00  0.00    +0.000 A 
ATOM     10  C   UNL     1       3.426   5.855  17.919  0.00  0.00    +0.000 A 
ATOM     11  C   UNL     1       4.669   5.952  17.301  0.00  0.00    +0.000 A 
ATOM     12  O   UNL     1       5.457   7.059  17.535  0.00  0.00    +0.000 OA
ENDBRANCH   1   2
BRANCH   1  13
ATOM     13  C   UNL     1       8.529   8.909  18.232  0.00  0.00    +0.000 C 
BRANCH  13  14
ATOM     14  C   UNL     1       8.595  10.399  17.854  0.00  0.00    +0.000 C 
BRANCH  14  15
ATOM     15  C   UNL     1       9.616  11.121  18.739  0.00  0.00    +0.000 C 
BRANCH  15  16
ATOM     16  C   UNL     1      10.906  11.535  18.028  0.00  0.00    +0.000 C 
BRANCH  16  17
ATOM     17  C   UNL     1      10.635  12.797  17.197  0.00  0.00    +0.000 C 
BRANCH  17  18
ATOM     18  C   UNL     1      10.273  14.008  18.055  0.00  0.00    +0.000 C 
BRANCH  18  19
ATOM     19  C   UNL     1      11.425  14.361  19.006  0.00  0.00    +0.000 C 
BRANCH  19  20
ATOM     20  C   UNL     1      10.962  14.409  20.457  0.00  0.00    +0.000 C 
BRANCH  20  21
ATOM     21  C   UNL     1       9.439  14.337  20.557  0.00  0.00    +0.000 C 
BRANCH  21  23
ATOM     22  C   UNL     1      10.082  15.532  22.677  0.00  0.00    +0.000 C 
ATOM     23  C   UNL     1       8.934  14.977  21.848  0.00  0.00    +0.000 C 
ENDBRANCH  21  23
ENDBRANCH  20  21
ENDBRANCH  19  20
ENDBRANCH  18  19
ENDBRANCH  17  18
ENDBRANCH  16  17
ENDBRANCH  15  16
ENDBRANCH  14  15
ENDBRANCH  13  14
ENDBRANCH   1  13
TORSDOF 11
ENDMDL
MODEL 7
REMARK VINA RESULT:      -6.0      2.234      3.280
REMARK  Name = 
REMARK  12 active torsions:
REMARK  status: ('A' for Active; 'I' for Inactive)
REMARK    1  A    between atoms: C_1  and  C_2
REMARK    2  A    between atoms: C_2  and  C_3
REMARK    3  A    between atoms: C_3  and  C_4
REMARK    4  A    between atoms: C_4  and  C_5
REMARK    5  A    between atoms: C_5  and  C_6
REMARK    6  A    between atoms: C_6  and  C_7
REMARK    7  A    between atoms: C_7  and  C_8
REMARK    8  A    between atoms: C_8  and  C_9
REMARK    9  A    between atoms: C_9  and  C_10
REMARK   10  A    between atoms: C_10  and  C_11
REMARK   11  A    between atoms: C_11  and  O_12
REMARK   12  A    between atoms: O_12  and  P_13
REMARK                            x       y       z     vdW  Elec       q    Type
REMARK                         _______ _______ _______ _____ _____    ______ ____
ROOT
ATOM      1  O   UNL     1       6.217   6.371  18.648  0.00  0.00    +0.000 OA
ENDROOT
BRANCH   1   2
ATOM      2  P   UNL     1       5.105   5.357  18.059  0.00  0.00    +0.000 P 
ATOM      3  S   UNL     1       5.542   4.440  16.405  0.00  0.00    +0.000 S 
ATOM      4  O   UNL     1       3.858   6.381  17.997  0.00  0.00    +0.000 OA
ATOM      5  C   UNL     1       2.560   5.837  17.905  0.00  0.00    +0.000 C 
ATOM      6  C   UNL     1       2.395   4.465  18.498  0.00  0.00    +0.000 A 
ATOM      7  C   UNL     1       1.183   3.789  18.305  0.00  0.00    +0.000 A 
ATOM      8  C   UNL     1       1.010   2.493  18.785  0.00  0.00    +0.000 A 
ATOM      9  C   UNL     1       2.029   1.880  19.514  0.00  0.00    +0.000 A 
ATOM     10  C   UNL     1       3.232   2.554  19.745  0.00  0.00    +0.000 A 
ATOM     11  C   UNL     1       3.419   3.825  19.213  0.00  0.00    +0.000 A 
ATOM     12  O   UNL     1       4.655   4.429  19.319  0.00  0.00    +0.000 OA
ENDBRANCH   1   2
BRANCH   1  13
ATOM     13  C   UNL     1       7.572   6.322  18.242  0.00  0.00    +0.000 C 
BRANCH  13  14
ATOM     14  C   UNL     1       7.827   7.424  17.199  0.00  0.00    +0.000 C 
BRANCH  14  15
ATOM     15  C   UNL     1       7.622   8.803  17.831  0.00  0.00    +0.000 C 
BRANCH  15  16
ATOM     16  C   UNL     1       8.821   9.336  18.618  0.00  0.00    +0.000 C 
BRANCH  16  17
ATOM     17  C   UNL     1       9.020  10.821  18.281  0.00  0.00    +0.000 C 
BRANCH  17  18
ATOM     18  C   UNL     1      10.453  11.296  18.513  0.00  0.00    +0.000 C 
BRANCH  18  19
ATOM     19  C   UNL     1      10.663  11.680  19.984  0.00  0.00    +0.000 C 
BRANCH  19  20
ATOM     20  C   UNL     1      11.165  13.112  20.126  0.00  0.00    +0.000 C 
BRANCH  20  21
ATOM     21  C   UNL     1      10.336  13.893  21.145  0.00  0.00    +0.000 C 
BRANCH  21  23
ATOM     22  C   UNL     1       7.921  14.310  20.571  0.00  0.00    +0.000 C 
ATOM     23  C   UNL     1       8.908  13.359  21.229  0.00  0.00    +0.000 C 
ENDBRANCH  21  23
ENDBRANCH  20  21
ENDBRANCH  19  20
ENDBRANCH  18  19
ENDBRANCH  17  18
ENDBRANCH  16  17
ENDBRANCH  15  16
ENDBRANCH  14  15
ENDBRANCH  13  14
ENDBRANCH   1  13
TORSDOF 11
ENDMDL
MODEL 8
REMARK VINA RESULT:      -6.0      6.258     10.007
REMARK  Name = 
REMARK  12 active torsions:
REMARK  status: ('A' for Active; 'I' for Inactive)
REMARK    1  A    between atoms: C_1  and  C_2
REMARK    2  A    between atoms: C_2  and  C_3
REMARK    3  A    between atoms: C_3  and  C_4
REMARK    4  A    between atoms: C_4  and  C_5
REMARK    5  A    between atoms: C_5  and  C_6
REMARK    6  A    between atoms: C_6  and  C_7
REMARK    7  A    between atoms: C_7  and  C_8
REMARK    8  A    between atoms: C_8  and  C_9
REMARK    9  A    between atoms: C_9  and  C_10
REMARK   10  A    between atoms: C_10  and  C_11
REMARK   11  A    between atoms: C_11  and  O_12
REMARK   12  A    between atoms: O_12  and  P_13
REMARK                            x       y       z     vdW  Elec       q    Type
REMARK                         _______ _______ _______ _____ _____    ______ ____
ROOT
ATOM      1  O   UNL     1       0.967   9.321  18.671  0.00  0.00    +0.000 OA
ENDROOT
BRANCH   1   2
ATOM      2  P   UNL     1       0.684  10.779  19.308  0.00  0.00    +0.000 P 
ATOM      3  S   UNL     1       0.464  10.866  21.234  0.00  0.00    +0.000 S 
ATOM      4  O   UNL     1      -0.607  11.178  18.426  0.00  0.00    +0.000 OA
ATOM      5  C   UNL     1      -0.972  12.539  18.365  0.00  0.00    +0.000 C 
ATOM      6  C   UNL     1       0.157  13.515  18.556  0.00  0.00    +0.000 A 
ATOM      7  C   UNL     1      -0.145  14.878  18.672  0.00  0.00    +0.000 A 
ATOM      8  C   UNL     1       0.864  15.809  18.910  0.00  0.00    +0.000 A 
ATOM      9  C   UNL     1       2.194  15.392  18.978  0.00  0.00    +0.000 A 
ATOM     10  C   UNL     1       2.515  14.039  18.830  0.00  0.00    +0.000 A 
ATOM     11  C   UNL     1       1.496  13.108  18.651  0.00  0.00    +0.000 A 
ATOM     12  O   UNL     1       1.802  11.763  18.648  0.00  0.00    +0.000 OA
ENDBRANCH   1   2
BRANCH   1  13
ATOM     13  C   UNL     1       2.177   9.011  18.005  0.00  0.00    +0.000 C 
BRANCH  13  14
ATOM     14  C   UNL     1       2.268   7.488  17.803  0.00  0.00    +0.000 C 
BRANCH  14  15
ATOM     15  C   UNL     1       2.807   6.821  19.072  0.00  0.00    +0.000 C 
BRANCH  15  16
ATOM     16  C   UNL     1       3.928   5.807  18.839  0.00  0.00    +0.000 C 
BRANCH  16  17
ATOM     17  C   UNL     1       3.572   4.938  17.625  0.00  0.00    +0.000 C 
BRANCH  17  18
ATOM     18  C   UNL     1       3.840   3.452  17.858  0.00  0.00    +0.000 C 
BRANCH  18  19
ATOM     19  C   UNL     1       2.545   2.640  17.716  0.00  0.00    +0.000 C 
BRANCH  19  20
ATOM     20  C   UNL     1       1.326   3.446  18.147  0.00  0.00    +0.000 C 
BRANCH  20  21
ATOM     21  C   UNL     1       0.764   2.937  19.474  0.00  0.00    +0.000 C 
BRANCH  21  23
ATOM     22  C   UNL     1       2.251   3.110  21.497  0.00  0.00    +0.000 C 
ATOM     23  C   UNL     1       1.210   3.814  20.642  0.00  0.00    +0.000 C 
ENDBRANCH  21  23
ENDBRANCH  20  21
ENDBRANCH  19  20
ENDBRANCH  18  19
ENDBRANCH  17  18
ENDBRANCH  16  17
ENDBRANCH  15  16
ENDBRANCH  14  15
ENDBRANCH  13  14
ENDBRANCH   1  13
TORSDOF 11
ENDMDL
MODEL 9
REMARK VINA RESULT:      -6.0      0.709      1.059
REMARK  Name = 
REMARK  12 active torsions:
REMARK  status: ('A' for Active; 'I' for Inactive)
REMARK    1  A    between atoms: C_1  and  C_2
REMARK    2  A    between atoms: C_2  and  C_3
REMARK    3  A    between atoms: C_3  and  C_4
REMARK    4  A    between atoms: C_4  and  C_5
REMARK    5  A    between atoms: C_5  and  C_6
REMARK    6  A    between atoms: C_6  and  C_7
REMARK    7  A    between atoms: C_7  and  C_8
REMARK    8  A    between atoms: C_8  and  C_9
REMARK    9  A    between atoms: C_9  and  C_10
REMARK   10  A    between atoms: C_10  and  C_11
REMARK   11  A    between atoms: C_11  and  O_12
REMARK   12  A    between atoms: O_12  and  P_13
REMARK                            x       y       z     vdW  Elec       q    Type
REMARK                         _______ _______ _______ _____ _____    ______ ____
ROOT
ATOM      1  O   UNL     1       8.043   8.049  17.155  0.00  0.00    +0.000 OA
ENDROOT
BRANCH   1   2
ATOM      2  P   UNL     1       7.218   6.724  17.571  0.00  0.00    +0.000 P 
ATOM      3  S   UNL     1       7.806   5.791  19.169  0.00  0.00    +0.000 S 
ATOM      4  O   UNL     1       7.354   5.912  16.183  0.00  0.00    +0.000 OA
ATOM      5  C   UNL     1       6.455   4.851  15.946  0.00  0.00    +0.000 C 
ATOM      6  C   UNL     1       5.124   4.973  16.635  0.00  0.00    +0.000 A 
ATOM      7  C   UNL     1       4.238   3.888  16.583  0.00  0.00    +0.000 A 
ATOM      8  C   UNL     1       3.020   3.935  17.258  0.00  0.00    +0.000 A 
ATOM      9  C   UNL     1       2.650   5.092  17.945  0.00  0.00    +0.000 A 
ATOM     10  C   UNL     1       3.508   6.195  17.977  0.00  0.00    +0.000 A 
ATOM     11  C   UNL     1       4.747   6.120  17.350  0.00  0.00    +0.000 A 
ATOM     12  O   UNL     1       5.649   7.153  17.504  0.00  0.00    +0.000 OA
ENDBRANCH   1   2
BRANCH   1  13
ATOM     13  C   UNL     1       7.756   9.320  17.707  0.00  0.00    +0.000 C 
BRANCH  13  14
ATOM     14  C   UNL     1       8.895   9.727  18.659  0.00  0.00    +0.000 C 
BRANCH  14  15
ATOM     15  C   UNL     1       9.785  10.780  17.993  0.00  0.00    +0.000 C 
BRANCH  15  16
ATOM     16  C   UNL     1      10.389  11.811  18.949  0.00  0.00    +0.000 C 
BRANCH  16  17
ATOM     17  C   UNL     1       9.531  11.874  20.221  0.00  0.00    +0.000 C 
BRANCH  17  18
ATOM     18  C   UNL     1       9.715  13.176  20.998  0.00  0.00    +0.000 C 
BRANCH  18  19
ATOM     19  C   UNL     1       9.285  12.998  22.461  0.00  0.00    +0.000 C 
BRANCH  19  20
ATOM     20  C   UNL     1       8.080  12.075  22.584  0.00  0.00    +0.000 C 
BRANCH  20  21
ATOM     21  C   UNL     1       7.952  11.514  24.000  0.00  0.00    +0.000 C 
BRANCH  21  23
ATOM     22  C   UNL     1       8.052  13.056  25.987  0.00  0.00    +0.000 C 
ATOM     23  C   UNL     1       7.165  12.459  24.905  0.00  0.00    +0.000 C 
ENDBRANCH  21  23
ENDBRANCH  20  21
ENDBRANCH  19  20
ENDBRANCH  18  19
ENDBRANCH  17  18
ENDBRANCH  16  17
ENDBRANCH  15  16
ENDBRANCH  14  15
ENDBRANCH  13  14
ENDBRANCH   1  13
TORSDOF 11
ENDMDL
