MODEL 1
REMARK VINA RESULT:      -7.5      0.000      0.000
REMARK  Name = 
REMARK  2 active torsions:
REMARK  status: ('A' for Active; 'I' for Inactive)
REMARK    1  A    between atoms: C_1  and  C_2
REMARK    2  A    between atoms: C_7  and  O_8
REMARK                            x       y       z     vdW  Elec       q    Type
REMARK                         _______ _______ _______ _____ _____    ______ ____
ROOT
ATOM      1  C   UNL     1       6.812   4.838  14.423  0.00  0.00    +0.000 C 
ATOM      2  C   UNL     1       5.811   5.115  15.510  0.00  0.00    +0.000 A 
ATOM      3  C   UNL     1       5.441   6.430  15.819  0.00  0.00    +0.000 A 
ATOM      4  C   UNL     1       4.509   6.689  16.829  0.00  0.00    +0.000 A 
ATOM      5  C   UNL     1       3.933   5.631  17.546  0.00  0.00    +0.000 A 
ATOM      6  C   UNL     1       4.297   4.305  17.244  0.00  0.00    +0.000 A 
ATOM      7  C   UNL     1       5.233   4.059  16.227  0.00  0.00    +0.000 A 
ATOM      8  C   UNL     1       3.697   3.168  17.994  0.00  0.00    +0.000 C 
ATOM      9  O   UNL     1       4.039   2.023  17.705  0.00  0.00    +0.000 OA
ATOM     10  C   UNL     1       2.749   3.524  19.017  0.00  0.00    +0.000 A 
ATOM     11  S   UNL     1       1.972   2.349  19.967  0.00  0.00    +0.000 S 
ATOM     12  C   UNL     1       1.108   3.549  20.829  0.00  0.00    +0.000 A 
ATOM     13  C   UNL     1       1.414   4.820  20.391  0.00  0.00    +0.000 A 
ATOM     14  C   UNL     1       2.374   4.810  19.331  0.00  0.00    +0.000 A 
ATOM     15  C   UNL     1       2.940   5.947  18.619  0.00  0.00    +0.000 C 
ATOM     16  O   UNL     1       2.630   7.104  18.872  0.00  0.00    +0.000 OA
ENDROOT
BRANCH   7  17
ATOM     17  O   UNL     1       5.631   2.791  15.881  0.00  0.00    +0.000 OA
ATOM     18  H   UNL     1       5.702   2.239  16.692  0.00  0.00    +0.000 HD
ENDBRANCH   7  17
TORSDOF 1
ENDMDL
MODEL 2
REMARK VINA RESULT:      -7.1      1.767      4.836
REMARK  Name = 
REMARK  2 active torsions:
REMARK  status: ('A' for Active; 'I' for Inactive)
REMARK    1  A    between atoms: C_1  and  C_2
REMARK    2  A    between atoms: C_7  and  O_8
REMARK                            x       y       z     vdW  Elec       q    Type
REMARK                         _______ _______ _______ _____ _____    ______ ____
ROOT
ATOM      1  C   UNL     1       1.173   2.865  21.581  0.00  0.00    +0.000 C 
ATOM      2  C   UNL     1       1.852   3.757  20.581  0.00  0.00    +0.000 A 
ATOM      3  C   UNL     1       1.690   5.147  20.641  0.00  0.00    +0.000 A 
ATOM      4  C   UNL     1       2.322   5.979  19.712  0.00  0.00    +0.000 A 
ATOM      5  C   UNL     1       3.128   5.428  18.705  0.00  0.00    +0.000 A 
ATOM      6  C   UNL     1       3.298   4.033  18.635  0.00  0.00    +0.000 A 
ATOM      7  C   UNL     1       2.658   3.209  19.574  0.00  0.00    +0.000 A 
ATOM      8  C   UNL     1       4.148   3.429  17.573  0.00  0.00    +0.000 C 
ATOM      9  O   UNL     1       4.274   2.206  17.540  0.00  0.00    +0.000 OA
ATOM     10  C   UNL     1       4.760   4.355  16.657  0.00  0.00    +0.000 A 
ATOM     11  S   UNL     1       5.760   3.834  15.387  0.00  0.00    +0.000 S 
ATOM     12  C   UNL     1       6.020   5.443  14.867  0.00  0.00    +0.000 A 
ATOM     13  C   UNL     1       5.351   6.356  15.656  0.00  0.00    +0.000 A 
ATOM     14  C   UNL     1       4.612   5.723  16.705  0.00  0.00    +0.000 A 
ATOM     15  C   UNL     1       3.788   6.349  17.729  0.00  0.00    +0.000 C 
ATOM     16  O   UNL     1       3.633   7.561  17.800  0.00  0.00    +0.000 OA
ENDROOT
BRANCH   7  17
ATOM     17  O   UNL     1       2.782   1.842  19.564  0.00  0.00    +0.000 OA
ATOM     18  H   UNL     1       2.646   1.509  18.648  0.00  0.00    +0.000 HD
ENDBRANCH   7  17
TORSDOF 1
ENDMDL
MODEL 3
REMARK VINA RESULT:      -6.6      2.291      5.020
REMARK  Name = 
REMARK  2 active torsions:
REMARK  status: ('A' for Active; 'I' for Inactive)
REMARK    1  A    between atoms: C_1  and  C_2
REMARK    2  A    between atoms: C_7  and  O_8
REMARK                            x       y       z     vdW  Elec       q    Type
REMARK                         _______ _______ _______ _____ _____    ______ ____
ROOT
ATOM      1  C   UNL     1       1.140   2.654  21.801  0.00  0.00    +0.000 C 
ATOM      2  C   UNL     1       1.803   3.636  20.876  0.00  0.00    +0.000 A 
ATOM      3  C   UNL     1       1.148   4.817  20.503  0.00  0.00    +0.000 A 
ATOM      4  C   UNL     1       1.764   5.732  19.643  0.00  0.00    +0.000 A 
ATOM      5  C   UNL     1       3.048   5.475  19.143  0.00  0.00    +0.000 A 
ATOM      6  C   UNL     1       3.716   4.292  19.511  0.00  0.00    +0.000 A 
ATOM      7  C   UNL     1       3.087   3.382  20.376  0.00  0.00    +0.000 A 
ATOM      8  C   UNL     1       5.080   4.002  18.990  0.00  0.00    +0.000 C 
ATOM      9  O   UNL     1       5.634   2.958  19.331  0.00  0.00    +0.000 OA
ATOM     10  C   UNL     1       5.639   4.995  18.111  0.00  0.00    +0.000 A 
ATOM     11  S   UNL     1       7.185   4.820  17.427  0.00  0.00    +0.000 S 
ATOM     12  C   UNL     1       7.043   6.315  16.608  0.00  0.00    +0.000 A 
ATOM     13  C   UNL     1       5.835   6.930  16.858  0.00  0.00    +0.000 A 
ATOM     14  C   UNL     1       5.009   6.160  17.737  0.00  0.00    +0.000 A 
ATOM     15  C   UNL     1       3.675   6.478  18.226  0.00  0.00    +0.000 C 
ATOM     16  O   UNL     1       3.086   7.503  17.914  0.00  0.00    +0.000 OA
ENDROOT
BRANCH   7  17
ATOM     17  O   UNL     1       3.681   2.211  20.775  0.00  0.00    +0.000 OA
ATOM     18  H   UNL     1       4.587   2.158  20.393  0.00  0.00    +0.000 HD
ENDBRANCH   7  17
TORSDOF 1
ENDMDL
MODEL 4
REMARK VINA RESULT:      -6.3      1.431      1.693
REMARK  Name = 
REMARK  2 active torsions:
REMARK  status: ('A' for Active; 'I' for Inactive)
REMARK    1  A    between atoms: C_1  and  C_2
REMARK    2  A    between atoms: C_7  and  O_8
REMARK                            x       y       z     vdW  Elec       q    Type
REMARK                         _______ _______ _______ _____ _____    ______ ____
ROOT
ATOM      1  C   UNL     1       6.327   3.756  14.631  0.00  0.00    +0.000 C 
ATOM      2  C   UNL     1       5.531   4.673  15.516  0.00  0.00    +0.000 A 
ATOM      3  C   UNL     1       5.435   6.039  15.223  0.00  0.00    +0.000 A 
ATOM      4  C   UNL     1       4.694   6.894  16.044  0.00  0.00    +0.000 A 
ATOM      5  C   UNL     1       4.037   6.390  17.176  0.00  0.00    +0.000 A 
ATOM      6  C   UNL     1       4.126   5.019  17.481  0.00  0.00    +0.000 A 
ATOM      7  C   UNL     1       4.872   4.171  16.647  0.00  0.00    +0.000 A 
ATOM      8  C   UNL     1       3.436   4.465  18.678  0.00  0.00    +0.000 C 
ATOM      9  O   UNL     1       3.536   3.262  18.914  0.00  0.00    +0.000 OA
ATOM     10  C   UNL     1       2.696   5.413  19.469  0.00  0.00    +0.000 A 
ATOM     11  S   UNL     1       1.852   4.949  20.868  0.00  0.00    +0.000 S 
ATOM     12  C   UNL     1       1.321   6.553  21.138  0.00  0.00    +0.000 A 
ATOM     13  C   UNL     1       1.785   7.421  20.171  0.00  0.00    +0.000 A 
ATOM     14  C   UNL     1       2.591   6.758  19.193  0.00  0.00    +0.000 A 
ATOM     15  C   UNL     1       3.253   7.335  18.031  0.00  0.00    +0.000 C 
ATOM     16  O   UNL     1       3.182   8.525  17.756  0.00  0.00    +0.000 OA
ENDROOT
BRANCH   7  17
ATOM     17  O   UNL     1       5.000   2.825  16.885  0.00  0.00    +0.000 OA
ATOM     18  H   UNL     1       4.298   2.340  16.394  0.00  0.00    +0.000 HD
ENDBRANCH   7  17
TORSDOF 1
ENDMDL
MODEL 5
REMARK VINA RESULT:      -6.2      2.696      4.686
REMARK  Name = 
REMARK  2 active torsions:
REMARK  status: ('A' for Active; 'I' for Inactive)
REMARK    1  A    between atoms: C_1  and  C_2
REMARK    2  A    between atoms: C_7  and  O_8
REMARK                            x       y       z     vdW  Elec       q    Type
REMARK                         _______ _______ _______ _____ _____    ______ ____
ROOT
ATOM      1  C   UNL     1       0.784   2.163  19.078  0.00  0.00    +0.000 C 
ATOM      2  C   UNL     1       1.681   3.291  18.651  0.00  0.00    +0.000 A 
ATOM      3  C   UNL     1       1.175   4.356  17.894  0.00  0.00    +0.000 A 
ATOM      4  C   UNL     1       2.007   5.407  17.497  0.00  0.00    +0.000 A 
ATOM      5  C   UNL     1       3.363   5.405  17.852  0.00  0.00    +0.000 A 
ATOM      6  C   UNL     1       3.883   4.342  18.612  0.00  0.00    +0.000 A 
ATOM      7  C   UNL     1       3.037   3.293  19.006  0.00  0.00    +0.000 A 
ATOM      8  C   UNL     1       5.321   4.321  18.998  0.00  0.00    +0.000 C 
ATOM      9  O   UNL     1       5.742   3.375  19.662  0.00  0.00    +0.000 OA
ATOM     10  C   UNL     1       6.106   5.440  18.548  0.00  0.00    +0.000 A 
ATOM     11  S   UNL     1       7.762   5.574  18.900  0.00  0.00    +0.000 S 
ATOM     12  C   UNL     1       7.870   7.060  18.059  0.00  0.00    +0.000 A 
ATOM     13  C   UNL     1       6.658   7.440  17.523  0.00  0.00    +0.000 A 
ATOM     14  C   UNL     1       5.622   6.494  17.806  0.00  0.00    +0.000 A 
ATOM     15  C   UNL     1       4.223   6.547  17.409  0.00  0.00    +0.000 C 
ATOM     16  O   UNL     1       3.759   7.468  16.749  0.00  0.00    +0.000 OA
ENDROOT
BRANCH   7  17
ATOM     17  O   UNL     1       3.478   2.226  19.748  0.00  0.00    +0.000 OA
ATOM     18  H   UNL     1       2.753   1.917  20.338  0.00  0.00    +0.000 HD
ENDBRANCH   7  17
TORSDOF 1
ENDMDL
MODEL 6
REMARK VINA RESULT:      -6.2      1.561      1.561
REMARK  Name = 
REMARK  2 active torsions:
REMARK  status: ('A' for Active; 'I' for Inactive)
REMARK    1  A    between atoms: C_1  and  C_2
REMARK    2  A    between atoms: C_7  and  O_8
REMARK                            x       y       z     vdW  Elec       q    Type
REMARK                         _______ _______ _______ _____ _____    ______ ____
ROOT
ATOM      1  C   UNL     1       7.658   6.104  16.386  0.00  0.00    +0.000 C 
ATOM      2  C   UNL     1       6.317   6.017  17.059  0.00  0.00    +0.000 A 
ATOM      3  C   UNL     1       5.349   7.008  16.848  0.00  0.00    +0.000 A 
ATOM      4  C   UNL     1       4.100   6.928  17.472  0.00  0.00    +0.000 A 
ATOM      5  C   UNL     1       3.803   5.851  18.319  0.00  0.00    +0.000 A 
ATOM      6  C   UNL     1       4.767   4.850  18.538  0.00  0.00    +0.000 A 
ATOM      7  C   UNL     1       6.017   4.941  17.905  0.00  0.00    +0.000 A 
ATOM      8  C   UNL     1       4.470   3.699  19.434  0.00  0.00    +0.000 C 
ATOM      9  O   UNL     1       5.336   2.842  19.604  0.00  0.00    +0.000 OA
ATOM     10  C   UNL     1       3.163   3.695  20.036  0.00  0.00    +0.000 A 
ATOM     11  S   UNL     1       2.662   2.456  21.086  0.00  0.00    +0.000 S 
ATOM     12  C   UNL     1       1.131   3.191  21.299  0.00  0.00    +0.000 A 
ATOM     13  C   UNL     1       1.014   4.360  20.578  0.00  0.00    +0.000 A 
ATOM     14  C   UNL     1       2.201   4.660  19.838  0.00  0.00    +0.000 A 
ATOM     15  C   UNL     1       2.456   5.799  18.969  0.00  0.00    +0.000 C 
ATOM     16  O   UNL     1       1.625   6.676  18.771  0.00  0.00    +0.000 OA
ENDROOT
BRANCH   7  17
ATOM     17  O   UNL     1       7.001   4.000  18.073  0.00  0.00    +0.000 OA
ATOM     18  H   UNL     1       7.375   4.078  18.981  0.00  0.00    +0.000 HD
ENDBRANCH   7  17
TORSDOF 1
ENDMDL
MODEL 7
REMARK VINA RESULT:      -6.2      1.923      3.073
REMARK  Name = 
REMARK  2 active torsions:
REMARK  status: ('A' for Active; 'I' for Inactive)
REMARK    1  A    between atoms: C_1  and  C_2
REMARK    2  A    between atoms: C_7  and  O_8
REMARK                            x       y       z     vdW  Elec       q    Type
REMARK                         _______ _______ _______ _____ _____    ______ ____
ROOT
ATOM      1  C   UNL     1       6.735   4.956  14.169  0.00  0.00    +0.000 C 
ATOM      2  C   UNL     1       5.869   4.714  15.373  0.00  0.00    +0.000 A 
ATOM      3  C   UNL     1       5.715   3.422  15.893  0.00  0.00    +0.000 A 
ATOM      4  C   UNL     1       4.911   3.195  17.013  0.00  0.00    +0.000 A 
ATOM      5  C   UNL     1       4.245   4.263  17.631  0.00  0.00    +0.000 A 
ATOM      6  C   UNL     1       4.391   5.565  17.119  0.00  0.00    +0.000 A 
ATOM      7  C   UNL     1       5.203   5.780  15.994  0.00  0.00    +0.000 A 
ATOM      8  C   UNL     1       3.692   6.712  17.761  0.00  0.00    +0.000 C 
ATOM      9  O   UNL     1       3.842   7.837  17.286  0.00  0.00    +0.000 OA
ATOM     10  C   UNL     1       2.884   6.390  18.908  0.00  0.00    +0.000 A 
ATOM     11  S   UNL     1       2.018   7.580  19.757  0.00  0.00    +0.000 S 
ATOM     12  C   UNL     1       1.406   6.418  20.855  0.00  0.00    +0.000 A 
ATOM     13  C   UNL     1       1.861   5.148  20.569  0.00  0.00    +0.000 A 
ATOM     14  C   UNL     1       2.725   5.127  19.430  0.00  0.00    +0.000 A 
ATOM     15  C   UNL     1       3.393   3.981  18.828  0.00  0.00    +0.000 C 
ATOM     16  O   UNL     1       3.274   2.845  19.266  0.00  0.00    +0.000 OA
ENDROOT
BRANCH   7  17
ATOM     17  O   UNL     1       5.390   7.023  15.443  0.00  0.00    +0.000 OA
ATOM     18  H   UNL     1       5.488   6.937  14.468  0.00  0.00    +0.000 HD
ENDBRANCH   7  17
TORSDOF 1
ENDMDL
MODEL 8
REMARK VINA RESULT:      -6.1      3.057      5.573
REMARK  Name = 
REMARK  2 active torsions:
REMARK  status: ('A' for Active; 'I' for Inactive)
REMARK    1  A    between atoms: C_1  and  C_2
REMARK    2  A    between atoms: C_7  and  O_8
REMARK                            x       y       z     vdW  Elec       q    Type
REMARK                         _______ _______ _______ _____ _____    ______ ____
ROOT
ATOM      1  C   UNL     1       0.280  11.059  19.448  0.00  0.00    +0.000 C 
ATOM      2  C   UNL     1       0.878   9.692  19.626  0.00  0.00    +0.000 A 
ATOM      3  C   UNL     1       0.614   8.944  20.781  0.00  0.00    +0.000 A 
ATOM      4  C   UNL     1       1.169   7.672  20.948  0.00  0.00    +0.000 A 
ATOM      5  C   UNL     1       2.000   7.129  19.958  0.00  0.00    +0.000 A 
ATOM      6  C   UNL     1       2.273   7.871  18.794  0.00  0.00    +0.000 A 
ATOM      7  C   UNL     1       1.709   9.147  18.638  0.00  0.00    +0.000 A 
ATOM      8  C   UNL     1       3.154   7.312  17.732  0.00  0.00    +0.000 C 
ATOM      9  O   UNL     1       3.372   7.988  16.728  0.00  0.00    +0.000 OA
ATOM     10  C   UNL     1       3.684   5.998  17.985  0.00  0.00    +0.000 A 
ATOM     11  S   UNL     1       4.706   5.215  16.877  0.00  0.00    +0.000 S 
ATOM     12  C   UNL     1       4.835   3.844  17.893  0.00  0.00    +0.000 A 
ATOM     13  C   UNL     1       4.106   3.991  19.055  0.00  0.00    +0.000 A 
ATOM     14  C   UNL     1       3.431   5.251  19.113  0.00  0.00    +0.000 A 
ATOM     15  C   UNL     1       2.576   5.765  20.172  0.00  0.00    +0.000 C 
ATOM     16  O   UNL     1       2.331   5.128  21.189  0.00  0.00    +0.000 OA
ENDROOT
BRANCH   7  17
ATOM     17  O   UNL     1       1.933   9.923  17.528  0.00  0.00    +0.000 OA
ATOM     18  H   UNL     1       2.029  10.863  17.802  0.00  0.00    +0.000 HD
ENDBRANCH   7  17
TORSDOF 1
ENDMDL
MODEL 9
REMARK VINA RESULT:      -6.1      2.085      5.504
REMARK  Name = 
REMARK  2 active torsions:
REMARK  status: ('A' for Active; 'I' for Inactive)
REMARK    1  A    between atoms: C_1  and  C_2
REMARK    2  A    between atoms: C_7  and  O_8
REMARK                            x       y       z     vdW  Elec       q    Type
REMARK                         _______ _______ _______ _____ _____    ______ ____
ROOT
ATOM      1  C   UNL     1       0.915   7.526  21.232  0.00  0.00    +0.000 C 
ATOM      2  C   UNL     1       1.727   6.520  20.466  0.00  0.00    +0.000 A 
ATOM      3  C   UNL     1       1.776   5.182  20.877  0.00  0.00    +0.000 A 
ATOM      4  C   UNL     1       2.530   4.244  20.166  0.00  0.00    +0.000 A 
ATOM      5  C   UNL     1       3.250   4.635  19.028  0.00  0.00    +0.000 A 
ATOM      6  C   UNL     1       3.209   5.977  18.604  0.00  0.00    +0.000 A 
ATOM      7  C   UNL     1       2.447   6.908  19.327  0.00  0.00    +0.000 A 
ATOM      8  C   UNL     1       3.967   6.412  17.400  0.00  0.00    +0.000 C 
ATOM      9  O   UNL     1       3.910   7.592  17.058  0.00  0.00    +0.000 OA
ATOM     10  C   UNL     1       4.718   5.384  16.727  0.00  0.00    +0.000 A 
ATOM     11  S   UNL     1       5.639   5.709  15.337  0.00  0.00    +0.000 S 
ATOM     12  C   UNL     1       6.137   4.076  15.227  0.00  0.00    +0.000 A 
ATOM     13  C   UNL     1       5.605   3.304  16.237  0.00  0.00    +0.000 A 
ATOM     14  C   UNL     1       4.774   4.065  17.118  0.00  0.00    +0.000 A 
ATOM     15  C   UNL     1       4.046   3.604  18.292  0.00  0.00    +0.000 C 
ATOM     16  O   UNL     1       4.074   2.440  18.669  0.00  0.00    +0.000 OA
ENDROOT
BRANCH   7  17
ATOM     17  O   UNL     1       2.362   8.231  18.969  0.00  0.00    +0.000 OA
ATOM     18  H   UNL     1       2.350   8.788  19.781  0.00  0.00    +0.000 HD
ENDBRANCH   7  17
TORSDOF 1
ENDMDL
