MODEL 1
REMARK VINA RESULT:      -7.1      0.000      0.000
REMARK  Name = 
REMARK  9 active torsions:
REMARK  status: ('A' for Active; 'I' for Inactive)
REMARK    1  A    between atoms: C_1  and  O_2
REMARK    2  A    between atoms: O_2  and  C_3
REMARK    3  A    between atoms: C_9  and  C_10
REMARK    4  A    between atoms: C_10  and  C_11
REMARK    5  A    between atoms: C_10  and  N_14
REMARK    6  A    between atoms: C_11  and  O_13
REMARK    7  A    between atoms: N_14  and  C_15
REMARK    8  A    between atoms: N_14  and  C_16
REMARK    9  A    between atoms: C_16  and  C_17
REMARK                            x       y       z     vdW  Elec       q    Type
REMARK                         _______ _______ _______ _____ _____    ______ ____
ROOT
ATOM      1  C   UNL     1       4.655   5.317  17.690  0.00  0.00    +0.000 C 
ENDROOT
BRANCH   1   8
ATOM      2  C   UNL     1       2.373   4.788  18.742  0.00  0.00    +0.000 A 
ATOM      3  C   UNL     1       1.279   3.935  18.945  0.00  0.00    +0.000 A 
ATOM      4  C   UNL     1       1.294   2.651  18.427  0.00  0.00    +0.000 A 
ATOM      5  F   UNL     1       0.248   1.837  18.638  0.00  0.00    +0.000 F 
ATOM      6  C   UNL     1       2.382   2.186  17.714  0.00  0.00    +0.000 A 
ATOM      7  C   UNL     1       3.465   3.034  17.488  0.00  0.00    +0.000 A 
ATOM      8  C   UNL     1       3.471   4.366  17.952  0.00  0.00    +0.000 A 
BRANCH   2  10
ATOM      9  C   UNL     1       1.885   6.210  20.589  0.00  0.00    +0.000 C 
ATOM     10  O   UNL     1       2.443   6.046  19.285  0.00  0.00    +0.000 OA
ENDBRANCH   2  10
ENDBRANCH   1   8
BRANCH   1  11
ATOM     11  C   UNL     1       5.866   5.110  18.643  0.00  0.00    +0.000 C 
ATOM     12  O   UNL     1       6.698   5.981  18.881  0.00  0.00    +0.000 OA
BRANCH  11  13
ATOM     13  O   UNL     1       6.019   3.866  19.162  0.00  0.00    +0.000 OA
ATOM     14  H   UNL     1       5.538   3.167  18.685  0.00  0.00    +0.000 HD
ENDBRANCH  11  13
ENDBRANCH   1  11
BRANCH   1  15
ATOM     15  N   UNL     1       5.146   5.453  16.283  0.00  0.00    +0.000 NA
ATOM     16  C   UNL     1       5.069   6.768  15.665  0.00  0.00    +0.000 C 
BRANCH  15  17
ATOM     17  C   UNL     1       6.455   4.826  16.034  0.00  0.00    +0.000 C 
BRANCH  17  18
ATOM     18  C   UNL     1       6.717   4.638  14.575  0.00  0.00    +0.000 A 
ATOM     19  C   UNL     1       6.038   3.797  13.659  0.00  0.00    +0.000 A 
ATOM     20  C   UNL     1       6.676   4.015  12.467  0.00  0.00    +0.000 A 
ATOM     21  O   UNL     1       7.664   4.926  12.641  0.00  0.00    +0.000 OA
ATOM     22  N   UNL     1       7.691   5.329  13.966  0.00  0.00    +0.000 NA
ENDBRANCH  17  18
ENDBRANCH  15  17
ENDBRANCH   1  15
TORSDOF 7
ENDMDL
MODEL 2
REMARK VINA RESULT:      -7.0      1.762      2.048
REMARK  Name = 
REMARK  9 active torsions:
REMARK  status: ('A' for Active; 'I' for Inactive)
REMARK    1  A    between atoms: C_1  and  O_2
REMARK    2  A    between atoms: O_2  and  C_3
REMARK    3  A    between atoms: C_9  and  C_10
REMARK    4  A    between atoms: C_10  and  C_11
REMARK    5  A    between atoms: C_10  and  N_14
REMARK    6  A    between atoms: C_11  and  O_13
REMARK    7  A    between atoms: N_14  and  C_15
REMARK    8  A    between atoms: N_14  and  C_16
REMARK    9  A    between atoms: C_16  and  C_17
REMARK                            x       y       z     vdW  Elec       q    Type
REMARK                         _______ _______ _______ _____ _____    ______ ____
ROOT
ATOM      1  C   UNL     1       5.030   4.946  18.426  0.00  0.00    +0.000 C 
ENDROOT
BRANCH   1   8
ATOM      2  C   UNL     1       3.025   5.175  20.013  0.00  0.00    +0.000 A 
ATOM      3  C   UNL     1       2.104   4.632  20.919  0.00  0.00    +0.000 A 
ATOM      4  C   UNL     1       2.223   3.312  21.323  0.00  0.00    +0.000 A 
ATOM      5  F   UNL     1       1.344   2.805  22.202  0.00  0.00    +0.000 F 
ATOM      6  C   UNL     1       3.249   2.516  20.853  0.00  0.00    +0.000 A 
ATOM      7  C   UNL     1       4.156   3.040  19.934  0.00  0.00    +0.000 A 
ATOM      8  C   UNL     1       4.043   4.362  19.455  0.00  0.00    +0.000 A 
BRANCH   2  10
ATOM      9  C   UNL     1       2.292   6.787  18.420  0.00  0.00    +0.000 C 
ATOM     10  O   UNL     1       2.997   6.491  19.627  0.00  0.00    +0.000 OA
ENDBRANCH   2  10
ENDBRANCH   1   8
BRANCH   1  11
ATOM     11  C   UNL     1       6.524   4.854  18.846  0.00  0.00    +0.000 C 
ATOM     12  O   UNL     1       7.376   4.254  18.197  0.00  0.00    +0.000 OA
BRANCH  11  13
ATOM     13  O   UNL     1       6.851   5.417  20.037  0.00  0.00    +0.000 OA
ATOM     14  H   UNL     1       7.478   4.898  20.570  0.00  0.00    +0.000 HD
ENDBRANCH  11  13
ENDBRANCH   1  11
BRANCH   1  15
ATOM     15  N   UNL     1       4.888   4.517  16.998  0.00  0.00    +0.000 NA
ATOM     16  C   UNL     1       3.735   3.700  16.651  0.00  0.00    +0.000 C 
BRANCH  15  17
ATOM     17  C   UNL     1       5.086   5.597  16.018  0.00  0.00    +0.000 C 
BRANCH  17  18
ATOM     18  C   UNL     1       6.088   5.226  14.973  0.00  0.00    +0.000 A 
ATOM     19  C   UNL     1       5.903   4.421  13.822  0.00  0.00    +0.000 A 
ATOM     20  C   UNL     1       7.132   4.414  13.218  0.00  0.00    +0.000 A 
ATOM     21  O   UNL     1       7.999   5.164  13.941  0.00  0.00    +0.000 OA
ATOM     22  N   UNL     1       7.345   5.685  15.045  0.00  0.00    +0.000 NA
ENDBRANCH  17  18
ENDBRANCH  15  17
ENDBRANCH   1  15
TORSDOF 7
ENDMDL
MODEL 3
REMARK VINA RESULT:      -6.9      1.946      3.072
REMARK  Name = 
REMARK  9 active torsions:
REMARK  status: ('A' for Active; 'I' for Inactive)
REMARK    1  A    between atoms: C_1  and  O_2
REMARK    2  A    between atoms: O_2  and  C_3
REMARK    3  A    between atoms: C_9  and  C_10
REMARK    4  A    between atoms: C_10  and  C_11
REMARK    5  A    between atoms: C_10  and  N_14
REMARK    6  A    between atoms: C_11  and  O_13
REMARK    7  A    between atoms: N_14  and  C_15
REMARK    8  A    between atoms: N_14  and  C_16
REMARK    9  A    between atoms: C_16  and  C_17
REMARK                            x       y       z     vdW  Elec       q    Type
REMARK                         _______ _______ _______ _____ _____    ______ ____
ROOT
ATOM      1  C   UNL     1       3.934   5.176  17.996  0.00  0.00    +0.000 C 
ENDROOT
BRANCH   1   8
ATOM      2  C   UNL     1       2.739   3.141  19.005  0.00  0.00    +0.000 A 
ATOM      3  C   UNL     1       2.055   2.510  20.054  0.00  0.00    +0.000 A 
ATOM      4  C   UNL     1       1.714   3.225  21.191  0.00  0.00    +0.000 A 
ATOM      5  F   UNL     1       1.047   2.616  22.183  0.00  0.00    +0.000 F 
ATOM      6  C   UNL     1       2.031   4.564  21.307  0.00  0.00    +0.000 A 
ATOM      7  C   UNL     1       2.731   5.195  20.280  0.00  0.00    +0.000 A 
ATOM      8  C   UNL     1       3.144   4.494  19.128  0.00  0.00    +0.000 A 
BRANCH   2  10
ATOM      9  C   UNL     1       3.773   1.278  17.940  0.00  0.00    +0.000 C 
ATOM     10  O   UNL     1       3.046   2.502  17.831  0.00  0.00    +0.000 OA
ENDBRANCH   2  10
ENDBRANCH   1   8
BRANCH   1  11
ATOM     11  C   UNL     1       3.468   6.623  17.670  0.00  0.00    +0.000 C 
ATOM     12  O   UNL     1       2.345   7.047  17.925  0.00  0.00    +0.000 OA
BRANCH  11  13
ATOM     13  O   UNL     1       4.353   7.405  17.001  0.00  0.00    +0.000 OA
ATOM     14  H   UNL     1       5.262   7.058  16.978  0.00  0.00    +0.000 HD
ENDBRANCH  11  13
ENDBRANCH   1  11
BRANCH   1  15
ATOM     15  N   UNL     1       5.430   5.138  18.064  0.00  0.00    +0.000 NA
ATOM     16  C   UNL     1       6.050   5.298  19.370  0.00  0.00    +0.000 C 
BRANCH  15  17
ATOM     17  C   UNL     1       6.043   4.027  17.318  0.00  0.00    +0.000 C 
BRANCH  17  18
ATOM     18  C   UNL     1       6.528   4.458  15.972  0.00  0.00    +0.000 A 
ATOM     19  C   UNL     1       6.174   3.944  14.701  0.00  0.00    +0.000 A 
ATOM     20  C   UNL     1       6.901   4.699  13.819  0.00  0.00    +0.000 A 
ATOM     21  O   UNL     1       7.638   5.610  14.500  0.00  0.00    +0.000 OA
ATOM     22  N   UNL     1       7.402   5.469  15.858  0.00  0.00    +0.000 NA
ENDBRANCH  17  18
ENDBRANCH  15  17
ENDBRANCH   1  15
TORSDOF 7
ENDMDL
MODEL 4
REMARK VINA RESULT:      -6.8      2.390      3.712
REMARK  Name = 
REMARK  9 active torsions:
REMARK  status: ('A' for Active; 'I' for Inactive)
REMARK    1  A    between atoms: C_1  and  O_2
REMARK    2  A    between atoms: O_2  and  C_3
REMARK    3  A    between atoms: C_9  and  C_10
REMARK    4  A    between atoms: C_10  and  C_11
REMARK    5  A    between atoms: C_10  and  N_14
REMARK    6  A    between atoms: C_11  and  O_13
REMARK    7  A    between atoms: N_14  and  C_15
REMARK    8  A    between atoms: N_14  and  C_16
REMARK    9  A    between atoms: C_16  and  C_17
REMARK                            x       y       z     vdW  Elec       q    Type
REMARK                         _______ _______ _______ _____ _____    ______ ____
ROOT
ATOM      1  C   UNL     1       5.351   4.622  17.032  0.00  0.00    +0.000 C 
ENDROOT
BRANCH   1   8
ATOM      2  C   UNL     1       2.900   4.866  17.757  0.00  0.00    +0.000 A 
ATOM      3  C   UNL     1       1.657   4.316  18.100  0.00  0.00    +0.000 A 
ATOM      4  C   UNL     1       1.511   2.942  18.205  0.00  0.00    +0.000 A 
ATOM      5  F   UNL     1       0.320   2.425  18.547  0.00  0.00    +0.000 F 
ATOM      6  C   UNL     1       2.580   2.096  17.985  0.00  0.00    +0.000 A 
ATOM      7  C   UNL     1       3.814   2.632  17.621  0.00  0.00    +0.000 A 
ATOM      8  C   UNL     1       3.996   4.020  17.452  0.00  0.00    +0.000 A 
BRANCH   2  10
ATOM      9  C   UNL     1       2.435   7.018  18.665  0.00  0.00    +0.000 C 
ATOM     10  O   UNL     1       3.122   6.218  17.701  0.00  0.00    +0.000 OA
ENDBRANCH   2  10
ENDBRANCH   1   8
BRANCH   1  11
ATOM     11  C   UNL     1       5.357   5.264  15.616  0.00  0.00    +0.000 C 
ATOM     12  O   UNL     1       5.607   4.639  14.589  0.00  0.00    +0.000 OA
BRANCH  11  13
ATOM     13  O   UNL     1       5.142   6.602  15.560  0.00  0.00    +0.000 OA
ATOM     14  H   UNL     1       4.271   6.857  15.207  0.00  0.00    +0.000 HD
ENDBRANCH  11  13
ENDBRANCH   1  11
BRANCH   1  15
ATOM     15  N   UNL     1       6.040   5.538  17.996  0.00  0.00    +0.000 NA
ATOM     16  C   UNL     1       5.917   5.240  19.415  0.00  0.00    +0.000 C 
BRANCH  15  17
ATOM     17  C   UNL     1       7.432   5.857  17.640  0.00  0.00    +0.000 C 
BRANCH  17  18
ATOM     18  C   UNL     1       7.744   7.304  17.846  0.00  0.00    +0.000 A 
ATOM     19  C   UNL     1       8.633   7.890  18.780  0.00  0.00    +0.000 A 
ATOM     20  C   UNL     1       8.539   9.234  18.536  0.00  0.00    +0.000 A 
ATOM     21  O   UNL     1       7.664   9.451  17.523  0.00  0.00    +0.000 OA
ATOM     22  N   UNL     1       7.165   8.238  17.079  0.00  0.00    +0.000 NA
ENDBRANCH  17  18
ENDBRANCH  15  17
ENDBRANCH   1  15
TORSDOF 7
ENDMDL
MODEL 5
REMARK VINA RESULT:      -6.8      1.376      2.257
REMARK  Name = 
REMARK  9 active torsions:
REMARK  status: ('A' for Active; 'I' for Inactive)
REMARK    1  A    between atoms: C_1  and  O_2
REMARK    2  A    between atoms: O_2  and  C_3
REMARK    3  A    between atoms: C_9  and  C_10
REMARK    4  A    between atoms: C_10  and  C_11
REMARK    5  A    between atoms: C_10  and  N_14
REMARK    6  A    between atoms: C_11  and  O_13
REMARK    7  A    between atoms: N_14  and  C_15
REMARK    8  A    between atoms: N_14  and  C_16
REMARK    9  A    between atoms: C_16  and  C_17
REMARK                            x       y       z     vdW  Elec       q    Type
REMARK                         _______ _______ _______ _____ _____    ______ ____
ROOT
ATOM      1  C   UNL     1       5.325   5.751  18.321  0.00  0.00    +0.000 C 
ENDROOT
BRANCH   1   8
ATOM      2  C   UNL     1       3.434   4.065  18.733  0.00  0.00    +0.000 A 
ATOM      3  C   UNL     1       2.213   3.703  19.321  0.00  0.00    +0.000 A 
ATOM      4  C   UNL     1       1.488   4.635  20.046  0.00  0.00    +0.000 A 
ATOM      5  F   UNL     1       0.314   4.282  20.593  0.00  0.00    +0.000 F 
ATOM      6  C   UNL     1       1.944   5.930  20.192  0.00  0.00    +0.000 A 
ATOM      7  C   UNL     1       3.167   6.293  19.631  0.00  0.00    +0.000 A 
ATOM      8  C   UNL     1       3.964   5.364  18.930  0.00  0.00    +0.000 A 
BRANCH   2  10
ATOM      9  C   UNL     1       3.687   1.862  17.863  0.00  0.00    +0.000 C 
ATOM     10  O   UNL     1       4.163   3.205  17.952  0.00  0.00    +0.000 OA
ENDBRANCH   2  10
ENDBRANCH   1   8
BRANCH   1  11
ATOM     11  C   UNL     1       6.541   5.012  18.948  0.00  0.00    +0.000 C 
ATOM     12  O   UNL     1       7.195   5.457  19.887  0.00  0.00    +0.000 OA
BRANCH  11  13
ATOM     13  O   UNL     1       6.914   3.852  18.352  0.00  0.00    +0.000 OA
ATOM     14  H   UNL     1       6.185   3.357  17.938  0.00  0.00    +0.000 HD
ENDBRANCH  11  13
ENDBRANCH   1  11
BRANCH   1  15
ATOM     15  N   UNL     1       5.453   5.743  16.829  0.00  0.00    +0.000 NA
ATOM     16  C   UNL     1       4.792   6.806  16.089  0.00  0.00    +0.000 C 
BRANCH  15  17
ATOM     17  C   UNL     1       6.825   5.530  16.339  0.00  0.00    +0.000 C 
BRANCH  17  18
ATOM     18  C   UNL     1       6.843   4.970  14.954  0.00  0.00    +0.000 A 
ATOM     19  C   UNL     1       6.068   3.911  14.422  0.00  0.00    +0.000 A 
ATOM     20  C   UNL     1       6.479   3.817  13.119  0.00  0.00    +0.000 A 
ATOM     21  O   UNL     1       7.428   4.753  12.873  0.00  0.00    +0.000 OA
ATOM     22  N   UNL     1       7.657   5.488  14.024  0.00  0.00    +0.000 NA
ENDBRANCH  17  18
ENDBRANCH  15  17
ENDBRANCH   1  15
TORSDOF 7
ENDMDL
MODEL 6
REMARK VINA RESULT:      -6.8      1.572      1.763
REMARK  Name = 
REMARK  9 active torsions:
REMARK  status: ('A' for Active; 'I' for Inactive)
REMARK    1  A    between atoms: C_1  and  O_2
REMARK    2  A    between atoms: O_2  and  C_3
REMARK    3  A    between atoms: C_9  and  C_10
REMARK    4  A    between atoms: C_10  and  C_11
REMARK    5  A    between atoms: C_10  and  N_14
REMARK    6  A    between atoms: C_11  and  O_13
REMARK    7  A    between atoms: N_14  and  C_15
REMARK    8  A    between atoms: N_14  and  C_16
REMARK    9  A    between atoms: C_16  and  C_17
REMARK                            x       y       z     vdW  Elec       q    Type
REMARK                         _______ _______ _______ _____ _____    ______ ____
ROOT
ATOM      1  C   UNL     1       4.925   5.658  18.321  0.00  0.00    +0.000 C 
ENDROOT
BRANCH   1   8
ATOM      2  C   UNL     1       2.842   5.661  19.821  0.00  0.00    +0.000 A 
ATOM      3  C   UNL     1       1.883   4.995  20.597  0.00  0.00    +0.000 A 
ATOM      4  C   UNL     1       1.997   3.633  20.825  0.00  0.00    +0.000 A 
ATOM      5  F   UNL     1       1.082   3.007  21.581  0.00  0.00    +0.000 F 
ATOM      6  C   UNL     1       3.054   2.913  20.303  0.00  0.00    +0.000 A 
ATOM      7  C   UNL     1       4.000   3.561  19.511  0.00  0.00    +0.000 A 
ATOM      8  C   UNL     1       3.896   4.935  19.210  0.00  0.00    +0.000 A 
BRANCH   2  10
ATOM      9  C   UNL     1       2.148   7.472  18.440  0.00  0.00    +0.000 C 
ATOM     10  O   UNL     1       2.818   7.017  19.615  0.00  0.00    +0.000 OA
ENDBRANCH   2  10
ENDBRANCH   1   8
BRANCH   1  11
ATOM     11  C   UNL     1       6.382   5.617  18.863  0.00  0.00    +0.000 C 
ATOM     12  O   UNL     1       6.724   4.955  19.839  0.00  0.00    +0.000 OA
BRANCH  11  13
ATOM     13  O   UNL     1       7.278   6.427  18.245  0.00  0.00    +0.000 OA
ATOM     14  H   UNL     1       6.884   7.187  17.783  0.00  0.00    +0.000 HD
ENDBRANCH  11  13
ENDBRANCH   1  11
BRANCH   1  15
ATOM     15  N   UNL     1       4.930   5.342  16.857  0.00  0.00    +0.000 NA
ATOM     16  C   UNL     1       4.988   6.458  15.926  0.00  0.00    +0.000 C 
BRANCH  15  17
ATOM     17  C   UNL     1       5.873   4.279  16.469  0.00  0.00    +0.000 C 
BRANCH  17  18
ATOM     18  C   UNL     1       6.589   4.603  15.198  0.00  0.00    +0.000 A 
ATOM     19  C   UNL     1       6.322   4.128  13.891  0.00  0.00    +0.000 A 
ATOM     20  C   UNL     1       7.266   4.742  13.112  0.00  0.00    +0.000 A 
ATOM     21  O   UNL     1       8.045   5.539  13.885  0.00  0.00    +0.000 OA
ATOM     22  N   UNL     1       7.618   5.461  15.200  0.00  0.00    +0.000 NA
ENDBRANCH  17  18
ENDBRANCH  15  17
ENDBRANCH   1  15
TORSDOF 7
ENDMDL
MODEL 7
REMARK VINA RESULT:      -6.8      3.325      6.066
REMARK  Name = 
REMARK  9 active torsions:
REMARK  status: ('A' for Active; 'I' for Inactive)
REMARK    1  A    between atoms: C_1  and  O_2
REMARK    2  A    between atoms: O_2  and  C_3
REMARK    3  A    between atoms: C_9  and  C_10
REMARK    4  A    between atoms: C_10  and  C_11
REMARK    5  A    between atoms: C_10  and  N_14
REMARK    6  A    between atoms: C_11  and  O_13
REMARK    7  A    between atoms: N_14  and  C_15
REMARK    8  A    between atoms: N_14  and  C_16
REMARK    9  A    between atoms: C_16  and  C_17
REMARK                            x       y       z     vdW  Elec       q    Type
REMARK                         _______ _______ _______ _____ _____    ______ ____
ROOT
ATOM      1  C   UNL     1       3.972   3.973  18.108  0.00  0.00    +0.000 C 
ENDROOT
BRANCH   1   8
ATOM      2  C   UNL     1       5.690   5.608  17.126  0.00  0.00    +0.000 A 
ATOM      3  C   UNL     1       6.818   6.432  17.252  0.00  0.00    +0.000 A 
ATOM      4  C   UNL     1       7.533   6.455  18.439  0.00  0.00    +0.000 A 
ATOM      5  F   UNL     1       8.619   7.236  18.545  0.00  0.00    +0.000 F 
ATOM      6  C   UNL     1       7.157   5.665  19.508  0.00  0.00    +0.000 A 
ATOM      7  C   UNL     1       6.024   4.860  19.401  0.00  0.00    +0.000 A 
ATOM      8  C   UNL     1       5.237   4.845  18.231  0.00  0.00    +0.000 A 
BRANCH   2  10
ATOM      9  C   UNL     1       5.726   5.139  14.792  0.00  0.00    +0.000 C 
ATOM     10  O   UNL     1       4.982   5.496  15.957  0.00  0.00    +0.000 OA
ENDBRANCH   2  10
ENDBRANCH   1   8
BRANCH   1  11
ATOM     11  C   UNL     1       4.043   2.628  18.884  0.00  0.00    +0.000 C 
ATOM     12  O   UNL     1       4.076   2.552  20.109  0.00  0.00    +0.000 OA
BRANCH  11  13
ATOM     13  O   UNL     1       4.147   1.503  18.132  0.00  0.00    +0.000 OA
ATOM     14  H   UNL     1       4.489   0.728  18.611  0.00  0.00    +0.000 HD
ENDBRANCH  11  13
ENDBRANCH   1  11
BRANCH   1  15
ATOM     15  N   UNL     1       2.647   4.623  18.359  0.00  0.00    +0.000 NA
ATOM     16  C   UNL     1       1.468   3.771  18.363  0.00  0.00    +0.000 C 
BRANCH  15  17
ATOM     17  C   UNL     1       2.633   5.552  19.501  0.00  0.00    +0.000 C 
BRANCH  17  18
ATOM     18  C   UNL     1       2.361   6.958  19.074  0.00  0.00    +0.000 A 
ATOM     19  C   UNL     1       2.561   7.547  17.801  0.00  0.00    +0.000 A 
ATOM     20  C   UNL     1       2.146   8.842  17.962  0.00  0.00    +0.000 A 
ATOM     21  O   UNL     1       1.717   9.027  19.235  0.00  0.00    +0.000 OA
ATOM     22  N   UNL     1       1.844   7.842  19.939  0.00  0.00    +0.000 NA
ENDBRANCH  17  18
ENDBRANCH  15  17
ENDBRANCH   1  15
TORSDOF 7
ENDMDL
MODEL 8
REMARK VINA RESULT:      -6.8      2.485      3.288
REMARK  Name = 
REMARK  9 active torsions:
REMARK  status: ('A' for Active; 'I' for Inactive)
REMARK    1  A    between atoms: C_1  and  O_2
REMARK    2  A    between atoms: O_2  and  C_3
REMARK    3  A    between atoms: C_9  and  C_10
REMARK    4  A    between atoms: C_10  and  C_11
REMARK    5  A    between atoms: C_10  and  N_14
REMARK    6  A    between atoms: C_11  and  O_13
REMARK    7  A    between atoms: N_14  and  C_15
REMARK    8  A    between atoms: N_14  and  C_16
REMARK    9  A    between atoms: C_16  and  C_17
REMARK                            x       y       z     vdW  Elec       q    Type
REMARK                         _______ _______ _______ _____ _____    ______ ____
ROOT
ATOM      1  C   UNL     1       5.166   5.150  19.103  0.00  0.00    +0.000 C 
ENDROOT
BRANCH   1   8
ATOM      2  C   UNL     1       2.905   6.300  19.501  0.00  0.00    +0.000 A 
ATOM      3  C   UNL     1       1.938   7.261  19.174  0.00  0.00    +0.000 A 
ATOM      4  C   UNL     1       2.097   8.051  18.047  0.00  0.00    +0.000 A 
ATOM      5  F   UNL     1       1.159   8.959  17.734  0.00  0.00    +0.000 F 
ATOM      6  C   UNL     1       3.198   7.901  17.226  0.00  0.00    +0.000 A 
ATOM      7  C   UNL     1       4.176   6.965  17.555  0.00  0.00    +0.000 A 
ATOM      8  C   UNL     1       4.081   6.175  18.720  0.00  0.00    +0.000 A 
BRANCH   2  10
ATOM      9  C   UNL     1       1.564   4.685  20.626  0.00  0.00    +0.000 C 
ATOM     10  O   UNL     1       2.771   5.446  20.566  0.00  0.00    +0.000 OA
ENDBRANCH   2  10
ENDBRANCH   1   8
BRANCH   1  11
ATOM     11  C   UNL     1       4.721   3.667  18.972  0.00  0.00    +0.000 C 
ATOM     12  O   UNL     1       5.050   2.787  19.762  0.00  0.00    +0.000 OA
BRANCH  11  13
ATOM     13  O   UNL     1       3.992   3.351  17.872  0.00  0.00    +0.000 OA
ATOM     14  H   UNL     1       4.512   2.987  17.134  0.00  0.00    +0.000 HD
ENDBRANCH  11  13
ENDBRANCH   1  11
BRANCH   1  15
ATOM     15  N   UNL     1       6.528   5.316  18.505  0.00  0.00    +0.000 NA
ATOM     16  C   UNL     1       7.599   5.770  19.380  0.00  0.00    +0.000 C 
BRANCH  15  17
ATOM     17  C   UNL     1       6.968   4.183  17.674  0.00  0.00    +0.000 C 
BRANCH  17  18
ATOM     18  C   UNL     1       6.923   4.509  16.216  0.00  0.00    +0.000 A 
ATOM     19  C   UNL     1       6.242   3.825  15.180  0.00  0.00    +0.000 A 
ATOM     20  C   UNL     1       6.533   4.546  14.053  0.00  0.00    +0.000 A 
ATOM     21  O   UNL     1       7.327   5.596  14.378  0.00  0.00    +0.000 OA
ATOM     22  N   UNL     1       7.570   5.583  15.742  0.00  0.00    +0.000 NA
ENDBRANCH  17  18
ENDBRANCH  15  17
ENDBRANCH   1  15
TORSDOF 7
ENDMDL
MODEL 9
REMARK VINA RESULT:      -6.7      1.514      1.630
REMARK  Name = 
REMARK  9 active torsions:
REMARK  status: ('A' for Active; 'I' for Inactive)
REMARK    1  A    between atoms: C_1  and  O_2
REMARK    2  A    between atoms: O_2  and  C_3
REMARK    3  A    between atoms: C_9  and  C_10
REMARK    4  A    between atoms: C_10  and  C_11
REMARK    5  A    between atoms: C_10  and  N_14
REMARK    6  A    between atoms: C_11  and  O_13
REMARK    7  A    between atoms: N_14  and  C_15
REMARK    8  A    between atoms: N_14  and  C_16
REMARK    9  A    between atoms: C_16  and  C_17
REMARK                            x       y       z     vdW  Elec       q    Type
REMARK                         _______ _______ _______ _____ _____    ______ ____
ROOT
ATOM      1  C   UNL     1       5.518   5.543  18.670  0.00  0.00    +0.000 C 
ENDROOT
BRANCH   1   8
ATOM      2  C   UNL     1       3.228   5.213  19.784  0.00  0.00    +0.000 A 
ATOM      3  C   UNL     1       2.224   4.391  20.314  0.00  0.00    +0.000 A 
ATOM      4  C   UNL     1       2.430   3.025  20.422  0.00  0.00    +0.000 A 
ATOM      5  F   UNL     1       1.468   2.248  20.944  0.00  0.00    +0.000 F 
ATOM      6  C   UNL     1       3.622   2.454  20.021  0.00  0.00    +0.000 A 
ATOM      7  C   UNL     1       4.617   3.260  19.471  0.00  0.00    +0.000 A 
ATOM      8  C   UNL     1       4.432   4.647  19.294  0.00  0.00    +0.000 A 
BRANCH   2  10
ATOM      9  C   UNL     1       1.921   7.144  20.269  0.00  0.00    +0.000 C 
ATOM     10  O   UNL     1       3.108   6.578  19.712  0.00  0.00    +0.000 OA
ENDBRANCH   2  10
ENDBRANCH   1   8
BRANCH   1  11
ATOM     11  C   UNL     1       6.973   5.135  19.035  0.00  0.00    +0.000 C 
ATOM     12  O   UNL     1       7.625   4.309  18.402  0.00  0.00    +0.000 OA
BRANCH  11  13
ATOM     13  O   UNL     1       7.490   5.688  20.161  0.00  0.00    +0.000 OA
ATOM     14  H   UNL     1       7.325   5.179  20.973  0.00  0.00    +0.000 HD
ENDBRANCH  11  13
ENDBRANCH   1  11
BRANCH   1  15
ATOM     15  N   UNL     1       5.433   5.828  17.203  0.00  0.00    +0.000 NA
ATOM     16  C   UNL     1       4.580   6.926  16.776  0.00  0.00    +0.000 C 
BRANCH  15  17
ATOM     17  C   UNL     1       6.736   5.872  16.517  0.00  0.00    +0.000 C 
BRANCH  17  18
ATOM     18  C   UNL     1       6.703   5.153  15.208  0.00  0.00    +0.000 A 
ATOM     19  C   UNL     1       5.838   4.109  14.797  0.00  0.00    +0.000 A 
ATOM     20  C   UNL     1       6.237   3.827  13.517  0.00  0.00    +0.000 A 
ATOM     21  O   UNL     1       7.262   4.644  13.171  0.00  0.00    +0.000 OA
ATOM     22  N   UNL     1       7.556   5.487  14.229  0.00  0.00    +0.000 NA
ENDBRANCH  17  18
ENDBRANCH  15  17
ENDBRANCH   1  15
TORSDOF 7
ENDMDL
