MODEL 1
REMARK VINA RESULT:      -8.2      0.000      0.000
REMARK  Name = 
REMARK  11 active torsions:
REMARK  status: ('A' for Active; 'I' for Inactive)
REMARK    1  A    between atoms: C_1  and  C_2
REMARK    2  A    between atoms: C_2  and  C_3
REMARK    3  A    between atoms: C_3  and  C_4
REMARK    4  A    between atoms: C_11  and  O_12
REMARK    5  A    between atoms: O_12  and  C_13
REMARK    6  A    between atoms: C_13  and  C_14
REMARK    7  A    between atoms: C_13  and  C_15
REMARK    8  A    between atoms: N_17  and  C_18
REMARK    9  A    between atoms: C_18  and  C_19
REMARK   10  A    between atoms: C_22  and  C_23
REMARK   11  A    between atoms: C_23  and  O_25
REMARK                            x       y       z     vdW  Elec       q    Type
REMARK                         _______ _______ _______ _____ _____    ______ ____
ROOT
ATOM      1  C   UNL     1       0.784  10.153  19.618  0.00  0.00    +0.000 C 
ATOM      2  C   UNL     1      -0.356  10.134  18.604  0.00  0.00    +0.000 C 
ENDROOT
BRANCH   1   3
ATOM      3  C   UNL     1       0.424  11.104  20.774  0.00  0.00    +0.000 C 
ATOM      4  O   UNL     1       1.066  11.168  21.820  0.00  0.00    +0.000 OA
ATOM      5  N   UNL     1      -0.741  11.817  20.570  0.00  0.00    +0.000 N 
ATOM      6  H   UNL     1      -1.143  11.783  19.638  0.00  0.00    +0.000 HD
BRANCH   5   7
ATOM      7  C   UNL     1      -1.213  12.803  21.518  0.00  0.00    +0.000 C 
BRANCH   7   8
ATOM      8  C   UNL     1      -2.568  12.432  22.149  0.00  0.00    +0.000 C 
ATOM      9  C   UNL     1      -2.685  12.945  23.595  0.00  0.00    +0.000 C 
ATOM     10  C   UNL     1      -4.054  12.632  24.199  0.00  0.00    +0.000 C 
ATOM     11  C   UNL     1      -5.196  13.172  23.338  0.00  0.00    +0.000 C 
ATOM     12  C   UNL     1      -5.082  12.675  21.893  0.00  0.00    +0.000 C 
ATOM     13  C   UNL     1      -3.714  12.993  21.292  0.00  0.00    +0.000 C 
BRANCH  11  14
ATOM     14  C   UNL     1      -6.528  12.761  23.944  0.00  0.00    +0.000 C 
ATOM     15  O   UNL     1      -7.032  11.653  23.834  0.00  0.00    +0.000 OA
BRANCH  14  16
ATOM     16  O   UNL     1      -7.110  13.745  24.665  0.00  0.00    +0.000 OA
ATOM     17  H   UNL     1      -6.878  13.742  25.612  0.00  0.00    +0.000 HD
ENDBRANCH  14  16
ENDBRANCH  11  14
ENDBRANCH   7   8
ENDBRANCH   5   7
ENDBRANCH   1   3
BRANCH   1  18
ATOM     18  O   UNL     1       1.009   8.841  20.158  0.00  0.00    +0.000 OA
BRANCH  18  26
ATOM     19  C   UNL     1       4.688   5.624  17.273  0.00  0.00    +0.000 A 
ATOM     20  C   UNL     1       5.078   4.479  17.860  0.00  0.00    +0.000 A 
ATOM     21  C   UNL     1       4.601   4.033  19.175  0.00  0.00    +0.000 A 
ATOM     22  O   UNL     1       5.065   3.030  19.704  0.00  0.00    +0.000 OA
ATOM     23  O   UNL     1       3.597   4.782  19.756  0.00  0.00    +0.000 OA
ATOM     24  C   UNL     1       3.196   6.013  19.196  0.00  0.00    +0.000 A 
ATOM     25  C   UNL     1       2.270   6.741  19.948  0.00  0.00    +0.000 A 
ATOM     26  C   UNL     1       1.871   7.999  19.515  0.00  0.00    +0.000 A 
ATOM     27  C   UNL     1       2.393   8.488  18.312  0.00  0.00    +0.000 A 
ATOM     28  C   UNL     1       3.305   7.737  17.552  0.00  0.00    +0.000 A 
ATOM     29  C   UNL     1       3.727   6.476  17.990  0.00  0.00    +0.000 A 
BRANCH  19  30
ATOM     30  C   UNL     1       5.217   5.991  15.907  0.00  0.00    +0.000 C 
BRANCH  30  32
ATOM     31  C   UNL     1       5.778   4.234  14.192  0.00  0.00    +0.000 C 
ATOM     32  C   UNL     1       6.269   4.996  15.413  0.00  0.00    +0.000 C 
ENDBRANCH  30  32
ENDBRANCH  19  30
ENDBRANCH  18  26
ENDBRANCH   1  18
TORSDOF 9
ENDMDL
MODEL 2
REMARK VINA RESULT:      -8.0      3.308     11.303
REMARK  Name = 
REMARK  11 active torsions:
REMARK  status: ('A' for Active; 'I' for Inactive)
REMARK    1  A    between atoms: C_1  and  C_2
REMARK    2  A    between atoms: C_2  and  C_3
REMARK    3  A    between atoms: C_3  and  C_4
REMARK    4  A    between atoms: C_11  and  O_12
REMARK    5  A    between atoms: O_12  and  C_13
REMARK    6  A    between atoms: C_13  and  C_14
REMARK    7  A    between atoms: C_13  and  C_15
REMARK    8  A    between atoms: N_17  and  C_18
REMARK    9  A    between atoms: C_18  and  C_19
REMARK   10  A    between atoms: C_22  and  C_23
REMARK   11  A    between atoms: C_23  and  O_25
REMARK                            x       y       z     vdW  Elec       q    Type
REMARK                         _______ _______ _______ _____ _____    ______ ____
ROOT
ATOM      1  C   UNL     1       2.676   5.726  19.027  0.00  0.00    +0.000 C 
ATOM      2  C   UNL     1       1.733   4.987  18.081  0.00  0.00    +0.000 C 
ENDROOT
BRANCH   1   3
ATOM      3  C   UNL     1       4.027   4.990  19.080  0.00  0.00    +0.000 C 
ATOM      4  O   UNL     1       4.202   3.948  19.706  0.00  0.00    +0.000 OA
ATOM      5  N   UNL     1       5.052   5.654  18.434  0.00  0.00    +0.000 N 
ATOM      6  H   UNL     1       4.792   6.446  17.855  0.00  0.00    +0.000 HD
BRANCH   5   7
ATOM      7  C   UNL     1       6.381   5.092  18.327  0.00  0.00    +0.000 C 
BRANCH   7   8
ATOM      8  C   UNL     1       6.683   4.522  16.929  0.00  0.00    +0.000 C 
ATOM      9  C   UNL     1       5.479   3.761  16.347  0.00  0.00    +0.000 C 
ATOM     10  C   UNL     1       5.758   3.250  14.935  0.00  0.00    +0.000 C 
ATOM     11  C   UNL     1       6.194   4.375  13.995  0.00  0.00    +0.000 C 
ATOM     12  C   UNL     1       7.387   5.146  14.570  0.00  0.00    +0.000 C 
ATOM     13  C   UNL     1       7.102   5.657  15.981  0.00  0.00    +0.000 C 
BRANCH  11  14
ATOM     14  C   UNL     1       6.536   3.796  12.632  0.00  0.00    +0.000 C 
ATOM     15  O   UNL     1       7.295   4.310  11.825  0.00  0.00    +0.000 OA
BRANCH  14  16
ATOM     16  O   UNL     1       5.934   2.608  12.394  0.00  0.00    +0.000 OA
ATOM     17  H   UNL     1       6.453   1.831  12.673  0.00  0.00    +0.000 HD
ENDBRANCH  14  16
ENDBRANCH  11  14
ENDBRANCH   7   8
ENDBRANCH   5   7
ENDBRANCH   1   3
BRANCH   1  18
ATOM     18  O   UNL     1       2.904   7.069  18.572  0.00  0.00    +0.000 OA
BRANCH  18  26
ATOM     19  C   UNL     1      -0.717  11.216  19.953  0.00  0.00    +0.000 A 
ATOM     20  C   UNL     1      -1.021  11.343  21.258  0.00  0.00    +0.000 A 
ATOM     21  C   UNL     1      -0.465  10.484  22.310  0.00  0.00    +0.000 A 
ATOM     22  O   UNL     1      -0.853  10.581  23.469  0.00  0.00    +0.000 OA
ATOM     23  O   UNL     1       0.521   9.595  21.930  0.00  0.00    +0.000 OA
ATOM     24  C   UNL     1       0.831   9.400  20.569  0.00  0.00    +0.000 A 
ATOM     25  C   UNL     1       1.749   8.378  20.304  0.00  0.00    +0.000 A 
ATOM     26  C   UNL     1       2.061   8.062  18.988  0.00  0.00    +0.000 A 
ATOM     27  C   UNL     1       1.464   8.803  17.961  0.00  0.00    +0.000 A 
ATOM     28  C   UNL     1       0.562   9.843  18.241  0.00  0.00    +0.000 A 
ATOM     29  C   UNL     1       0.226  10.157  19.563  0.00  0.00    +0.000 A 
BRANCH  19  30
ATOM     30  C   UNL     1      -1.322  12.160  18.942  0.00  0.00    +0.000 C 
BRANCH  30  32
ATOM     31  C   UNL     1      -2.984  10.755  17.673  0.00  0.00    +0.000 C 
ATOM     32  C   UNL     1      -2.802  11.866  18.696  0.00  0.00    +0.000 C 
ENDBRANCH  30  32
ENDBRANCH  19  30
ENDBRANCH  18  26
ENDBRANCH   1  18
TORSDOF 9
ENDMDL
MODEL 3
REMARK VINA RESULT:      -7.8      3.789     11.180
REMARK  Name = 
REMARK  11 active torsions:
REMARK  status: ('A' for Active; 'I' for Inactive)
REMARK    1  A    between atoms: C_1  and  C_2
REMARK    2  A    between atoms: C_2  and  C_3
REMARK    3  A    between atoms: C_3  and  C_4
REMARK    4  A    between atoms: C_11  and  O_12
REMARK    5  A    between atoms: O_12  and  C_13
REMARK    6  A    between atoms: C_13  and  C_14
REMARK    7  A    between atoms: C_13  and  C_15
REMARK    8  A    between atoms: N_17  and  C_18
REMARK    9  A    between atoms: C_18  and  C_19
REMARK   10  A    between atoms: C_22  and  C_23
REMARK   11  A    between atoms: C_23  and  O_25
REMARK                            x       y       z     vdW  Elec       q    Type
REMARK                         _______ _______ _______ _____ _____    ______ ____
ROOT
ATOM      1  C   UNL     1       3.398   4.964  19.848  0.00  0.00    +0.000 C 
ATOM      2  C   UNL     1       2.528   3.750  20.160  0.00  0.00    +0.000 C 
ENDROOT
BRANCH   1   3
ATOM      3  C   UNL     1       4.780   4.491  19.362  0.00  0.00    +0.000 C 
ATOM      4  O   UNL     1       5.283   3.422  19.700  0.00  0.00    +0.000 OA
ATOM      5  N   UNL     1       5.447   5.416  18.584  0.00  0.00    +0.000 N 
ATOM      6  H   UNL     1       4.914   6.220  18.268  0.00  0.00    +0.000 HD
BRANCH   5   7
ATOM      7  C   UNL     1       6.734   5.130  17.987  0.00  0.00    +0.000 C 
BRANCH   7   8
ATOM      8  C   UNL     1       6.624   4.404  16.634  0.00  0.00    +0.000 C 
ATOM      9  C   UNL     1       5.170   4.026  16.303  0.00  0.00    +0.000 C 
ATOM     10  C   UNL     1       5.053   3.362  14.932  0.00  0.00    +0.000 C 
ATOM     11  C   UNL     1       5.655   4.227  13.824  0.00  0.00    +0.000 C 
ATOM     12  C   UNL     1       7.100   4.617  14.149  0.00  0.00    +0.000 C 
ATOM     13  C   UNL     1       7.211   5.284  15.520  0.00  0.00    +0.000 C 
BRANCH  11  14
ATOM     14  C   UNL     1       5.584   3.482  12.502  0.00  0.00    +0.000 C 
ATOM     15  O   UNL     1       4.607   3.453  11.769  0.00  0.00    +0.000 OA
BRANCH  14  16
ATOM     16  O   UNL     1       6.741   2.861  12.179  0.00  0.00    +0.000 OA
ATOM     17  H   UNL     1       7.139   3.162  11.341  0.00  0.00    +0.000 HD
ENDBRANCH  14  16
ENDBRANCH  11  14
ENDBRANCH   7   8
ENDBRANCH   5   7
ENDBRANCH   1   3
BRANCH   1  18
ATOM     18  O   UNL     1       2.802   5.768  18.817  0.00  0.00    +0.000 OA
BRANCH  18  26
ATOM     19  C   UNL     1       0.607  10.905  19.821  0.00  0.00    +0.000 A 
ATOM     20  C   UNL     1       0.183  11.146  21.074  0.00  0.00    +0.000 A 
ATOM     21  C   UNL     1       0.269  10.168  22.165  0.00  0.00    +0.000 A 
ATOM     22  O   UNL     1      -0.223  10.407  23.262  0.00  0.00    +0.000 OA
ATOM     23  O   UNL     1       0.946   8.995  21.895  0.00  0.00    +0.000 OA
ATOM     24  C   UNL     1       1.362   8.686  20.584  0.00  0.00    +0.000 A 
ATOM     25  C   UNL     1       1.916   7.414  20.415  0.00  0.00    +0.000 A 
ATOM     26  C   UNL     1       2.287   6.991  19.145  0.00  0.00    +0.000 A 
ATOM     27  C   UNL     1       2.120   7.872  18.071  0.00  0.00    +0.000 A 
ATOM     28  C   UNL     1       1.585   9.158  18.257  0.00  0.00    +0.000 A 
ATOM     29  C   UNL     1       1.191   9.586  19.530  0.00  0.00    +0.000 A 
BRANCH  19  30
ATOM     30  C   UNL     1       0.499  11.981  18.766  0.00  0.00    +0.000 C 
BRANCH  30  32
ATOM     31  C   UNL     1      -0.420  14.301  19.113  0.00  0.00    +0.000 C 
ATOM     32  C   UNL     1       0.765  13.374  19.339  0.00  0.00    +0.000 C 
ENDBRANCH  30  32
ENDBRANCH  19  30
ENDBRANCH  18  26
ENDBRANCH   1  18
TORSDOF 9
ENDMDL
MODEL 4
REMARK VINA RESULT:      -7.7      2.864     11.548
REMARK  Name = 
REMARK  11 active torsions:
REMARK  status: ('A' for Active; 'I' for Inactive)
REMARK    1  A    between atoms: C_1  and  C_2
REMARK    2  A    between atoms: C_2  and  C_3
REMARK    3  A    between atoms: C_3  and  C_4
REMARK    4  A    between atoms: C_11  and  O_12
REMARK    5  A    between atoms: O_12  and  C_13
REMARK    6  A    between atoms: C_13  and  C_14
REMARK    7  A    between atoms: C_13  and  C_15
REMARK    8  A    between atoms: N_17  and  C_18
REMARK    9  A    between atoms: C_18  and  C_19
REMARK   10  A    between atoms: C_22  and  C_23
REMARK   11  A    between atoms: C_23  and  O_25
REMARK                            x       y       z     vdW  Elec       q    Type
REMARK                         _______ _______ _______ _____ _____    ______ ____
ROOT
ATOM      1  C   UNL     1       1.915   7.297  19.025  0.00  0.00    +0.000 C 
ATOM      2  C   UNL     1       2.657   8.154  18.003  0.00  0.00    +0.000 C 
ENDROOT
BRANCH   1   3
ATOM      3  C   UNL     1       2.526   5.884  19.045  0.00  0.00    +0.000 C 
ATOM      4  O   UNL     1       1.865   4.862  18.874  0.00  0.00    +0.000 OA
ATOM      5  N   UNL     1       3.869   5.859  19.364  0.00  0.00    +0.000 N 
ATOM      6  H   UNL     1       4.354   6.751  19.381  0.00  0.00    +0.000 HD
BRANCH   5   7
ATOM      7  C   UNL     1       4.631   4.629  19.377  0.00  0.00    +0.000 C 
BRANCH   7   8
ATOM      8  C   UNL     1       5.489   4.437  18.112  0.00  0.00    +0.000 C 
ATOM      9  C   UNL     1       4.690   3.784  16.972  0.00  0.00    +0.000 C 
ATOM     10  C   UNL     1       5.522   3.652  15.697  0.00  0.00    +0.000 C 
ATOM     11  C   UNL     1       6.103   4.994  15.252  0.00  0.00    +0.000 C 
ATOM     12  C   UNL     1       6.892   5.659  16.385  0.00  0.00    +0.000 C 
ATOM     13  C   UNL     1       6.055   5.792  17.655  0.00  0.00    +0.000 C 
BRANCH  11  14
ATOM     14  C   UNL     1       6.985   4.787  14.032  0.00  0.00    +0.000 C 
ATOM     15  O   UNL     1       7.885   5.538  13.686  0.00  0.00    +0.000 OA
BRANCH  14  16
ATOM     16  O   UNL     1       6.702   3.650  13.358  0.00  0.00    +0.000 OA
ATOM     17  H   UNL     1       7.219   3.527  12.541  0.00  0.00    +0.000 HD
ENDBRANCH  14  16
ENDBRANCH  11  14
ENDBRANCH   7   8
ENDBRANCH   5   7
ENDBRANCH   1   3
BRANCH   1  18
ATOM     18  O   UNL     1       2.026   7.863  20.341  0.00  0.00    +0.000 OA
BRANCH  18  26
ATOM     19  C   UNL     1      -1.503  11.907  22.186  0.00  0.00    +0.000 A 
ATOM     20  C   UNL     1      -1.604  13.012  21.426  0.00  0.00    +0.000 A 
ATOM     21  C   UNL     1      -0.868  13.209  20.171  0.00  0.00    +0.000 A 
ATOM     22  O   UNL     1      -0.924  14.276  19.571  0.00  0.00    +0.000 OA
ATOM     23  O   UNL     1      -0.144  12.130  19.701  0.00  0.00    +0.000 OA
ATOM     24  C   UNL     1       0.025  10.975  20.491  0.00  0.00    +0.000 A 
ATOM     25  C   UNL     1       0.888  10.010  19.963  0.00  0.00    +0.000 A 
ATOM     26  C   UNL     1       1.176   8.870  20.703  0.00  0.00    +0.000 A 
ATOM     27  C   UNL     1       0.563   8.709  21.951  0.00  0.00    +0.000 A 
ATOM     28  C   UNL     1      -0.322   9.674  22.460  0.00  0.00    +0.000 A 
ATOM     29  C   UNL     1      -0.604  10.836  21.730  0.00  0.00    +0.000 A 
BRANCH  19  30
ATOM     30  C   UNL     1      -2.315  11.784  23.452  0.00  0.00    +0.000 C 
BRANCH  30  32
ATOM     31  C   UNL     1      -4.577  12.667  24.124  0.00  0.00    +0.000 C 
ATOM     32  C   UNL     1      -3.158  13.033  23.716  0.00  0.00    +0.000 C 
ENDBRANCH  30  32
ENDBRANCH  19  30
ENDBRANCH  18  26
ENDBRANCH   1  18
TORSDOF 9
ENDMDL
MODEL 5
REMARK VINA RESULT:      -7.7      3.045     10.037
REMARK  Name = 
REMARK  11 active torsions:
REMARK  status: ('A' for Active; 'I' for Inactive)
REMARK    1  A    between atoms: C_1  and  C_2
REMARK    2  A    between atoms: C_2  and  C_3
REMARK    3  A    between atoms: C_3  and  C_4
REMARK    4  A    between atoms: C_11  and  O_12
REMARK    5  A    between atoms: O_12  and  C_13
REMARK    6  A    between atoms: C_13  and  C_14
REMARK    7  A    between atoms: C_13  and  C_15
REMARK    8  A    between atoms: N_17  and  C_18
REMARK    9  A    between atoms: C_18  and  C_19
REMARK   10  A    between atoms: C_22  and  C_23
REMARK   11  A    between atoms: C_23  and  O_25
REMARK                            x       y       z     vdW  Elec       q    Type
REMARK                         _______ _______ _______ _____ _____    ______ ____
ROOT
ATOM      1  C   UNL     1       0.902  10.061  21.755  0.00  0.00    +0.000 C 
ATOM      2  C   UNL     1      -0.227  10.484  22.691  0.00  0.00    +0.000 C 
ENDROOT
BRANCH   1   3
ATOM      3  C   UNL     1       0.714   8.583  21.365  0.00  0.00    +0.000 C 
ATOM      4  O   UNL     1      -0.339   7.972  21.527  0.00  0.00    +0.000 OA
ATOM      5  N   UNL     1       1.864   7.978  20.897  0.00  0.00    +0.000 N 
ATOM      6  H   UNL     1       2.652   8.584  20.695  0.00  0.00    +0.000 HD
BRANCH   5   7
ATOM      7  C   UNL     1       1.872   6.609  20.427  0.00  0.00    +0.000 C 
BRANCH   7   8
ATOM      8  C   UNL     1       3.088   6.284  19.540  0.00  0.00    +0.000 C 
ATOM      9  C   UNL     1       3.168   4.785  19.204  0.00  0.00    +0.000 C 
ATOM     10  C   UNL     1       4.338   4.472  18.272  0.00  0.00    +0.000 C 
ATOM     11  C   UNL     1       4.292   5.313  16.995  0.00  0.00    +0.000 C 
ATOM     12  C   UNL     1       4.203   6.808  17.320  0.00  0.00    +0.000 C 
ATOM     13  C   UNL     1       3.029   7.115  18.249  0.00  0.00    +0.000 C 
BRANCH  11  14
ATOM     14  C   UNL     1       5.520   5.019  16.149  0.00  0.00    +0.000 C 
ATOM     15  O   UNL     1       5.946   5.744  15.263  0.00  0.00    +0.000 OA
BRANCH  14  16
ATOM     16  O   UNL     1       6.139   3.868  16.493  0.00  0.00    +0.000 OA
ATOM     17  H   UNL     1       5.615   3.063  16.325  0.00  0.00    +0.000 HD
ENDBRANCH  14  16
ENDBRANCH  11  14
ENDBRANCH   7   8
ENDBRANCH   5   7
ENDBRANCH   1   3
BRANCH   1  18
ATOM     18  O   UNL     1       0.897  10.855  20.559  0.00  0.00    +0.000 OA
BRANCH  18  26
ATOM     19  C   UNL     1      -3.590  10.517  17.100  0.00  0.00    +0.000 A 
ATOM     20  C   UNL     1      -4.679  11.224  17.453  0.00  0.00    +0.000 A 
ATOM     21  C   UNL     1      -4.752  12.061  18.656  0.00  0.00    +0.000 A 
ATOM     22  O   UNL     1      -5.802  12.604  18.980  0.00  0.00    +0.000 OA
ATOM     23  O   UNL     1      -3.582  12.220  19.373  0.00  0.00    +0.000 OA
ATOM     24  C   UNL     1      -2.436  11.460  19.063  0.00  0.00    +0.000 A 
ATOM     25  C   UNL     1      -1.360  11.611  19.944  0.00  0.00    +0.000 A 
ATOM     26  C   UNL     1      -0.214  10.848  19.763  0.00  0.00    +0.000 A 
ATOM     27  C   UNL     1      -0.162   9.965  18.678  0.00  0.00    +0.000 A 
ATOM     28  C   UNL     1      -1.240   9.840  17.785  0.00  0.00    +0.000 A 
ATOM     29  C   UNL     1      -2.407  10.591  17.970  0.00  0.00    +0.000 A 
BRANCH  19  30
ATOM     30  C   UNL     1      -3.599   9.698  15.831  0.00  0.00    +0.000 C 
BRANCH  30  32
ATOM     31  C   UNL     1      -3.541   9.839  13.316  0.00  0.00    +0.000 C 
ATOM     32  C   UNL     1      -3.142  10.513  14.620  0.00  0.00    +0.000 C 
ENDBRANCH  30  32
ENDBRANCH  19  30
ENDBRANCH  18  26
ENDBRANCH   1  18
TORSDOF 9
ENDMDL
MODEL 6
REMARK VINA RESULT:      -7.7      2.778      3.452
REMARK  Name = 
REMARK  11 active torsions:
REMARK  status: ('A' for Active; 'I' for Inactive)
REMARK    1  A    between atoms: C_1  and  C_2
REMARK    2  A    between atoms: C_2  and  C_3
REMARK    3  A    between atoms: C_3  and  C_4
REMARK    4  A    between atoms: C_11  and  O_12
REMARK    5  A    between atoms: O_12  and  C_13
REMARK    6  A    between atoms: C_13  and  C_14
REMARK    7  A    between atoms: C_13  and  C_15
REMARK    8  A    between atoms: N_17  and  C_18
REMARK    9  A    between atoms: C_18  and  C_19
REMARK   10  A    between atoms: C_22  and  C_23
REMARK   11  A    between atoms: C_23  and  O_25
REMARK                            x       y       z     vdW  Elec       q    Type
REMARK                         _______ _______ _______ _____ _____    ______ ____
ROOT
ATOM      1  C   UNL     1       0.289   8.592  20.601  0.00  0.00    +0.000 C 
ATOM      2  C   UNL     1      -0.385   8.454  21.963  0.00  0.00    +0.000 C 
ENDROOT
BRANCH   1   3
ATOM      3  C   UNL     1       0.147  10.043  20.105  0.00  0.00    +0.000 C 
ATOM      4  O   UNL     1       0.521  11.016  20.754  0.00  0.00    +0.000 OA
ATOM      5  N   UNL     1      -0.522  10.160  18.902  0.00  0.00    +0.000 N 
ATOM      6  H   UNL     1      -0.696   9.303  18.388  0.00  0.00    +0.000 HD
BRANCH   5   7
ATOM      7  C   UNL     1      -0.704  11.438  18.248  0.00  0.00    +0.000 C 
BRANCH   7   8
ATOM      8  C   UNL     1      -2.183  11.774  17.981  0.00  0.00    +0.000 C 
ATOM      9  C   UNL     1      -2.865  10.706  17.110  0.00  0.00    +0.000 C 
ATOM     10  C   UNL     1      -4.348  11.007  16.898  0.00  0.00    +0.000 C 
ATOM     11  C   UNL     1      -5.091  11.182  18.223  0.00  0.00    +0.000 C 
ATOM     12  C   UNL     1      -4.413  12.237  19.103  0.00  0.00    +0.000 C 
ATOM     13  C   UNL     1      -2.931  11.930  19.314  0.00  0.00    +0.000 C 
BRANCH  11  14
ATOM     14  C   UNL     1      -6.537  11.560  17.949  0.00  0.00    +0.000 C 
ATOM     15  O   UNL     1      -6.895  12.449  17.191  0.00  0.00    +0.000 OA
BRANCH  14  16
ATOM     16  O   UNL     1      -7.424  10.783  18.611  0.00  0.00    +0.000 OA
ATOM     17  H   UNL     1      -7.142  10.525  19.508  0.00  0.00    +0.000 HD
ENDBRANCH  14  16
ENDBRANCH  11  14
ENDBRANCH   7   8
ENDBRANCH   5   7
ENDBRANCH   1   3
BRANCH   1  18
ATOM     18  O   UNL     1       1.686   8.273  20.689  0.00  0.00    +0.000 OA
BRANCH  18  26
ATOM     19  C   UNL     1       4.010   4.509  17.133  0.00  0.00    +0.000 A 
ATOM     20  C   UNL     1       3.939   3.215  17.493  0.00  0.00    +0.000 A 
ATOM     21  C   UNL     1       3.299   2.747  18.728  0.00  0.00    +0.000 A 
ATOM     22  O   UNL     1       3.351   1.567  19.054  0.00  0.00    +0.000 OA
ATOM     23  O   UNL     1       2.623   3.693  19.474  0.00  0.00    +0.000 OA
ATOM     24  C   UNL     1       2.714   5.064  19.155  0.00  0.00    +0.000 A 
ATOM     25  C   UNL     1       2.098   5.932  20.062  0.00  0.00    +0.000 A 
ATOM     26  C   UNL     1       2.198   7.304  19.872  0.00  0.00    +0.000 A 
ATOM     27  C   UNL     1       2.893   7.777  18.753  0.00  0.00    +0.000 A 
ATOM     28  C   UNL     1       3.487   6.894  17.835  0.00  0.00    +0.000 A 
ATOM     29  C   UNL     1       3.408   5.509  18.028  0.00  0.00    +0.000 A 
BRANCH  19  30
ATOM     30  C   UNL     1       4.671   4.896  15.832  0.00  0.00    +0.000 C 
BRANCH  30  32
ATOM     31  C   UNL     1       6.167   3.926  14.052  0.00  0.00    +0.000 C 
ATOM     32  C   UNL     1       5.914   4.052  15.547  0.00  0.00    +0.000 C 
ENDBRANCH  30  32
ENDBRANCH  19  30
ENDBRANCH  18  26
ENDBRANCH   1  18
TORSDOF 9
ENDMDL
MODEL 7
REMARK VINA RESULT:      -7.6      3.231      4.800
REMARK  Name = 
REMARK  11 active torsions:
REMARK  status: ('A' for Active; 'I' for Inactive)
REMARK    1  A    between atoms: C_1  and  C_2
REMARK    2  A    between atoms: C_2  and  C_3
REMARK    3  A    between atoms: C_3  and  C_4
REMARK    4  A    between atoms: C_11  and  O_12
REMARK    5  A    between atoms: O_12  and  C_13
REMARK    6  A    between atoms: C_13  and  C_14
REMARK    7  A    between atoms: C_13  and  C_15
REMARK    8  A    between atoms: N_17  and  C_18
REMARK    9  A    between atoms: C_18  and  C_19
REMARK   10  A    between atoms: C_22  and  C_23
REMARK   11  A    between atoms: C_23  and  O_25
REMARK                            x       y       z     vdW  Elec       q    Type
REMARK                         _______ _______ _______ _____ _____    ______ ____
ROOT
ATOM      1  C   UNL     1       0.793  10.027  19.569  0.00  0.00    +0.000 C 
ATOM      2  C   UNL     1      -0.540  10.018  18.825  0.00  0.00    +0.000 C 
ENDROOT
BRANCH   1   3
ATOM      3  C   UNL     1       0.739  11.070  20.701  0.00  0.00    +0.000 C 
ATOM      4  O   UNL     1       1.372  10.962  21.748  0.00  0.00    +0.000 OA
ATOM      5  N   UNL     1      -0.157  12.097  20.473  0.00  0.00    +0.000 N 
ATOM      6  H   UNL     1      -0.552  12.163  19.541  0.00  0.00    +0.000 HD
BRANCH   5   7
ATOM      7  C   UNL     1      -0.307  13.201  21.396  0.00  0.00    +0.000 C 
BRANCH   7   8
ATOM      8  C   UNL     1       0.085  14.558  20.781  0.00  0.00    +0.000 C 
ATOM      9  C   UNL     1       1.604  14.794  20.835  0.00  0.00    +0.000 C 
ATOM     10  C   UNL     1       1.998  16.111  20.169  0.00  0.00    +0.000 C 
ATOM     11  C   UNL     1       1.487  16.200  18.730  0.00  0.00    +0.000 C 
ATOM     12  C   UNL     1      -0.024  15.955  18.664  0.00  0.00    +0.000 C 
ATOM     13  C   UNL     1      -0.413  14.636  19.329  0.00  0.00    +0.000 C 
BRANCH  11  14
ATOM     14  C   UNL     1       1.837  17.559  18.149  0.00  0.00    +0.000 C 
ATOM     15  O   UNL     1       1.425  18.628  18.575  0.00  0.00    +0.000 OA
BRANCH  14  16
ATOM     16  O   UNL     1       2.696  17.486  17.107  0.00  0.00    +0.000 OA
ATOM     17  H   UNL     1       2.418  16.878  16.398  0.00  0.00    +0.000 HD
ENDBRANCH  14  16
ENDBRANCH  11  14
ENDBRANCH   7   8
ENDBRANCH   5   7
ENDBRANCH   1   3
BRANCH   1  18
ATOM     18  O   UNL     1       1.064   8.740  20.146  0.00  0.00    +0.000 OA
BRANCH  18  26
ATOM     19  C   UNL     1       4.716   5.499  17.253  0.00  0.00    +0.000 A 
ATOM     20  C   UNL     1       5.113   4.359  17.847  0.00  0.00    +0.000 A 
ATOM     21  C   UNL     1       4.649   3.926  19.170  0.00  0.00    +0.000 A 
ATOM     22  O   UNL     1       5.120   2.928  19.704  0.00  0.00    +0.000 OA
ATOM     23  O   UNL     1       3.651   4.680  19.755  0.00  0.00    +0.000 OA
ATOM     24  C   UNL     1       3.244   5.905  19.188  0.00  0.00    +0.000 A 
ATOM     25  C   UNL     1       2.324   6.639  19.943  0.00  0.00    +0.000 A 
ATOM     26  C   UNL     1       1.920   7.892  19.502  0.00  0.00    +0.000 A 
ATOM     27  C   UNL     1       2.429   8.371  18.289  0.00  0.00    +0.000 A 
ATOM     28  C   UNL     1       3.334   7.613  17.526  0.00  0.00    +0.000 A 
ATOM     29  C   UNL     1       3.762   6.357  17.972  0.00  0.00    +0.000 A 
BRANCH  19  30
ATOM     30  C   UNL     1       5.230   5.854  15.878  0.00  0.00    +0.000 C 
BRANCH  30  32
ATOM     31  C   UNL     1       6.295   4.250  14.253  0.00  0.00    +0.000 C 
ATOM     32  C   UNL     1       6.494   5.070  15.519  0.00  0.00    +0.000 C 
ENDBRANCH  30  32
ENDBRANCH  19  30
ENDBRANCH  18  26
ENDBRANCH   1  18
TORSDOF 9
ENDMDL
MODEL 8
REMARK VINA RESULT:      -7.6      1.615      2.391
REMARK  Name = 
REMARK  11 active torsions:
REMARK  status: ('A' for Active; 'I' for Inactive)
REMARK    1  A    between atoms: C_1  and  C_2
REMARK    2  A    between atoms: C_2  and  C_3
REMARK    3  A    between atoms: C_3  and  C_4
REMARK    4  A    between atoms: C_11  and  O_12
REMARK    5  A    between atoms: O_12  and  C_13
REMARK    6  A    between atoms: C_13  and  C_14
REMARK    7  A    between atoms: C_13  and  C_15
REMARK    8  A    between atoms: N_17  and  C_18
REMARK    9  A    between atoms: C_18  and  C_19
REMARK   10  A    between atoms: C_22  and  C_23
REMARK   11  A    between atoms: C_23  and  O_25
REMARK                            x       y       z     vdW  Elec       q    Type
REMARK                         _______ _______ _______ _____ _____    ______ ____
ROOT
ATOM      1  C   UNL     1       1.091  10.112  18.857  0.00  0.00    +0.000 C 
ATOM      2  C   UNL     1      -0.128   9.896  17.965  0.00  0.00    +0.000 C 
ENDROOT
BRANCH   1   3
ATOM      3  C   UNL     1       0.865  11.352  19.741  0.00  0.00    +0.000 C 
ATOM      4  O   UNL     1       1.645  12.300  19.784  0.00  0.00    +0.000 OA
ATOM      5  N   UNL     1      -0.249  11.265  20.553  0.00  0.00    +0.000 N 
ATOM      6  H   UNL     1      -0.890  10.499  20.371  0.00  0.00    +0.000 HD
BRANCH   5   7
ATOM      7  C   UNL     1      -0.659  12.354  21.412  0.00  0.00    +0.000 C 
BRANCH   7   8
ATOM      8  C   UNL     1      -2.087  12.184  21.962  0.00  0.00    +0.000 C 
ATOM      9  C   UNL     1      -2.194  12.636  23.428  0.00  0.00    +0.000 C 
ATOM     10  C   UNL     1      -3.624  12.527  23.954  0.00  0.00    +0.000 C 
ATOM     11  C   UNL     1      -4.616  13.292  23.078  0.00  0.00    +0.000 C 
ATOM     12  C   UNL     1      -4.511  12.856  21.612  0.00  0.00    +0.000 C 
ATOM     13  C   UNL     1      -3.079  12.971  21.090  0.00  0.00    +0.000 C 
BRANCH  11  14
ATOM     14  C   UNL     1      -6.027  13.080  23.601  0.00  0.00    +0.000 C 
ATOM     15  O   UNL     1      -6.526  11.990  23.839  0.00  0.00    +0.000 OA
BRANCH  14  16
ATOM     16  O   UNL     1      -6.693  14.236  23.818  0.00  0.00    +0.000 OA
ATOM     17  H   UNL     1      -7.330  14.471  23.119  0.00  0.00    +0.000 HD
ENDBRANCH  14  16
ENDBRANCH  11  14
ENDBRANCH   7   8
ENDBRANCH   5   7
ENDBRANCH   1   3
BRANCH   1  18
ATOM     18  O   UNL     1       1.307   8.976  19.708  0.00  0.00    +0.000 OA
BRANCH  18  26
ATOM     19  C   UNL     1       4.327   4.471  18.033  0.00  0.00    +0.000 A 
ATOM     20  C   UNL     1       5.043   4.611  16.903  0.00  0.00    +0.000 A 
ATOM     21  C   UNL     1       5.082   5.846  16.111  0.00  0.00    +0.000 A 
ATOM     22  O   UNL     1       5.672   5.884  15.038  0.00  0.00    +0.000 OA
ATOM     23  O   UNL     1       4.448   6.949  16.649  0.00  0.00    +0.000 OA
ATOM     24  C   UNL     1       3.649   6.830  17.805  0.00  0.00    +0.000 A 
ATOM     25  C   UNL     1       2.953   7.986  18.173  0.00  0.00    +0.000 A 
ATOM     26  C   UNL     1       2.083   7.946  19.255  0.00  0.00    +0.000 A 
ATOM     27  C   UNL     1       1.952   6.747  19.965  0.00  0.00    +0.000 A 
ATOM     28  C   UNL     1       2.676   5.599  19.600  0.00  0.00    +0.000 A 
ATOM     29  C   UNL     1       3.541   5.624  18.500  0.00  0.00    +0.000 A 
BRANCH  19  30
ATOM     30  C   UNL     1       4.364   3.168  18.795  0.00  0.00    +0.000 C 
BRANCH  30  32
ATOM     31  C   UNL     1       2.138   2.219  18.095  0.00  0.00    +0.000 C 
ATOM     32  C   UNL     1       3.648   2.045  18.044  0.00  0.00    +0.000 C 
ENDBRANCH  30  32
ENDBRANCH  19  30
ENDBRANCH  18  26
ENDBRANCH   1  18
TORSDOF 9
ENDMDL
MODEL 9
REMARK VINA RESULT:      -7.6      1.249      1.733
REMARK  Name = 
REMARK  11 active torsions:
REMARK  status: ('A' for Active; 'I' for Inactive)
REMARK    1  A    between atoms: C_1  and  C_2
REMARK    2  A    between atoms: C_2  and  C_3
REMARK    3  A    between atoms: C_3  and  C_4
REMARK    4  A    between atoms: C_11  and  O_12
REMARK    5  A    between atoms: O_12  and  C_13
REMARK    6  A    between atoms: C_13  and  C_14
REMARK    7  A    between atoms: C_13  and  C_15
REMARK    8  A    between atoms: N_17  and  C_18
REMARK    9  A    between atoms: C_18  and  C_19
REMARK   10  A    between atoms: C_22  and  C_23
REMARK   11  A    between atoms: C_23  and  O_25
REMARK                            x       y       z     vdW  Elec       q    Type
REMARK                         _______ _______ _______ _____ _____    ______ ____
ROOT
ATOM      1  C   UNL     1       0.858  10.028  19.683  0.00  0.00    +0.000 C 
ATOM      2  C   UNL     1      -0.342  10.162  18.751  0.00  0.00    +0.000 C 
ENDROOT
BRANCH   1   3
ATOM      3  C   UNL     1       0.689  10.989  20.875  0.00  0.00    +0.000 C 
ATOM      4  O   UNL     1       1.538  11.816  21.199  0.00  0.00    +0.000 OA
ATOM      5  N   UNL     1      -0.464  10.778  21.605  0.00  0.00    +0.000 N 
ATOM      6  H   UNL     1      -1.154  10.152  21.202  0.00  0.00    +0.000 HD
BRANCH   5   7
ATOM      7  C   UNL     1      -0.826  11.617  22.726  0.00  0.00    +0.000 C 
BRANCH   7   8
ATOM      8  C   UNL     1      -2.042  12.518  22.437  0.00  0.00    +0.000 C 
ATOM      9  C   UNL     1      -2.551  12.348  20.996  0.00  0.00    +0.000 C 
ATOM     10  C   UNL     1      -3.796  13.194  20.729  0.00  0.00    +0.000 C 
ATOM     11  C   UNL     1      -4.910  12.904  21.736  0.00  0.00    +0.000 C 
ATOM     12  C   UNL     1      -4.410  13.061  23.176  0.00  0.00    +0.000 C 
ATOM     13  C   UNL     1      -3.168  12.210  23.438  0.00  0.00    +0.000 C 
BRANCH  11  14
ATOM     14  C   UNL     1      -6.086  13.830  21.472  0.00  0.00    +0.000 C 
ATOM     15  O   UNL     1      -7.259  13.487  21.477  0.00  0.00    +0.000 OA
BRANCH  14  16
ATOM     16  O   UNL     1      -5.715  15.112  21.257  0.00  0.00    +0.000 OA
ATOM     17  H   UNL     1      -4.835  15.214  20.850  0.00  0.00    +0.000 HD
ENDBRANCH  14  16
ENDBRANCH  11  14
ENDBRANCH   7   8
ENDBRANCH   5   7
ENDBRANCH   1   3
BRANCH   1  18
ATOM     18  O   UNL     1       0.965   8.688  20.188  0.00  0.00    +0.000 OA
BRANCH  18  26
ATOM     19  C   UNL     1       4.704   5.372  17.498  0.00  0.00    +0.000 A 
ATOM     20  C   UNL     1       5.013   4.205  18.092  0.00  0.00    +0.000 A 
ATOM     21  C   UNL     1       4.435   3.761  19.365  0.00  0.00    +0.000 A 
ATOM     22  O   UNL     1       4.826   2.735  19.909  0.00  0.00    +0.000 OA
ATOM     23  O   UNL     1       3.423   4.540  19.892  0.00  0.00    +0.000 OA
ATOM     24  C   UNL     1       3.105   5.792  19.326  0.00  0.00    +0.000 A 
ATOM     25  C   UNL     1       2.159   6.544  20.028  0.00  0.00    +0.000 A 
ATOM     26  C   UNL     1       1.836   7.822  19.589  0.00  0.00    +0.000 A 
ATOM     27  C   UNL     1       2.453   8.307  18.429  0.00  0.00    +0.000 A 
ATOM     28  C   UNL     1       3.384   7.531  17.719  0.00  0.00    +0.000 A 
ATOM     29  C   UNL     1       3.730   6.250  18.164  0.00  0.00    +0.000 A 
BRANCH  19  30
ATOM     30  C   UNL     1       5.334   5.737  16.175  0.00  0.00    +0.000 C 
BRANCH  30  32
ATOM     31  C   UNL     1       7.324   6.872  17.222  0.00  0.00    +0.000 C 
ATOM     32  C   UNL     1       6.861   5.788  16.262  0.00  0.00    +0.000 C 
ENDBRANCH  30  32
ENDBRANCH  19  30
ENDBRANCH  18  26
ENDBRANCH   1  18
TORSDOF 9
ENDMDL
