MODEL 1
REMARK VINA RESULT:      -8.2      0.000      0.000
REMARK  Name = 
REMARK  5 active torsions:
REMARK  status: ('A' for Active; 'I' for Inactive)
REMARK    1  A    between atoms: C_2  and  O_3
REMARK    2  A    between atoms: C_2  and  C_4
REMARK    3  A    between atoms: C_5  and  C_6
REMARK    4  A    between atoms: N_21  and  C_22
REMARK    5  A    between atoms: C_22  and  C_23
REMARK                            x       y       z     vdW  Elec       q    Type
REMARK                         _______ _______ _______ _____ _____    ______ ____
ROOT
ATOM      1  C   UNL     1       4.721   5.878  17.306  0.00  0.00    +0.000 A 
ATOM      2  C   UNL     1       3.435   5.909  17.852  0.00  0.00    +0.000 A 
ATOM      3  C   UNL     1       2.980   4.550  17.969  0.00  0.00    +0.000 A 
ATOM      4  C   UNL     1       1.775   3.944  18.400  0.00  0.00    +0.000 A 
ATOM      5  C   UNL     1       1.688   2.553  18.491  0.00  0.00    +0.000 A 
ATOM      6 CL   UNL     1       0.222   1.829  19.032  0.00  0.00    +0.000 Cl
ATOM      7  C   UNL     1       2.768   1.749  18.158  0.00  0.00    +0.000 A 
ATOM      8  C   UNL     1       3.955   2.316  17.692  0.00  0.00    +0.000 A 
ATOM      9  C   UNL     1       4.030   3.717  17.585  0.00  0.00    +0.000 A 
ATOM     10  N   UNL     1       5.042   4.540  17.112  0.00  0.00    +0.000 N 
ENDROOT
BRANCH   2  11
ATOM     11  C   UNL     1       2.736   7.129  18.289  0.00  0.00    +0.000 A 
ATOM     12  C   UNL     1       2.494   8.204  17.418  0.00  0.00    +0.000 A 
ATOM     13  C   UNL     1       1.886   9.381  17.879  0.00  0.00    +0.000 A 
ATOM     14  C   UNL     1       1.467   9.468  19.200  0.00  0.00    +0.000 A 
ATOM     15  F   UNL     1       0.879  10.590  19.634  0.00  0.00    +0.000 F 
ATOM     16  C   UNL     1       1.657   8.398  20.060  0.00  0.00    +0.000 A 
ATOM     17  F   UNL     1       1.230   8.467  21.329  0.00  0.00    +0.000 F 
ATOM     18  C   UNL     1       2.300   7.242  19.620  0.00  0.00    +0.000 A 
ENDBRANCH   2  11
BRANCH   1  20
ATOM     19  O   UNL     1       6.403   7.459  17.897  0.00  0.00    +0.000 OA
ATOM     20  C   UNL     1       5.631   6.985  17.083  0.00  0.00    +0.000 C 
BRANCH  20  21
ATOM     21  O   UNL     1       5.510   7.497  15.831  0.00  0.00    +0.000 OA
ATOM     22  H   UNL     1       6.358   7.635  15.370  0.00  0.00    +0.000 HD
ENDBRANCH  20  21
ENDBRANCH   1  20
BRANCH  10  23
ATOM     23  C   UNL     1       6.303   4.032  16.552  0.00  0.00    +0.000 C 
BRANCH  23  24
ATOM     24  C   UNL     1       6.385   4.165  15.041  0.00  0.00    +0.000 A 
ATOM     25  C   UNL     1       5.576   3.422  14.164  0.00  0.00    +0.000 A 
ATOM     26  C   UNL     1       5.754   3.492  12.780  0.00  0.00    +0.000 A 
ATOM     27  C   UNL     1       6.750   4.304  12.245  0.00  0.00    +0.000 A 
ATOM     28  C   UNL     1       7.549   5.060  13.097  0.00  0.00    +0.000 A 
ATOM     29 CL   UNL     1       8.778   6.068  12.437  0.00  0.00    +0.000 Cl
ATOM     30  C   UNL     1       7.373   4.996  14.482  0.00  0.00    +0.000 A 
ENDBRANCH  23  24
ENDBRANCH  10  23
TORSDOF 5
ENDMDL
MODEL 2
REMARK VINA RESULT:      -8.1      0.981      1.326
REMARK  Name = 
REMARK  5 active torsions:
REMARK  status: ('A' for Active; 'I' for Inactive)
REMARK    1  A    between atoms: C_2  and  O_3
REMARK    2  A    between atoms: C_2  and  C_4
REMARK    3  A    between atoms: C_5  and  C_6
REMARK    4  A    between atoms: N_21  and  C_22
REMARK    5  A    between atoms: C_22  and  C_23
REMARK                            x       y       z     vdW  Elec       q    Type
REMARK                         _______ _______ _______ _____ _____    ______ ____
ROOT
ATOM      1  C   UNL     1       4.821   5.855  17.352  0.00  0.00    +0.000 A 
ATOM      2  C   UNL     1       3.514   5.888  17.844  0.00  0.00    +0.000 A 
ATOM      3  C   UNL     1       3.051   4.530  17.942  0.00  0.00    +0.000 A 
ATOM      4  C   UNL     1       1.828   3.927  18.323  0.00  0.00    +0.000 A 
ATOM      5  C   UNL     1       1.735   2.536  18.410  0.00  0.00    +0.000 A 
ATOM      6 CL   UNL     1       0.246   1.815  18.891  0.00  0.00    +0.000 Cl
ATOM      7  C   UNL     1       2.826   1.729  18.123  0.00  0.00    +0.000 A 
ATOM      8  C   UNL     1       4.032   2.294  17.706  0.00  0.00    +0.000 A 
ATOM      9  C   UNL     1       4.115   3.695  17.603  0.00  0.00    +0.000 A 
ATOM     10  N   UNL     1       5.147   4.516  17.172  0.00  0.00    +0.000 N 
ENDROOT
BRANCH   2  11
ATOM     11  C   UNL     1       2.799   7.110  18.251  0.00  0.00    +0.000 A 
ATOM     12  C   UNL     1       2.563   8.169  17.360  0.00  0.00    +0.000 A 
ATOM     13  C   UNL     1       1.940   9.349  17.793  0.00  0.00    +0.000 A 
ATOM     14  C   UNL     1       1.500   9.453  19.106  0.00  0.00    +0.000 A 
ATOM     15  F   UNL     1       0.898  10.578  19.514  0.00  0.00    +0.000 F 
ATOM     16  C   UNL     1       1.685   8.398  19.986  0.00  0.00    +0.000 A 
ATOM     17  F   UNL     1       1.238   8.484  21.247  0.00  0.00    +0.000 F 
ATOM     18  C   UNL     1       2.343   7.240  19.573  0.00  0.00    +0.000 A 
ENDBRANCH   2  11
BRANCH   1  20
ATOM     19  O   UNL     1       6.528   7.388  17.991  0.00  0.00    +0.000 OA
ATOM     20  C   UNL     1       5.742   6.960  17.167  0.00  0.00    +0.000 C 
BRANCH  20  21
ATOM     21  O   UNL     1       5.612   7.527  15.940  0.00  0.00    +0.000 OA
ATOM     22  H   UNL     1       6.280   8.209  15.740  0.00  0.00    +0.000 HD
ENDBRANCH  20  21
ENDBRANCH   1  20
BRANCH  10  23
ATOM     23  C   UNL     1       6.429   4.005  16.665  0.00  0.00    +0.000 C 
BRANCH  23  24
ATOM     24  C   UNL     1       6.592   4.176  15.164  0.00  0.00    +0.000 A 
ATOM     25  C   UNL     1       7.605   4.965  14.592  0.00  0.00    +0.000 A 
ATOM     26  C   UNL     1       7.658   5.185  13.213  0.00  0.00    +0.000 A 
ATOM     27  C   UNL     1       6.696   4.623  12.378  0.00  0.00    +0.000 A 
ATOM     28  C   UNL     1       5.697   3.824  12.925  0.00  0.00    +0.000 A 
ATOM     29 CL   UNL     1       4.509   3.125  11.896  0.00  0.00    +0.000 Cl
ATOM     30  C   UNL     1       5.641   3.598  14.304  0.00  0.00    +0.000 A 
ENDBRANCH  23  24
ENDBRANCH  10  23
TORSDOF 5
ENDMDL
MODEL 3
REMARK VINA RESULT:      -8.0      1.216      1.231
REMARK  Name = 
REMARK  5 active torsions:
REMARK  status: ('A' for Active; 'I' for Inactive)
REMARK    1  A    between atoms: C_2  and  O_3
REMARK    2  A    between atoms: C_2  and  C_4
REMARK    3  A    between atoms: C_5  and  C_6
REMARK    4  A    between atoms: N_21  and  C_22
REMARK    5  A    between atoms: C_22  and  C_23
REMARK                            x       y       z     vdW  Elec       q    Type
REMARK                         _______ _______ _______ _____ _____    ______ ____
ROOT
ATOM      1  C   UNL     1       4.610   6.116  17.811  0.00  0.00    +0.000 A 
ATOM      2  C   UNL     1       3.445   6.192  18.579  0.00  0.00    +0.000 A 
ATOM      3  C   UNL     1       3.279   4.928  19.244  0.00  0.00    +0.000 A 
ATOM      4  C   UNL     1       2.294   4.385  20.104  0.00  0.00    +0.000 A 
ATOM      5  C   UNL     1       2.487   3.125  20.675  0.00  0.00    +0.000 A 
ATOM      6 CL   UNL     1       1.290   2.482  21.733  0.00  0.00    +0.000 Cl
ATOM      7  C   UNL     1       3.632   2.389  20.408  0.00  0.00    +0.000 A 
ATOM      8  C   UNL     1       4.600   2.882  19.532  0.00  0.00    +0.000 A 
ATOM      9  C   UNL     1       4.392   4.144  18.946  0.00  0.00    +0.000 A 
ATOM     10  N   UNL     1       5.142   4.849  18.015  0.00  0.00    +0.000 N 
ENDROOT
BRANCH   2  11
ATOM     11  C   UNL     1       2.607   7.395  18.719  0.00  0.00    +0.000 A 
ATOM     12  C   UNL     1       2.341   8.251  17.638  0.00  0.00    +0.000 A 
ATOM     13  C   UNL     1       1.596   9.425  17.815  0.00  0.00    +0.000 A 
ATOM     14  C   UNL     1       1.066   9.723  19.064  0.00  0.00    +0.000 A 
ATOM     15  F   UNL     1       0.347  10.841  19.227  0.00  0.00    +0.000 F 
ATOM     16  C   UNL     1       1.281   8.865  20.130  0.00  0.00    +0.000 A 
ATOM     17  F   UNL     1       0.749   9.134  21.332  0.00  0.00    +0.000 F 
ATOM     18  C   UNL     1       2.058   7.718  19.971  0.00  0.00    +0.000 A 
ENDBRANCH   2  11
BRANCH   1  20
ATOM     19  O   UNL     1       6.074   7.959  17.442  0.00  0.00    +0.000 OA
ATOM     20  C   UNL     1       5.247   7.163  17.036  0.00  0.00    +0.000 C 
BRANCH  20  21
ATOM     21  O   UNL     1       4.785   7.202  15.759  0.00  0.00    +0.000 OA
ATOM     22  H   UNL     1       5.452   7.465  15.099  0.00  0.00    +0.000 HD
ENDBRANCH  20  21
ENDBRANCH   1  20
BRANCH  10  23
ATOM     23  C   UNL     1       6.370   4.324  17.400  0.00  0.00    +0.000 C 
BRANCH  23  24
ATOM     24  C   UNL     1       6.328   4.321  15.882  0.00  0.00    +0.000 A 
ATOM     25  C   UNL     1       5.376   3.594  15.146  0.00  0.00    +0.000 A 
ATOM     26  C   UNL     1       5.434   3.530  13.751  0.00  0.00    +0.000 A 
ATOM     27  C   UNL     1       6.450   4.189  13.064  0.00  0.00    +0.000 A 
ATOM     28  C   UNL     1       7.390   4.929  13.775  0.00  0.00    +0.000 A 
ATOM     29 CL   UNL     1       8.643   5.749  12.927  0.00  0.00    +0.000 Cl
ATOM     30  C   UNL     1       7.334   4.999  15.170  0.00  0.00    +0.000 A 
ENDBRANCH  23  24
ENDBRANCH  10  23
TORSDOF 5
ENDMDL
MODEL 4
REMARK VINA RESULT:      -7.8      0.506      1.242
REMARK  Name = 
REMARK  5 active torsions:
REMARK  status: ('A' for Active; 'I' for Inactive)
REMARK    1  A    between atoms: C_2  and  O_3
REMARK    2  A    between atoms: C_2  and  C_4
REMARK    3  A    between atoms: C_5  and  C_6
REMARK    4  A    between atoms: N_21  and  C_22
REMARK    5  A    between atoms: C_22  and  C_23
REMARK                            x       y       z     vdW  Elec       q    Type
REMARK                         _______ _______ _______ _____ _____    ______ ____
ROOT
ATOM      1  C   UNL     1       4.800   5.863  17.384  0.00  0.00    +0.000 A 
ATOM      2  C   UNL     1       3.517   5.888  17.936  0.00  0.00    +0.000 A 
ATOM      3  C   UNL     1       3.040   4.532  17.991  0.00  0.00    +0.000 A 
ATOM      4  C   UNL     1       1.828   3.926  18.398  0.00  0.00    +0.000 A 
ATOM      5  C   UNL     1       1.719   2.534  18.424  0.00  0.00    +0.000 A 
ATOM      6 CL   UNL     1       0.244   1.808  18.938  0.00  0.00    +0.000 Cl
ATOM      7  C   UNL     1       2.784   1.729  18.049  0.00  0.00    +0.000 A 
ATOM      8  C   UNL     1       3.978   2.299  17.604  0.00  0.00    +0.000 A 
ATOM      9  C   UNL     1       4.075   3.702  17.564  0.00  0.00    +0.000 A 
ATOM     10  N   UNL     1       5.098   4.531  17.125  0.00  0.00    +0.000 N 
ENDROOT
BRANCH   2  11
ATOM     11  C   UNL     1       2.839   7.097  18.434  0.00  0.00    +0.000 A 
ATOM     12  C   UNL     1       2.314   7.178  19.733  0.00  0.00    +0.000 A 
ATOM     13  C   UNL     1       1.614   8.317  20.158  0.00  0.00    +0.000 A 
ATOM     14  C   UNL     1       1.485   9.404  19.302  0.00  0.00    +0.000 A 
ATOM     15  F   UNL     1       0.824  10.493  19.714  0.00  0.00    +0.000 F 
ATOM     16  C   UNL     1       2.038   9.357  18.033  0.00  0.00    +0.000 A 
ATOM     17  F   UNL     1       1.939  10.414  17.213  0.00  0.00    +0.000 F 
ATOM     18  C   UNL     1       2.696   8.211  17.590  0.00  0.00    +0.000 A 
ENDBRANCH   2  11
BRANCH   1  20
ATOM     19  O   UNL     1       6.494   7.401  18.047  0.00  0.00    +0.000 OA
ATOM     20  C   UNL     1       5.727   6.965  17.209  0.00  0.00    +0.000 C 
BRANCH  20  21
ATOM     21  O   UNL     1       5.628   7.519  15.973  0.00  0.00    +0.000 OA
ATOM     22  H   UNL     1       6.481   7.637  15.517  0.00  0.00    +0.000 HD
ENDBRANCH  20  21
ENDBRANCH   1  20
BRANCH  10  23
ATOM     23  C   UNL     1       6.349   4.029  16.535  0.00  0.00    +0.000 C 
BRANCH  23  24
ATOM     24  C   UNL     1       6.397   4.167  15.023  0.00  0.00    +0.000 A 
ATOM     25  C   UNL     1       5.579   3.414  14.162  0.00  0.00    +0.000 A 
ATOM     26  C   UNL     1       5.727   3.491  12.774  0.00  0.00    +0.000 A 
ATOM     27  C   UNL     1       6.700   4.318  12.220  0.00  0.00    +0.000 A 
ATOM     28  C   UNL     1       7.506   5.083  13.057  0.00  0.00    +0.000 A 
ATOM     29 CL   UNL     1       8.706   6.109  12.374  0.00  0.00    +0.000 Cl
ATOM     30  C   UNL     1       7.360   5.013  14.445  0.00  0.00    +0.000 A 
ENDBRANCH  23  24
ENDBRANCH  10  23
TORSDOF 5
ENDMDL
MODEL 5
REMARK VINA RESULT:      -7.5      1.135      1.924
REMARK  Name = 
REMARK  5 active torsions:
REMARK  status: ('A' for Active; 'I' for Inactive)
REMARK    1  A    between atoms: C_2  and  O_3
REMARK    2  A    between atoms: C_2  and  C_4
REMARK    3  A    between atoms: C_5  and  C_6
REMARK    4  A    between atoms: N_21  and  C_22
REMARK    5  A    between atoms: C_22  and  C_23
REMARK                            x       y       z     vdW  Elec       q    Type
REMARK                         _______ _______ _______ _____ _____    ______ ____
ROOT
ATOM      1  C   UNL     1       4.932   5.834  17.419  0.00  0.00    +0.000 A 
ATOM      2  C   UNL     1       3.625   5.863  17.914  0.00  0.00    +0.000 A 
ATOM      3  C   UNL     1       3.137   4.510  17.935  0.00  0.00    +0.000 A 
ATOM      4  C   UNL     1       1.904   3.909  18.282  0.00  0.00    +0.000 A 
ATOM      5  C   UNL     1       1.785   2.517  18.289  0.00  0.00    +0.000 A 
ATOM      6 CL   UNL     1       0.284   1.796  18.729  0.00  0.00    +0.000 Cl
ATOM      7  C   UNL     1       2.862   1.708  17.953  0.00  0.00    +0.000 A 
ATOM      8  C   UNL     1       4.077   2.274  17.568  0.00  0.00    +0.000 A 
ATOM      9  C   UNL     1       4.186   3.677  17.546  0.00  0.00    +0.000 A 
ATOM     10  N   UNL     1       5.232   4.503  17.161  0.00  0.00    +0.000 N 
ENDROOT
BRANCH   2  11
ATOM     11  C   UNL     1       2.934   7.072  18.393  0.00  0.00    +0.000 A 
ATOM     12  C   UNL     1       2.387   7.159  19.683  0.00  0.00    +0.000 A 
ATOM     13  C   UNL     1       1.675   8.297  20.089  0.00  0.00    +0.000 A 
ATOM     14  C   UNL     1       1.554   9.378  19.224  0.00  0.00    +0.000 A 
ATOM     15  F   UNL     1       0.882  10.466  19.618  0.00  0.00    +0.000 F 
ATOM     16  C   UNL     1       2.128   9.325  17.964  0.00  0.00    +0.000 A 
ATOM     17  F   UNL     1       2.038  10.376  17.136  0.00  0.00    +0.000 F 
ATOM     18  C   UNL     1       2.799   8.180  17.539  0.00  0.00    +0.000 A 
ENDBRANCH   2  11
BRANCH   1  20
ATOM     19  O   UNL     1       5.937   7.725  16.375  0.00  0.00    +0.000 OA
ATOM     20  C   UNL     1       5.872   6.931  17.296  0.00  0.00    +0.000 C 
BRANCH  20  21
ATOM     21  O   UNL     1       6.743   6.972  18.338  0.00  0.00    +0.000 OA
ATOM     22  H   UNL     1       6.471   6.442  19.109  0.00  0.00    +0.000 HD
ENDBRANCH  20  21
ENDBRANCH   1  20
BRANCH  10  23
ATOM     23  C   UNL     1       6.504   3.998  16.623  0.00  0.00    +0.000 C 
BRANCH  23  24
ATOM     24  C   UNL     1       6.636   4.182  15.121  0.00  0.00    +0.000 A 
ATOM     25  C   UNL     1       7.626   4.989  14.534  0.00  0.00    +0.000 A 
ATOM     26  C   UNL     1       7.650   5.219  13.156  0.00  0.00    +0.000 A 
ATOM     27  C   UNL     1       6.679   4.650  12.337  0.00  0.00    +0.000 A 
ATOM     28  C   UNL     1       5.702   3.834  12.897  0.00  0.00    +0.000 A 
ATOM     29 CL   UNL     1       4.503   3.126  11.886  0.00  0.00    +0.000 Cl
ATOM     30  C   UNL     1       5.676   3.597  14.275  0.00  0.00    +0.000 A 
ENDBRANCH  23  24
ENDBRANCH  10  23
TORSDOF 5
ENDMDL
MODEL 6
REMARK VINA RESULT:      -7.3      5.518      8.486
REMARK  Name = 
REMARK  5 active torsions:
REMARK  status: ('A' for Active; 'I' for Inactive)
REMARK    1  A    between atoms: C_2  and  O_3
REMARK    2  A    between atoms: C_2  and  C_4
REMARK    3  A    between atoms: C_5  and  C_6
REMARK    4  A    between atoms: N_21  and  C_22
REMARK    5  A    between atoms: C_22  and  C_23
REMARK                            x       y       z     vdW  Elec       q    Type
REMARK                         _______ _______ _______ _____ _____    ______ ____
ROOT
ATOM      1  C   UNL     1       0.020  11.768  20.158  0.00  0.00    +0.000 A 
ATOM      2  C   UNL     1      -1.316  12.132  20.341  0.00  0.00    +0.000 A 
ATOM      3  C   UNL     1      -2.061  11.640  19.214  0.00  0.00    +0.000 A 
ATOM      4  C   UNL     1      -3.414  11.725  18.810  0.00  0.00    +0.000 A 
ATOM      5  C   UNL     1      -3.849  11.029  17.679  0.00  0.00    +0.000 A 
ATOM      6 CL   UNL     1      -5.502  11.126  17.207  0.00  0.00    +0.000 Cl
ATOM      7  C   UNL     1      -2.968  10.256  16.936  0.00  0.00    +0.000 A 
ATOM      8  C   UNL     1      -1.619  10.188  17.288  0.00  0.00    +0.000 A 
ATOM      9  C   UNL     1      -1.184  10.904  18.417  0.00  0.00    +0.000 A 
ATOM     10  N   UNL     1       0.082  11.063  18.962  0.00  0.00    +0.000 N 
ENDROOT
BRANCH   2  11
ATOM     11  C   UNL     1      -1.842  12.827  21.528  0.00  0.00    +0.000 A 
ATOM     12  C   UNL     1      -1.631  14.198  21.746  0.00  0.00    +0.000 A 
ATOM     13  C   UNL     1      -2.086  14.820  22.919  0.00  0.00    +0.000 A 
ATOM     14  C   UNL     1      -2.803  14.085  23.854  0.00  0.00    +0.000 A 
ATOM     15  F   UNL     1      -3.243  14.684  24.968  0.00  0.00    +0.000 F 
ATOM     16  C   UNL     1      -3.059  12.741  23.631  0.00  0.00    +0.000 A 
ATOM     17  F   UNL     1      -3.774  12.034  24.518  0.00  0.00    +0.000 F 
ATOM     18  C   UNL     1      -2.572  12.108  22.489  0.00  0.00    +0.000 A 
ENDBRANCH   2  11
BRANCH   1  20
ATOM     19  O   UNL     1       1.972  12.839  21.006  0.00  0.00    +0.000 OA
ATOM     20  C   UNL     1       1.137  11.955  21.064  0.00  0.00    +0.000 C 
BRANCH  20  21
ATOM     21  O   UNL     1       1.192  10.981  22.009  0.00  0.00    +0.000 OA
ATOM     22  H   UNL     1       1.088  11.303  22.924  0.00  0.00    +0.000 HD
ENDBRANCH  20  21
ENDBRANCH   1  20
BRANCH  10  23
ATOM     23  C   UNL     1       1.297  10.487  18.366  0.00  0.00    +0.000 C 
BRANCH  23  24
ATOM     24  C   UNL     1       1.583   9.071  18.836  0.00  0.00    +0.000 A 
ATOM     25  C   UNL     1       1.178   8.588  20.092  0.00  0.00    +0.000 A 
ATOM     26  C   UNL     1       1.552   7.315  20.533  0.00  0.00    +0.000 A 
ATOM     27  C   UNL     1       2.344   6.503  19.727  0.00  0.00    +0.000 A 
ATOM     28  C   UNL     1       2.740   6.958  18.473  0.00  0.00    +0.000 A 
ATOM     29 CL   UNL     1       3.716   5.953  17.473  0.00  0.00    +0.000 Cl
ATOM     30  C   UNL     1       2.365   8.228  18.026  0.00  0.00    +0.000 A 
ENDBRANCH  23  24
ENDBRANCH  10  23
TORSDOF 5
ENDMDL
MODEL 7
REMARK VINA RESULT:      -7.2      1.395      1.791
REMARK  Name = 
REMARK  5 active torsions:
REMARK  status: ('A' for Active; 'I' for Inactive)
REMARK    1  A    between atoms: C_2  and  O_3
REMARK    2  A    between atoms: C_2  and  C_4
REMARK    3  A    between atoms: C_5  and  C_6
REMARK    4  A    between atoms: N_21  and  C_22
REMARK    5  A    between atoms: C_22  and  C_23
REMARK                            x       y       z     vdW  Elec       q    Type
REMARK                         _______ _______ _______ _____ _____    ______ ____
ROOT
ATOM      1  C   UNL     1       4.642   6.012  17.984  0.00  0.00    +0.000 A 
ATOM      2  C   UNL     1       3.507   6.085  18.795  0.00  0.00    +0.000 A 
ATOM      3  C   UNL     1       3.342   4.805  19.429  0.00  0.00    +0.000 A 
ATOM      4  C   UNL     1       2.379   4.254  20.308  0.00  0.00    +0.000 A 
ATOM      5  C   UNL     1       2.570   2.975  20.837  0.00  0.00    +0.000 A 
ATOM      6 CL   UNL     1       1.399   2.322  21.919  0.00  0.00    +0.000 Cl
ATOM      7  C   UNL     1       3.692   2.229  20.509  0.00  0.00    +0.000 A 
ATOM      8  C   UNL     1       4.637   2.730  19.614  0.00  0.00    +0.000 A 
ATOM      9  C   UNL     1       4.431   4.012  19.070  0.00  0.00    +0.000 A 
ATOM     10  N   UNL     1       5.159   4.731  18.134  0.00  0.00    +0.000 N 
ENDROOT
BRANCH   2  11
ATOM     11  C   UNL     1       2.695   7.297  18.998  0.00  0.00    +0.000 A 
ATOM     12  C   UNL     1       1.995   7.537  20.191  0.00  0.00    +0.000 A 
ATOM     13  C   UNL     1       1.176   8.667  20.332  0.00  0.00    +0.000 A 
ATOM     14  C   UNL     1       1.097   9.592  19.299  0.00  0.00    +0.000 A 
ATOM     15  F   UNL     1       0.321  10.674  19.440  0.00  0.00    +0.000 F 
ATOM     16  C   UNL     1       1.818   9.392  18.132  0.00  0.00    +0.000 A 
ATOM     17  F   UNL     1       1.766  10.297  17.143  0.00  0.00    +0.000 F 
ATOM     18  C   UNL     1       2.599   8.250  17.970  0.00  0.00    +0.000 A 
ENDBRANCH   2  11
BRANCH   1  20
ATOM     19  O   UNL     1       6.145   7.821  17.606  0.00  0.00    +0.000 OA
ATOM     20  C   UNL     1       5.270   7.070  17.216  0.00  0.00    +0.000 C 
BRANCH  20  21
ATOM     21  O   UNL     1       4.738   7.178  15.971  0.00  0.00    +0.000 OA
ATOM     22  H   UNL     1       4.782   8.074  15.592  0.00  0.00    +0.000 HD
ENDBRANCH  20  21
ENDBRANCH   1  20
BRANCH  10  23
ATOM     23  C   UNL     1       6.356   4.204  17.462  0.00  0.00    +0.000 C 
BRANCH  23  24
ATOM     24  C   UNL     1       6.261   4.247  15.946  0.00  0.00    +0.000 A 
ATOM     25  C   UNL     1       5.259   3.577  15.224  0.00  0.00    +0.000 A 
ATOM     26  C   UNL     1       5.266   3.552  13.827  0.00  0.00    +0.000 A 
ATOM     27  C   UNL     1       6.282   4.194  13.123  0.00  0.00    +0.000 A 
ATOM     28  C   UNL     1       7.273   4.877  13.821  0.00  0.00    +0.000 A 
ATOM     29 CL   UNL     1       8.526   5.675  12.953  0.00  0.00    +0.000 Cl
ATOM     30  C   UNL     1       7.267   4.908  15.218  0.00  0.00    +0.000 A 
ENDBRANCH  23  24
ENDBRANCH  10  23
TORSDOF 5
ENDMDL
MODEL 8
REMARK VINA RESULT:      -7.1      5.531      8.560
REMARK  Name = 
REMARK  5 active torsions:
REMARK  status: ('A' for Active; 'I' for Inactive)
REMARK    1  A    between atoms: C_2  and  O_3
REMARK    2  A    between atoms: C_2  and  C_4
REMARK    3  A    between atoms: C_5  and  C_6
REMARK    4  A    between atoms: N_21  and  C_22
REMARK    5  A    between atoms: C_22  and  C_23
REMARK                            x       y       z     vdW  Elec       q    Type
REMARK                         _______ _______ _______ _____ _____    ______ ____
ROOT
ATOM      1  C   UNL     1       0.142  12.210  19.574  0.00  0.00    +0.000 A 
ATOM      2  C   UNL     1      -1.166  12.619  19.846  0.00  0.00    +0.000 A 
ATOM      3  C   UNL     1      -2.046  11.848  19.009  0.00  0.00    +0.000 A 
ATOM      4  C   UNL     1      -3.445  11.829  18.797  0.00  0.00    +0.000 A 
ATOM      5  C   UNL     1      -4.011  10.859  17.967  0.00  0.00    +0.000 A 
ATOM      6 CL   UNL     1      -5.717  10.836  17.730  0.00  0.00    +0.000 Cl
ATOM      7  C   UNL     1      -3.219   9.910  17.337  0.00  0.00    +0.000 A 
ATOM      8  C   UNL     1      -1.833   9.930  17.495  0.00  0.00    +0.000 A 
ATOM      9  C   UNL     1      -1.267  10.920  18.319  0.00  0.00    +0.000 A 
ATOM     10  N   UNL     1       0.058  11.211  18.613  0.00  0.00    +0.000 N 
ENDROOT
BRANCH   2  11
ATOM     11  C   UNL     1      -1.543  13.609  20.868  0.00  0.00    +0.000 A 
ATOM     12  C   UNL     1      -1.429  14.991  20.648  0.00  0.00    +0.000 A 
ATOM     13  C   UNL     1      -1.731  15.910  21.664  0.00  0.00    +0.000 A 
ATOM     14  C   UNL     1      -2.201  15.453  22.888  0.00  0.00    +0.000 A 
ATOM     15  F   UNL     1      -2.497  16.334  23.852  0.00  0.00    +0.000 F 
ATOM     16  C   UNL     1      -2.362  14.094  23.105  0.00  0.00    +0.000 A 
ATOM     17  F   UNL     1      -2.842  13.649  24.276  0.00  0.00    +0.000 F 
ATOM     18  C   UNL     1      -2.023  13.174  22.115  0.00  0.00    +0.000 A 
ENDBRANCH   2  11
BRANCH   1  20
ATOM     19  O   UNL     1       2.188  13.411  19.787  0.00  0.00    +0.000 OA
ATOM     20  C   UNL     1       1.369  12.626  20.227  0.00  0.00    +0.000 C 
BRANCH  20  21
ATOM     21  O   UNL     1       1.547  11.999  21.418  0.00  0.00    +0.000 OA
ATOM     22  H   UNL     1       1.932  11.106  21.348  0.00  0.00    +0.000 HD
ENDBRANCH  20  21
ENDBRANCH   1  20
BRANCH  10  23
ATOM     23  C   UNL     1       1.195  10.489  18.022  0.00  0.00    +0.000 C 
BRANCH  23  24
ATOM     24  C   UNL     1       1.478   9.159  18.698  0.00  0.00    +0.000 A 
ATOM     25  C   UNL     1       1.165   8.905  20.045  0.00  0.00    +0.000 A 
ATOM     26  C   UNL     1       1.538   7.708  20.662  0.00  0.00    +0.000 A 
ATOM     27  C   UNL     1       2.236   6.741  19.944  0.00  0.00    +0.000 A 
ATOM     28  C   UNL     1       2.539   6.967  18.605  0.00  0.00    +0.000 A 
ATOM     29 CL   UNL     1       3.398   5.772  17.715  0.00  0.00    +0.000 Cl
ATOM     30  C   UNL     1       2.165   8.162  17.982  0.00  0.00    +0.000 A 
ENDBRANCH  23  24
ENDBRANCH  10  23
TORSDOF 5
ENDMDL
MODEL 9
REMARK VINA RESULT:      -7.1      5.472      8.512
REMARK  Name = 
REMARK  5 active torsions:
REMARK  status: ('A' for Active; 'I' for Inactive)
REMARK    1  A    between atoms: C_2  and  O_3
REMARK    2  A    between atoms: C_2  and  C_4
REMARK    3  A    between atoms: C_5  and  C_6
REMARK    4  A    between atoms: N_21  and  C_22
REMARK    5  A    between atoms: C_22  and  C_23
REMARK                            x       y       z     vdW  Elec       q    Type
REMARK                         _______ _______ _______ _____ _____    ______ ____
ROOT
ATOM      1  C   UNL     1       0.049  11.659  20.144  0.00  0.00    +0.000 A 
ATOM      2  C   UNL     1      -1.290  12.038  20.273  0.00  0.00    +0.000 A 
ATOM      3  C   UNL     1      -1.993  11.557  19.114  0.00  0.00    +0.000 A 
ATOM      4  C   UNL     1      -3.328  11.657  18.655  0.00  0.00    +0.000 A 
ATOM      5  C   UNL     1      -3.723  10.970  17.505  0.00  0.00    +0.000 A 
ATOM      6 CL   UNL     1      -5.354  11.086  16.965  0.00  0.00    +0.000 Cl
ATOM      7  C   UNL     1      -2.820  10.189  16.797  0.00  0.00    +0.000 A 
ATOM      8  C   UNL     1      -1.488  10.104  17.204  0.00  0.00    +0.000 A 
ATOM      9  C   UNL     1      -1.093  10.814  18.353  0.00  0.00    +0.000 A 
ATOM     10  N   UNL     1       0.152  10.957  18.950  0.00  0.00    +0.000 N 
ENDROOT
BRANCH   2  11
ATOM     11  C   UNL     1      -1.858  12.736  21.440  0.00  0.00    +0.000 A 
ATOM     12  C   UNL     1      -2.268  12.050  22.594  0.00  0.00    +0.000 A 
ATOM     13  C   UNL     1      -2.867  12.733  23.663  0.00  0.00    +0.000 A 
ATOM     14  C   UNL     1      -3.008  14.113  23.605  0.00  0.00    +0.000 A 
ATOM     15  F   UNL     1      -3.572  14.763  24.632  0.00  0.00    +0.000 F 
ATOM     16  C   UNL     1      -2.565  14.810  22.492  0.00  0.00    +0.000 A 
ATOM     17  F   UNL     1      -2.674  16.145  22.444  0.00  0.00    +0.000 F 
ATOM     18  C   UNL     1      -2.009  14.132  21.408  0.00  0.00    +0.000 A 
ENDBRANCH   2  11
BRANCH   1  20
ATOM     19  O   UNL     1       1.966  12.715  21.083  0.00  0.00    +0.000 OA
ATOM     20  C   UNL     1       1.129  11.831  21.096  0.00  0.00    +0.000 C 
BRANCH  20  21
ATOM     21  O   UNL     1       1.145  10.845  22.029  0.00  0.00    +0.000 OA
ATOM     22  H   UNL     1       0.322  10.325  22.079  0.00  0.00    +0.000 HD
ENDBRANCH  20  21
ENDBRANCH   1  20
BRANCH  10  23
ATOM     23  C   UNL     1       1.384  10.369  18.403  0.00  0.00    +0.000 C 
BRANCH  23  24
ATOM     24  C   UNL     1       1.632   8.947  18.874  0.00  0.00    +0.000 A 
ATOM     25  C   UNL     1       1.258   8.490  20.150  0.00  0.00    +0.000 A 
ATOM     26  C   UNL     1       1.598   7.207  20.588  0.00  0.00    +0.000 A 
ATOM     27  C   UNL     1       2.324   6.356  19.759  0.00  0.00    +0.000 A 
ATOM     28  C   UNL     1       2.687   6.785  18.486  0.00  0.00    +0.000 A 
ATOM     29 CL   UNL     1       3.581   5.734  17.458  0.00  0.00    +0.000 Cl
ATOM     30  C   UNL     1       2.346   8.066  18.042  0.00  0.00    +0.000 A 
ENDBRANCH  23  24
ENDBRANCH  10  23
TORSDOF 5
ENDMDL
