MODEL 1
REMARK VINA RESULT:      -9.3      0.000      0.000
REMARK  Name = 
REMARK  8 active torsions:
REMARK  status: ('A' for Active; 'I' for Inactive)
REMARK    1  A    between atoms: C_1  and  C_2
REMARK    2  A    between atoms: C_2  and  C_3
REMARK    3  A    between atoms: C_3  and  C_4
REMARK    4  A    between atoms: C_9  and  O_10
REMARK    5  A    between atoms: O_10  and  C_11
REMARK    6  A    between atoms: C_11  and  C_12
REMARK    7  A    between atoms: N_21  and  C_22
REMARK    8  A    between atoms: C_28  and  C_29
REMARK                            x       y       z     vdW  Elec       q    Type
REMARK                         _______ _______ _______ _____ _____    ______ ____
ROOT
ATOM      1  C   UNL     1       3.843   5.860  18.405  0.00  0.00    +0.000 A 
ATOM      2  C   UNL     1       3.169   5.642  19.620  0.00  0.00    +0.000 A 
ATOM      3  C   UNL     1       2.199   6.534  20.072  0.00  0.00    +0.000 A 
ATOM      4  F   UNL     1       1.592   6.303  21.244  0.00  0.00    +0.000 F 
ATOM      5  C   UNL     1       1.856   7.658  19.337  0.00  0.00    +0.000 A 
ATOM      6  C   UNL     1       2.491   7.895  18.124  0.00  0.00    +0.000 A 
ATOM      7  C   UNL     1       3.482   7.009  17.677  0.00  0.00    +0.000 A 
ENDROOT
BRANCH   1   8
ATOM      8  C   UNL     1       4.969   4.916  17.906  0.00  0.00    +0.000 C 
ATOM      9  C   UNL     1       6.373   5.400  18.397  0.00  0.00    +0.000 C 
ATOM     10  C   UNL     1       7.530   4.652  17.741  0.00  0.00    +0.000 C 
ATOM     11  O   UNL     1       7.463   4.770  16.328  0.00  0.00    +0.000 OA
ATOM     12  C   UNL     1       6.268   4.202  15.790  0.00  0.00    +0.000 C 
ATOM     13  C   UNL     1       6.336   4.368  14.277  0.00  0.00    +0.000 C 
ATOM     14  C   UNL     1       5.032   4.909  16.353  0.00  0.00    +0.000 C 
BRANCH   8  16
ATOM     15  C   UNL     1       3.695   2.608  17.819  0.00  0.00    +0.000 C 
ATOM     16  C   UNL     1       4.729   3.491  18.507  0.00  0.00    +0.000 C 
ENDBRANCH   8  16
ENDBRANCH   1   8
BRANCH   6  17
ATOM     17  O   UNL     1       2.078   9.019  17.461  0.00  0.00    +0.000 OA
BRANCH  17  18
ATOM     18  C   UNL     1       2.127  10.237  18.202  0.00  0.00    +0.000 C 
BRANCH  18  19
ATOM     19  C   UNL     1       0.724  10.687  18.511  0.00  0.00    +0.000 A 
ATOM     20  C   UNL     1       0.495  11.656  19.493  0.00  0.00    +0.000 A 
ATOM     21  C   UNL     1      -0.801  12.098  19.762  0.00  0.00    +0.000 A 
ATOM     22  C   UNL     1      -1.895  11.584  19.053  0.00  0.00    +0.000 A 
ATOM     23  C   UNL     1      -1.665  10.606  18.071  0.00  0.00    +0.000 A 
ATOM     24  C   UNL     1      -2.788  10.046  17.327  0.00  0.00    +0.000 A 
ATOM     25  C   UNL     1      -4.028  10.468  17.579  0.00  0.00    +0.000 A 
ATOM     26  C   UNL     1      -4.313  11.506  18.599  0.00  0.00    +0.000 A 
ATOM     27  O   UNL     1      -5.483  11.848  18.766  0.00  0.00    +0.000 OA
ATOM     28  N   UNL     1      -3.231  12.023  19.301  0.00  0.00    +0.000 N 
ATOM     29  C   UNL     1      -3.482  13.042  20.305  0.00  0.00    +0.000 C 
ATOM     30  C   UNL     1      -0.363  10.165  17.801  0.00  0.00    +0.000 A 
ENDBRANCH  18  19
ENDBRANCH  17  18
ENDBRANCH   6  17
TORSDOF 5
ENDMDL
MODEL 2
REMARK VINA RESULT:      -8.8      2.359      3.350
REMARK  Name = 
REMARK  8 active torsions:
REMARK  status: ('A' for Active; 'I' for Inactive)
REMARK    1  A    between atoms: C_1  and  C_2
REMARK    2  A    between atoms: C_2  and  C_3
REMARK    3  A    between atoms: C_3  and  C_4
REMARK    4  A    between atoms: C_9  and  O_10
REMARK    5  A    between atoms: O_10  and  C_11
REMARK    6  A    between atoms: C_11  and  C_12
REMARK    7  A    between atoms: N_21  and  C_22
REMARK    8  A    between atoms: C_28  and  C_29
REMARK                            x       y       z     vdW  Elec       q    Type
REMARK                         _______ _______ _______ _____ _____    ______ ____
ROOT
ATOM      1  C   UNL     1       3.456   4.547  18.217  0.00  0.00    +0.000 A 
ATOM      2  C   UNL     1       2.728   3.357  18.044  0.00  0.00    +0.000 A 
ATOM      3  C   UNL     1       1.559   3.119  18.765  0.00  0.00    +0.000 A 
ATOM      4  F   UNL     1       0.903   1.964  18.588  0.00  0.00    +0.000 F 
ATOM      5  C   UNL     1       1.068   4.050  19.667  0.00  0.00    +0.000 A 
ATOM      6  C   UNL     1       1.754   5.244  19.851  0.00  0.00    +0.000 A 
ATOM      7  C   UNL     1       2.941   5.477  19.140  0.00  0.00    +0.000 A 
ENDROOT
BRANCH   1   8
ATOM      8  C   UNL     1       4.791   4.813  17.472  0.00  0.00    +0.000 C 
ATOM      9  C   UNL     1       4.974   6.336  17.164  0.00  0.00    +0.000 C 
ATOM     10  C   UNL     1       6.143   6.624  16.227  0.00  0.00    +0.000 C 
ATOM     11  O   UNL     1       5.991   5.916  15.007  0.00  0.00    +0.000 OA
ATOM     12  C   UNL     1       5.973   4.501  15.196  0.00  0.00    +0.000 C 
ATOM     13  C   UNL     1       5.836   3.867  13.817  0.00  0.00    +0.000 C 
ATOM     14  C   UNL     1       4.805   4.089  16.095  0.00  0.00    +0.000 C 
BRANCH   8  16
ATOM     15  C   UNL     1       6.576   5.437  19.310  0.00  0.00    +0.000 C 
ATOM     16  C   UNL     1       5.975   4.376  18.396  0.00  0.00    +0.000 C 
ENDBRANCH   8  16
ENDBRANCH   1   8
BRANCH   6  17
ATOM     17  O   UNL     1       1.188   6.109  20.748  0.00  0.00    +0.000 OA
BRANCH  17  18
ATOM     18  C   UNL     1       1.961   7.261  21.081  0.00  0.00    +0.000 C 
BRANCH  18  19
ATOM     19  C   UNL     1       1.101   8.489  20.951  0.00  0.00    +0.000 A 
ATOM     20  C   UNL     1       0.928   9.099  19.704  0.00  0.00    +0.000 A 
ATOM     21  C   UNL     1       0.107  10.220  19.572  0.00  0.00    +0.000 A 
ATOM     22  C   UNL     1      -0.560  10.753  20.683  0.00  0.00    +0.000 A 
ATOM     23  C   UNL     1      -0.382  10.144  21.936  0.00  0.00    +0.000 A 
ATOM     24  C   UNL     1      -1.057  10.688  23.110  0.00  0.00    +0.000 A 
ATOM     25  C   UNL     1      -1.845  11.757  22.987  0.00  0.00    +0.000 A 
ATOM     26  C   UNL     1      -2.068  12.424  21.682  0.00  0.00    +0.000 A 
ATOM     27  O   UNL     1      -2.817  13.399  21.650  0.00  0.00    +0.000 OA
ATOM     28  N   UNL     1      -1.412  11.894  20.577  0.00  0.00    +0.000 N 
ATOM     29  C   UNL     1      -1.616  12.527  19.285  0.00  0.00    +0.000 C 
ATOM     30  C   UNL     1       0.440   9.018  22.066  0.00  0.00    +0.000 A 
ENDBRANCH  18  19
ENDBRANCH  17  18
ENDBRANCH   6  17
TORSDOF 5
ENDMDL
MODEL 3
REMARK VINA RESULT:      -8.8      2.285      2.844
REMARK  Name = 
REMARK  8 active torsions:
REMARK  status: ('A' for Active; 'I' for Inactive)
REMARK    1  A    between atoms: C_1  and  C_2
REMARK    2  A    between atoms: C_2  and  C_3
REMARK    3  A    between atoms: C_3  and  C_4
REMARK    4  A    between atoms: C_9  and  O_10
REMARK    5  A    between atoms: O_10  and  C_11
REMARK    6  A    between atoms: C_11  and  C_12
REMARK    7  A    between atoms: N_21  and  C_22
REMARK    8  A    between atoms: C_28  and  C_29
REMARK                            x       y       z     vdW  Elec       q    Type
REMARK                         _______ _______ _______ _____ _____    ______ ____
ROOT
ATOM      1  C   UNL     1       3.923   5.901  18.375  0.00  0.00    +0.000 A 
ATOM      2  C   UNL     1       3.220   5.649  19.567  0.00  0.00    +0.000 A 
ATOM      3  C   UNL     1       2.267   6.548  20.041  0.00  0.00    +0.000 A 
ATOM      4  F   UNL     1       1.633   6.283  21.192  0.00  0.00    +0.000 F 
ATOM      5  C   UNL     1       1.969   7.713  19.352  0.00  0.00    +0.000 A 
ATOM      6  C   UNL     1       2.633   7.985  18.162  0.00  0.00    +0.000 A 
ATOM      7  C   UNL     1       3.607   7.091  17.692  0.00  0.00    +0.000 A 
ENDROOT
BRANCH   1   8
ATOM      8  C   UNL     1       5.030   4.948  17.853  0.00  0.00    +0.000 C 
ATOM      9  C   UNL     1       6.444   5.393  18.356  0.00  0.00    +0.000 C 
ATOM     10  C   UNL     1       7.586   4.640  17.682  0.00  0.00    +0.000 C 
ATOM     11  O   UNL     1       7.522   4.793  16.273  0.00  0.00    +0.000 OA
ATOM     12  C   UNL     1       6.317   4.261  15.721  0.00  0.00    +0.000 C 
ATOM     13  C   UNL     1       6.390   4.462  14.213  0.00  0.00    +0.000 C 
ATOM     14  C   UNL     1       5.095   4.978  16.300  0.00  0.00    +0.000 C 
BRANCH   8  16
ATOM     15  C   UNL     1       3.744   2.652  17.684  0.00  0.00    +0.000 C 
ATOM     16  C   UNL     1       4.763   3.514  18.419  0.00  0.00    +0.000 C 
ENDBRANCH   8  16
ENDBRANCH   1   8
BRANCH   6  17
ATOM     17  O   UNL     1       2.264   9.149  17.543  0.00  0.00    +0.000 OA
BRANCH  17  18
ATOM     18  C   UNL     1       0.907   9.550  17.723  0.00  0.00    +0.000 C 
BRANCH  18  19
ATOM     19  C   UNL     1       0.847  10.648  18.751  0.00  0.00    +0.000 A 
ATOM     20  C   UNL     1       1.750  11.714  18.698  0.00  0.00    +0.000 A 
ATOM     21  C   UNL     1       1.679  12.749  19.630  0.00  0.00    +0.000 A 
ATOM     22  C   UNL     1       0.703  12.743  20.635  0.00  0.00    +0.000 A 
ATOM     23  C   UNL     1      -0.201  11.669  20.692  0.00  0.00    +0.000 A 
ATOM     24  C   UNL     1      -1.220  11.632  21.737  0.00  0.00    +0.000 A 
ATOM     25  C   UNL     1      -1.293  12.622  22.628  0.00  0.00    +0.000 A 
ATOM     26  C   UNL     1      -0.365  13.779  22.596  0.00  0.00    +0.000 A 
ATOM     27  O   UNL     1      -0.503  14.655  23.448  0.00  0.00    +0.000 OA
ATOM     28  N   UNL     1       0.601  13.792  21.598  0.00  0.00    +0.000 N 
ATOM     29  C   UNL     1       1.522  14.915  21.543  0.00  0.00    +0.000 C 
ATOM     30  C   UNL     1      -0.130  10.631  19.754  0.00  0.00    +0.000 A 
ENDBRANCH  18  19
ENDBRANCH  17  18
ENDBRANCH   6  17
TORSDOF 5
ENDMDL
MODEL 4
REMARK VINA RESULT:      -8.8      2.507      3.446
REMARK  Name = 
REMARK  8 active torsions:
REMARK  status: ('A' for Active; 'I' for Inactive)
REMARK    1  A    between atoms: C_1  and  C_2
REMARK    2  A    between atoms: C_2  and  C_3
REMARK    3  A    between atoms: C_3  and  C_4
REMARK    4  A    between atoms: C_9  and  O_10
REMARK    5  A    between atoms: O_10  and  C_11
REMARK    6  A    between atoms: C_11  and  C_12
REMARK    7  A    between atoms: N_21  and  C_22
REMARK    8  A    between atoms: C_28  and  C_29
REMARK                            x       y       z     vdW  Elec       q    Type
REMARK                         _______ _______ _______ _____ _____    ______ ____
ROOT
ATOM      1  C   UNL     1       4.622   5.318  17.683  0.00  0.00    +0.000 A 
ATOM      2  C   UNL     1       4.067   4.035  17.532  0.00  0.00    +0.000 A 
ATOM      3  C   UNL     1       2.687   3.841  17.572  0.00  0.00    +0.000 A 
ATOM      4  F   UNL     1       2.196   2.601  17.445  0.00  0.00    +0.000 F 
ATOM      5  C   UNL     1       1.815   4.904  17.748  0.00  0.00    +0.000 A 
ATOM      6  C   UNL     1       2.329   6.188  17.884  0.00  0.00    +0.000 A 
ATOM      7  C   UNL     1       3.719   6.383  17.864  0.00  0.00    +0.000 A 
ENDROOT
BRANCH   1   8
ATOM      8  C   UNL     1       6.155   5.556  17.702  0.00  0.00    +0.000 C 
ATOM      9  C   UNL     1       6.769   5.182  19.091  0.00  0.00    +0.000 C 
ATOM     10  C   UNL     1       8.222   5.619  19.244  0.00  0.00    +0.000 C 
ATOM     11  O   UNL     1       8.346   7.018  19.041  0.00  0.00    +0.000 OA
ATOM     12  C   UNL     1       7.948   7.416  17.728  0.00  0.00    +0.000 C 
ATOM     13  C   UNL     1       8.156   8.922  17.635  0.00  0.00    +0.000 C 
ATOM     14  C   UNL     1       6.481   7.060  17.477  0.00  0.00    +0.000 C 
BRANCH   8  16
ATOM     15  C   UNL     1       6.645   5.014  15.168  0.00  0.00    +0.000 C 
ATOM     16  C   UNL     1       6.818   4.627  16.631  0.00  0.00    +0.000 C 
ENDBRANCH   8  16
ENDBRANCH   1   8
BRANCH   6  17
ATOM     17  O   UNL     1       1.395   7.176  18.037  0.00  0.00    +0.000 OA
BRANCH  17  18
ATOM     18  C   UNL     1       1.887   8.515  18.003  0.00  0.00    +0.000 C 
BRANCH  18  19
ATOM     19  C   UNL     1       1.029   9.381  18.885  0.00  0.00    +0.000 A 
ATOM     20  C   UNL     1       0.335  10.469  18.344  0.00  0.00    +0.000 A 
ATOM     21  C   UNL     1      -0.486  11.256  19.151  0.00  0.00    +0.000 A 
ATOM     22  C   UNL     1      -0.634  10.973  20.515  0.00  0.00    +0.000 A 
ATOM     23  C   UNL     1       0.067   9.884  21.060  0.00  0.00    +0.000 A 
ATOM     24  C   UNL     1      -0.060   9.576  22.480  0.00  0.00    +0.000 A 
ATOM     25  C   UNL     1      -0.847  10.325  23.254  0.00  0.00    +0.000 A 
ATOM     26  C   UNL     1      -1.613  11.476  22.718  0.00  0.00    +0.000 A 
ATOM     27  O   UNL     1      -2.323  12.112  23.495  0.00  0.00    +0.000 OA
ATOM     28  N   UNL     1      -1.473  11.757  21.364  0.00  0.00    +0.000 N 
ATOM     29  C   UNL     1      -2.214  12.878  20.812  0.00  0.00    +0.000 C 
ATOM     30  C   UNL     1       0.889   9.093  20.247  0.00  0.00    +0.000 A 
ENDBRANCH  18  19
ENDBRANCH  17  18
ENDBRANCH   6  17
TORSDOF 5
ENDMDL
MODEL 5
REMARK VINA RESULT:      -8.8      2.361      3.392
REMARK  Name = 
REMARK  8 active torsions:
REMARK  status: ('A' for Active; 'I' for Inactive)
REMARK    1  A    between atoms: C_1  and  C_2
REMARK    2  A    between atoms: C_2  and  C_3
REMARK    3  A    between atoms: C_3  and  C_4
REMARK    4  A    between atoms: C_9  and  O_10
REMARK    5  A    between atoms: O_10  and  C_11
REMARK    6  A    between atoms: C_11  and  C_12
REMARK    7  A    between atoms: N_21  and  C_22
REMARK    8  A    between atoms: C_28  and  C_29
REMARK                            x       y       z     vdW  Elec       q    Type
REMARK                         _______ _______ _______ _____ _____    ______ ____
ROOT
ATOM      1  C   UNL     1       3.164   5.482  18.594  0.00  0.00    +0.000 A 
ATOM      2  C   UNL     1       4.368   5.575  17.874  0.00  0.00    +0.000 A 
ATOM      3  C   UNL     1       4.699   6.736  17.178  0.00  0.00    +0.000 A 
ATOM      4  F   UNL     1       5.846   6.780  16.486  0.00  0.00    +0.000 F 
ATOM      5  C   UNL     1       3.863   7.841  17.182  0.00  0.00    +0.000 A 
ATOM      6  C   UNL     1       2.673   7.789  17.897  0.00  0.00    +0.000 A 
ATOM      7  C   UNL     1       2.328   6.614  18.582  0.00  0.00    +0.000 A 
ENDROOT
BRANCH   1   8
ATOM      8  C   UNL     1       2.741   4.182  19.328  0.00  0.00    +0.000 C 
ATOM      9  C   UNL     1       2.022   4.504  20.680  0.00  0.00    +0.000 C 
ATOM     10  C   UNL     1       1.802   3.271  21.553  0.00  0.00    +0.000 C 
ATOM     11  O   UNL     1       3.035   2.624  21.822  0.00  0.00    +0.000 OA
ATOM     12  C   UNL     1       3.678   2.160  20.635  0.00  0.00    +0.000 C 
ATOM     13  C   UNL     1       4.964   1.465  21.065  0.00  0.00    +0.000 C 
ATOM     14  C   UNL     1       3.988   3.328  19.695  0.00  0.00    +0.000 C 
BRANCH   8  16
ATOM     15  C   UNL     1       2.288   2.389  17.448  0.00  0.00    +0.000 C 
ATOM     16  C   UNL     1       1.722   3.408  18.428  0.00  0.00    +0.000 C 
ENDBRANCH   8  16
ENDBRANCH   1   8
BRANCH   6  17
ATOM     17  O   UNL     1       1.919   8.931  17.856  0.00  0.00    +0.000 OA
BRANCH  17  18
ATOM     18  C   UNL     1       1.443   9.412  19.112  0.00  0.00    +0.000 C 
BRANCH  18  19
ATOM     19  C   UNL     1       0.069   9.998  18.930  0.00  0.00    +0.000 A 
ATOM     20  C   UNL     1      -0.527  10.733  19.960  0.00  0.00    +0.000 A 
ATOM     21  C   UNL     1      -1.788  11.304  19.785  0.00  0.00    +0.000 A 
ATOM     22  C   UNL     1      -2.480  11.154  18.576  0.00  0.00    +0.000 A 
ATOM     23  C   UNL     1      -1.885  10.411  17.543  0.00  0.00    +0.000 A 
ATOM     24  C   UNL     1      -2.590  10.231  16.279  0.00  0.00    +0.000 A 
ATOM     25  C   UNL     1      -3.794  10.778  16.107  0.00  0.00    +0.000 A 
ATOM     26  C   UNL     1      -4.454  11.578  17.167  0.00  0.00    +0.000 A 
ATOM     27  O   UNL     1      -5.561  12.057  16.927  0.00  0.00    +0.000 OA
ATOM     28  N   UNL     1      -3.768  11.733  18.366  0.00  0.00    +0.000 N 
ATOM     29  C   UNL     1      -4.390  12.515  19.421  0.00  0.00    +0.000 C 
ATOM     30  C   UNL     1      -0.618   9.841  17.720  0.00  0.00    +0.000 A 
ENDBRANCH  18  19
ENDBRANCH  17  18
ENDBRANCH   6  17
TORSDOF 5
ENDMDL
MODEL 6
REMARK VINA RESULT:      -8.8      5.530      8.715
REMARK  Name = 
REMARK  8 active torsions:
REMARK  status: ('A' for Active; 'I' for Inactive)
REMARK    1  A    between atoms: C_1  and  C_2
REMARK    2  A    between atoms: C_2  and  C_3
REMARK    3  A    between atoms: C_3  and  C_4
REMARK    4  A    between atoms: C_9  and  O_10
REMARK    5  A    between atoms: O_10  and  C_11
REMARK    6  A    between atoms: C_11  and  C_12
REMARK    7  A    between atoms: N_21  and  C_22
REMARK    8  A    between atoms: C_28  and  C_29
REMARK                            x       y       z     vdW  Elec       q    Type
REMARK                         _______ _______ _______ _____ _____    ______ ____
ROOT
ATOM      1  C   UNL     1       4.639   5.458  17.383  0.00  0.00    +0.000 A 
ATOM      2  C   UNL     1       5.007   4.445  16.480  0.00  0.00    +0.000 A 
ATOM      3  C   UNL     1       6.198   4.523  15.762  0.00  0.00    +0.000 A 
ATOM      4  F   UNL     1       6.506   3.548  14.895  0.00  0.00    +0.000 F 
ATOM      5  C   UNL     1       7.066   5.592  15.920  0.00  0.00    +0.000 A 
ATOM      6  C   UNL     1       6.741   6.603  16.816  0.00  0.00    +0.000 A 
ATOM      7  C   UNL     1       5.533   6.536  17.526  0.00  0.00    +0.000 A 
ENDROOT
BRANCH   1   8
ATOM      8  C   UNL     1       3.292   5.427  18.153  0.00  0.00    +0.000 C 
ATOM      9  C   UNL     1       3.509   5.664  19.684  0.00  0.00    +0.000 C 
ATOM     10  C   UNL     1       2.256   5.406  20.516  0.00  0.00    +0.000 C 
ATOM     11  O   UNL     1       1.784   4.084  20.310  0.00  0.00    +0.000 OA
ATOM     12  C   UNL     1       1.415   3.842  18.952  0.00  0.00    +0.000 C 
ATOM     13  C   UNL     1       0.904   2.408  18.876  0.00  0.00    +0.000 C 
ATOM     14  C   UNL     1       2.617   4.032  18.022  0.00  0.00    +0.000 C 
BRANCH   8  16
ATOM     15  C   UNL     1       2.854   8.014  17.886  0.00  0.00    +0.000 C 
ATOM     16  C   UNL     1       2.387   6.588  17.623  0.00  0.00    +0.000 C 
ENDBRANCH   8  16
ENDBRANCH   1   8
BRANCH   6  17
ATOM     17  O   UNL     1       7.663   7.609  16.918  0.00  0.00    +0.000 OA
BRANCH  17  18
ATOM     18  C   UNL     1       8.195   7.841  18.221  0.00  0.00    +0.000 C 
BRANCH  18  19
ATOM     19  C   UNL     1       8.503   9.307  18.377  0.00  0.00    +0.000 A 
ATOM     20  C   UNL     1       7.991  10.235  17.464  0.00  0.00    +0.000 A 
ATOM     21  C   UNL     1       8.248  11.597  17.622  0.00  0.00    +0.000 A 
ATOM     22  C   UNL     1       9.019  12.062  18.696  0.00  0.00    +0.000 A 
ATOM     23  C   UNL     1       9.538  11.128  19.609  0.00  0.00    +0.000 A 
ATOM     24  C   UNL     1      10.355  11.585  20.729  0.00  0.00    +0.000 A 
ATOM     25  C   UNL     1      10.599  12.887  20.884  0.00  0.00    +0.000 A 
ATOM     26  C   UNL     1      10.062  13.906  19.950  0.00  0.00    +0.000 A 
ATOM     27  O   UNL     1      10.326  15.087  20.167  0.00  0.00    +0.000 OA
ATOM     28  N   UNL     1       9.292  13.450  18.887  0.00  0.00    +0.000 N 
ATOM     29  C   UNL     1       8.751  14.427  17.957  0.00  0.00    +0.000 C 
ATOM     30  C   UNL     1       9.277   9.761  19.450  0.00  0.00    +0.000 A 
ENDBRANCH  18  19
ENDBRANCH  17  18
ENDBRANCH   6  17
TORSDOF 5
ENDMDL
MODEL 7
REMARK VINA RESULT:      -8.7      2.291      2.950
REMARK  Name = 
REMARK  8 active torsions:
REMARK  status: ('A' for Active; 'I' for Inactive)
REMARK    1  A    between atoms: C_1  and  C_2
REMARK    2  A    between atoms: C_2  and  C_3
REMARK    3  A    between atoms: C_3  and  C_4
REMARK    4  A    between atoms: C_9  and  O_10
REMARK    5  A    between atoms: O_10  and  C_11
REMARK    6  A    between atoms: C_11  and  C_12
REMARK    7  A    between atoms: N_21  and  C_22
REMARK    8  A    between atoms: C_28  and  C_29
REMARK                            x       y       z     vdW  Elec       q    Type
REMARK                         _______ _______ _______ _____ _____    ______ ____
ROOT
ATOM      1  C   UNL     1       3.431   4.747  18.437  0.00  0.00    +0.000 A 
ATOM      2  C   UNL     1       2.664   3.574  18.324  0.00  0.00    +0.000 A 
ATOM      3  C   UNL     1       1.504   3.400  19.076  0.00  0.00    +0.000 A 
ATOM      4  F   UNL     1       0.810   2.260  18.956  0.00  0.00    +0.000 F 
ATOM      5  C   UNL     1       1.058   4.379  19.950  0.00  0.00    +0.000 A 
ATOM      6  C   UNL     1       1.784   5.558  20.074  0.00  0.00    +0.000 A 
ATOM      7  C   UNL     1       2.963   5.727  19.333  0.00  0.00    +0.000 A 
ENDROOT
BRANCH   1   8
ATOM      8  C   UNL     1       4.758   4.943  17.657  0.00  0.00    +0.000 C 
ATOM      9  C   UNL     1       5.021   6.456  17.358  0.00  0.00    +0.000 C 
ATOM     10  C   UNL     1       6.179   6.686  16.391  0.00  0.00    +0.000 C 
ATOM     11  O   UNL     1       5.952   6.000  15.170  0.00  0.00    +0.000 OA
ATOM     12  C   UNL     1       5.858   4.586  15.347  0.00  0.00    +0.000 C 
ATOM     13  C   UNL     1       5.646   3.976  13.967  0.00  0.00    +0.000 C 
ATOM     14  C   UNL     1       4.692   4.234  16.275  0.00  0.00    +0.000 C 
BRANCH   8  16
ATOM     15  C   UNL     1       6.689   5.462  19.377  0.00  0.00    +0.000 C 
ATOM     16  C   UNL     1       5.940   4.429  18.545  0.00  0.00    +0.000 C 
ENDBRANCH   8  16
ENDBRANCH   1   8
BRANCH   6  17
ATOM     17  O   UNL     1       1.261   6.473  20.948  0.00  0.00    +0.000 OA
BRANCH  17  18
ATOM     18  C   UNL     1       1.928   7.733  21.008  0.00  0.00    +0.000 C 
BRANCH  18  19
ATOM     19  C   UNL     1       0.914   8.821  21.237  0.00  0.00    +0.000 A 
ATOM     20  C   UNL     1       0.551   9.184  22.539  0.00  0.00    +0.000 A 
ATOM     21  C   UNL     1      -0.366  10.213  22.757  0.00  0.00    +0.000 A 
ATOM     22  C   UNL     1      -0.939  10.902  21.680  0.00  0.00    +0.000 A 
ATOM     23  C   UNL     1      -0.579  10.533  20.373  0.00  0.00    +0.000 A 
ATOM     24  C   UNL     1      -1.170  11.228  19.234  0.00  0.00    +0.000 A 
ATOM     25  C   UNL     1      -2.045  12.214  19.438  0.00  0.00    +0.000 A 
ATOM     26  C   UNL     1      -2.444  12.641  20.802  0.00  0.00    +0.000 A 
ATOM     27  O   UNL     1      -3.249  13.565  20.906  0.00  0.00    +0.000 OA
ATOM     28  N   UNL     1      -1.874  11.964  21.873  0.00  0.00    +0.000 N 
ATOM     29  C   UNL     1      -2.245  12.364  23.219  0.00  0.00    +0.000 C 
ATOM     30  C   UNL     1       0.344   9.502  20.156  0.00  0.00    +0.000 A 
ENDBRANCH  18  19
ENDBRANCH  17  18
ENDBRANCH   6  17
TORSDOF 5
ENDMDL
MODEL 8
REMARK VINA RESULT:      -8.6      2.741      3.895
REMARK  Name = 
REMARK  8 active torsions:
REMARK  status: ('A' for Active; 'I' for Inactive)
REMARK    1  A    between atoms: C_1  and  C_2
REMARK    2  A    between atoms: C_2  and  C_3
REMARK    3  A    between atoms: C_3  and  C_4
REMARK    4  A    between atoms: C_9  and  O_10
REMARK    5  A    between atoms: O_10  and  C_11
REMARK    6  A    between atoms: C_11  and  C_12
REMARK    7  A    between atoms: N_21  and  C_22
REMARK    8  A    between atoms: C_28  and  C_29
REMARK                            x       y       z     vdW  Elec       q    Type
REMARK                         _______ _______ _______ _____ _____    ______ ____
ROOT
ATOM      1  C   UNL     1       3.907   6.026  18.296  0.00  0.00    +0.000 A 
ATOM      2  C   UNL     1       3.230   5.750  19.497  0.00  0.00    +0.000 A 
ATOM      3  C   UNL     1       2.288   6.640  20.010  0.00  0.00    +0.000 A 
ATOM      4  F   UNL     1       1.677   6.352  21.167  0.00  0.00    +0.000 F 
ATOM      5  C   UNL     1       1.977   7.819  19.351  0.00  0.00    +0.000 A 
ATOM      6  C   UNL     1       2.617   8.115  18.153  0.00  0.00    +0.000 A 
ATOM      7  C   UNL     1       3.580   7.230  17.645  0.00  0.00    +0.000 A 
ENDROOT
BRANCH   1   8
ATOM      8  C   UNL     1       5.002   5.083  17.732  0.00  0.00    +0.000 C 
ATOM      9  C   UNL     1       6.397   5.387  18.372  0.00  0.00    +0.000 C 
ATOM     10  C   UNL     1       7.547   4.658  17.684  0.00  0.00    +0.000 C 
ATOM     11  O   UNL     1       7.587   4.981  16.303  0.00  0.00    +0.000 OA
ATOM     12  C   UNL     1       6.399   4.585  15.616  0.00  0.00    +0.000 C 
ATOM     13  C   UNL     1       6.584   4.960  14.151  0.00  0.00    +0.000 C 
ATOM     14  C   UNL     1       5.175   5.294  16.201  0.00  0.00    +0.000 C 
BRANCH   8  16
ATOM     15  C   UNL     1       3.367   3.029  17.475  0.00  0.00    +0.000 C 
ATOM     16  C   UNL     1       4.630   3.608  18.100  0.00  0.00    +0.000 C 
ENDBRANCH   8  16
ENDBRANCH   1   8
BRANCH   6  17
ATOM     17  O   UNL     1       2.237   9.292  17.566  0.00  0.00    +0.000 OA
BRANCH  17  18
ATOM     18  C   UNL     1       1.004   9.848  18.020  0.00  0.00    +0.000 C 
BRANCH  18  19
ATOM     19  C   UNL     1       1.177  11.329  18.232  0.00  0.00    +0.000 A 
ATOM     20  C   UNL     1       0.091  12.115  18.629  0.00  0.00    +0.000 A 
ATOM     21  C   UNL     1       0.253  13.482  18.857  0.00  0.00    +0.000 A 
ATOM     22  C   UNL     1       1.504  14.092  18.696  0.00  0.00    +0.000 A 
ATOM     23  C   UNL     1       2.594  13.303  18.292  0.00  0.00    +0.000 A 
ATOM     24  C   UNL     1       3.905  13.916  18.105  0.00  0.00    +0.000 A 
ATOM     25  C   UNL     1       4.064  15.222  18.325  0.00  0.00    +0.000 A 
ATOM     26  C   UNL     1       2.943  16.088  18.763  0.00  0.00    +0.000 A 
ATOM     27  O   UNL     1       3.173  17.282  18.953  0.00  0.00    +0.000 OA
ATOM     28  N   UNL     1       1.701  15.487  18.929  0.00  0.00    +0.000 N 
ATOM     29  C   UNL     1       0.586  16.312  19.359  0.00  0.00    +0.000 C 
ATOM     30  C   UNL     1       2.430  11.930  18.066  0.00  0.00    +0.000 A 
ENDBRANCH  18  19
ENDBRANCH  17  18
ENDBRANCH   6  17
TORSDOF 5
ENDMDL
MODEL 9
REMARK VINA RESULT:      -8.6      1.208      1.466
REMARK  Name = 
REMARK  8 active torsions:
REMARK  status: ('A' for Active; 'I' for Inactive)
REMARK    1  A    between atoms: C_1  and  C_2
REMARK    2  A    between atoms: C_2  and  C_3
REMARK    3  A    between atoms: C_3  and  C_4
REMARK    4  A    between atoms: C_9  and  O_10
REMARK    5  A    between atoms: O_10  and  C_11
REMARK    6  A    between atoms: C_11  and  C_12
REMARK    7  A    between atoms: N_21  and  C_22
REMARK    8  A    between atoms: C_28  and  C_29
REMARK                            x       y       z     vdW  Elec       q    Type
REMARK                         _______ _______ _______ _____ _____    ______ ____
ROOT
ATOM      1  C   UNL     1       4.078   6.106  18.240  0.00  0.00    +0.000 A 
ATOM      2  C   UNL     1       3.534   5.434  19.349  0.00  0.00    +0.000 A 
ATOM      3  C   UNL     1       2.428   5.945  20.025  0.00  0.00    +0.000 A 
ATOM      4  F   UNL     1       1.950   5.287  21.090  0.00  0.00    +0.000 F 
ATOM      5  C   UNL     1       1.818   7.123  19.623  0.00  0.00    +0.000 A 
ATOM      6  C   UNL     1       2.320   7.805  18.521  0.00  0.00    +0.000 A 
ATOM      7  C   UNL     1       3.446   7.303  17.850  0.00  0.00    +0.000 A 
ENDROOT
BRANCH   1   8
ATOM      8  C   UNL     1       5.343   5.592  17.504  0.00  0.00    +0.000 C 
ATOM      9  C   UNL     1       6.255   6.779  17.047  0.00  0.00    +0.000 C 
ATOM     10  C   UNL     1       7.383   6.348  16.115  0.00  0.00    +0.000 C 
ATOM     11  O   UNL     1       6.860   5.693  14.970  0.00  0.00    +0.000 OA
ATOM     12  C   UNL     1       6.143   4.503  15.302  0.00  0.00    +0.000 C 
ATOM     13  C   UNL     1       5.665   3.889  13.992  0.00  0.00    +0.000 C 
ATOM     14  C   UNL     1       4.953   4.825  16.209  0.00  0.00    +0.000 C 
BRANCH   8  16
ATOM     15  C   UNL     1       7.111   5.445  19.456  0.00  0.00    +0.000 C 
ATOM     16  C   UNL     1       6.178   4.717  18.497  0.00  0.00    +0.000 C 
ENDBRANCH   8  16
ENDBRANCH   1   8
BRANCH   6  17
ATOM     17  O   UNL     1       1.647   8.949  18.187  0.00  0.00    +0.000 OA
BRANCH  17  18
ATOM     18  C   UNL     1       1.291   9.804  19.272  0.00  0.00    +0.000 C 
BRANCH  18  19
ATOM     19  C   UNL     1      -0.106  10.322  19.057  0.00  0.00    +0.000 A 
ATOM     20  C   UNL     1      -0.739  11.076  20.051  0.00  0.00    +0.000 A 
ATOM     21  C   UNL     1      -2.022  11.584  19.844  0.00  0.00    +0.000 A 
ATOM     22  C   UNL     1      -2.699  11.351  18.640  0.00  0.00    +0.000 A 
ATOM     23  C   UNL     1      -2.066  10.589  17.644  0.00  0.00    +0.000 A 
ATOM     24  C   UNL     1      -2.755  10.321  16.386  0.00  0.00    +0.000 A 
ATOM     25  C   UNL     1      -3.980  10.808  16.184  0.00  0.00    +0.000 A 
ATOM     26  C   UNL     1      -4.680  11.626  17.204  0.00  0.00    +0.000 A 
ATOM     27  O   UNL     1      -5.805  12.046  16.938  0.00  0.00    +0.000 OA
ATOM     28  N   UNL     1      -4.009  11.864  18.397  0.00  0.00    +0.000 N 
ATOM     29  C   UNL     1      -4.671  12.665  19.413  0.00  0.00    +0.000 C 
ATOM     30  C   UNL     1      -0.777  10.081  17.853  0.00  0.00    +0.000 A 
ENDBRANCH  18  19
ENDBRANCH  17  18
ENDBRANCH   6  17
TORSDOF 5
ENDMDL
