MODEL 1
REMARK VINA RESULT:      -8.6      0.000      0.000
REMARK  Name = 
REMARK  8 active torsions:
REMARK  status: ('A' for Active; 'I' for Inactive)
REMARK    1  A    between atoms: C_1  and  O_2
REMARK    2  A    between atoms: O_2  and  C_3
REMARK    3  A    between atoms: C_8  and  C_9
REMARK    4  A    between atoms: N_11  and  C_12
REMARK    5  A    between atoms: C_15  and  O_16
REMARK    6  A    between atoms: O_16  and  C_17
REMARK    7  A    between atoms: C_17  and  C_18
REMARK    8  A    between atoms: C_24  and  C_25
REMARK                            x       y       z     vdW  Elec       q    Type
REMARK                         _______ _______ _______ _____ _____    ______ ____
ROOT
ATOM      1  C   UNL     1       8.022   7.361  18.424  0.00  0.00    +0.000 A 
ATOM      2  C   UNL     1       7.370   7.352  17.188  0.00  0.00    +0.000 A 
ATOM      3  C   UNL     1       6.551   6.299  16.800  0.00  0.00    +0.000 A 
ATOM      4  C   UNL     1       6.397   5.197  17.628  0.00  0.00    +0.000 A 
ATOM      5  C   UNL     1       6.978   5.211  18.897  0.00  0.00    +0.000 A 
ATOM      6  C   UNL     1       7.794   6.288  19.293  0.00  0.00    +0.000 A 
ENDROOT
BRANCH   1   9
ATOM      7  C   UNL     1       8.755   9.739  18.464  0.00  0.00    +0.000 C 
ATOM      8  O   UNL     1       7.828  10.189  17.791  0.00  0.00    +0.000 OA
ATOM      9  N   UNL     1       8.901   8.405  18.810  0.00  0.00    +0.000 N 
ATOM     10  H   UNL     1       9.715   8.161  19.366  0.00  0.00    +0.000 HD
BRANCH   7  16
ATOM     11  C   UNL     1       9.940  11.214  20.228  0.00  0.00    +0.000 A 
ATOM     12  C   UNL     1      10.934  12.180  20.466  0.00  0.00    +0.000 A 
ATOM     13  C   UNL     1      11.767  12.639  19.440  0.00  0.00    +0.000 A 
ATOM     14  C   UNL     1      11.618  12.151  18.153  0.00  0.00    +0.000 A 
ATOM     15  C   UNL     1      10.624  11.215  17.898  0.00  0.00    +0.000 A 
ATOM     16  C   UNL     1       9.766  10.739  18.918  0.00  0.00    +0.000 A 
BRANCH  11  18
ATOM     17  C   UNL     1       8.516  11.712  22.062  0.00  0.00    +0.000 C 
ATOM     18  O   UNL     1       9.119  10.730  21.218  0.00  0.00    +0.000 OA
ENDBRANCH  11  18
ENDBRANCH   7  16
ENDBRANCH   1   9
BRANCH   4  19
ATOM     19  O   UNL     1       5.712   4.071  17.257  0.00  0.00    +0.000 OA
BRANCH  19  20
ATOM     20  C   UNL     1       4.339   4.324  16.909  0.00  0.00    +0.000 C 
BRANCH  20  21
ATOM     21  C   UNL     1       3.594   5.029  18.021  0.00  0.00    +0.000 A 
ATOM     22  C   UNL     1       3.307   4.418  19.181  0.00  0.00    +0.000 A 
ATOM     23  C   UNL     1       2.563   5.148  20.223  0.00  0.00    +0.000 A 
ATOM     24  O   UNL     1       2.295   4.596  21.286  0.00  0.00    +0.000 OA
ATOM     25  N   UNL     1       2.231   6.434  19.883  0.00  0.00    +0.000 N 
ATOM     26  C   UNL     1       1.562   7.311  20.705  0.00  0.00    +0.000 A 
ATOM     27  C   UNL     1       1.359   8.520  20.164  0.00  0.00    +0.000 A 
ATOM     28  C   UNL     1       0.703   9.685  20.812  0.00  0.00    +0.000 C 
ATOM     29  S   UNL     1       2.004   8.602  18.539  0.00  0.00    +0.000 S 
ATOM     30  C   UNL     1       2.576   6.946  18.655  0.00  0.00    +0.000 A 
ATOM     31  N   UNL     1       3.224   6.328  17.729  0.00  0.00    +0.000 NA
ENDBRANCH  20  21
ENDBRANCH  19  20
ENDBRANCH   4  19
TORSDOF 6
ENDMDL
MODEL 2
REMARK VINA RESULT:      -7.8      5.295      8.963
REMARK  Name = 
REMARK  8 active torsions:
REMARK  status: ('A' for Active; 'I' for Inactive)
REMARK    1  A    between atoms: C_1  and  O_2
REMARK    2  A    between atoms: O_2  and  C_3
REMARK    3  A    between atoms: C_8  and  C_9
REMARK    4  A    between atoms: N_11  and  C_12
REMARK    5  A    between atoms: C_15  and  O_16
REMARK    6  A    between atoms: O_16  and  C_17
REMARK    7  A    between atoms: C_17  and  C_18
REMARK    8  A    between atoms: C_24  and  C_25
REMARK                            x       y       z     vdW  Elec       q    Type
REMARK                         _______ _______ _______ _____ _____    ______ ____
ROOT
ATOM      1  C   UNL     1       1.896   8.192  19.233  0.00  0.00    +0.000 A 
ATOM      2  C   UNL     1       1.661   7.773  20.544  0.00  0.00    +0.000 A 
ATOM      3  C   UNL     1       1.075   8.608  21.487  0.00  0.00    +0.000 A 
ATOM      4  C   UNL     1       0.746   9.912  21.150  0.00  0.00    +0.000 A 
ATOM      5  C   UNL     1       0.902  10.335  19.829  0.00  0.00    +0.000 A 
ATOM      6  C   UNL     1       1.482   9.480  18.872  0.00  0.00    +0.000 A 
ENDROOT
BRANCH   1   9
ATOM      7  C   UNL     1       3.435   6.351  18.573  0.00  0.00    +0.000 C 
ATOM      8  O   UNL     1       3.768   6.024  19.712  0.00  0.00    +0.000 OA
ATOM      9  N   UNL     1       2.540   7.366  18.276  0.00  0.00    +0.000 N 
ATOM     10  H   UNL     1       2.352   7.541  17.294  0.00  0.00    +0.000 HD
BRANCH   7  16
ATOM     11  C   UNL     1       3.922   4.190  17.239  0.00  0.00    +0.000 A 
ATOM     12  C   UNL     1       4.613   3.616  16.156  0.00  0.00    +0.000 A 
ATOM     13  C   UNL     1       5.395   4.392  15.293  0.00  0.00    +0.000 A 
ATOM     14  C   UNL     1       5.511   5.756  15.501  0.00  0.00    +0.000 A 
ATOM     15  C   UNL     1       4.855   6.333  16.580  0.00  0.00    +0.000 A 
ATOM     16  C   UNL     1       4.063   5.568  17.468  0.00  0.00    +0.000 A 
BRANCH  11  18
ATOM     17  C   UNL     1       3.822   2.552  18.956  0.00  0.00    +0.000 C 
ATOM     18  O   UNL     1       3.133   3.457  18.092  0.00  0.00    +0.000 OA
ENDBRANCH  11  18
ENDBRANCH   7  16
ENDBRANCH   1   9
BRANCH   4  19
ATOM     19  O   UNL     1       0.285  10.828  22.058  0.00  0.00    +0.000 OA
BRANCH  19  20
ATOM     20  C   UNL     1      -0.103  12.080  21.464  0.00  0.00    +0.000 C 
BRANCH  20  21
ATOM     21  C   UNL     1      -1.599  12.289  21.512  0.00  0.00    +0.000 A 
ATOM     22  C   UNL     1      -2.339  12.381  20.395  0.00  0.00    +0.000 A 
ATOM     23  C   UNL     1      -3.792  12.603  20.502  0.00  0.00    +0.000 A 
ATOM     24  O   UNL     1      -4.475  12.690  19.485  0.00  0.00    +0.000 OA
ATOM     25  N   UNL     1      -4.257  12.692  21.788  0.00  0.00    +0.000 N 
ATOM     26  C   UNL     1      -5.577  12.869  22.131  0.00  0.00    +0.000 A 
ATOM     27  C   UNL     1      -5.798  12.912  23.452  0.00  0.00    +0.000 A 
ATOM     28  C   UNL     1      -7.112  13.056  24.129  0.00  0.00    +0.000 C 
ATOM     29  S   UNL     1      -4.304  12.747  24.348  0.00  0.00    +0.000 S 
ATOM     30  C   UNL     1      -3.395  12.588  22.854  0.00  0.00    +0.000 A 
ATOM     31  N   UNL     1      -2.123  12.396  22.787  0.00  0.00    +0.000 NA
ENDBRANCH  20  21
ENDBRANCH  19  20
ENDBRANCH   4  19
TORSDOF 6
ENDMDL
MODEL 3
REMARK VINA RESULT:      -7.7      5.131      8.440
REMARK  Name = 
REMARK  8 active torsions:
REMARK  status: ('A' for Active; 'I' for Inactive)
REMARK    1  A    between atoms: C_1  and  O_2
REMARK    2  A    between atoms: O_2  and  C_3
REMARK    3  A    between atoms: C_8  and  C_9
REMARK    4  A    between atoms: N_11  and  C_12
REMARK    5  A    between atoms: C_15  and  O_16
REMARK    6  A    between atoms: O_16  and  C_17
REMARK    7  A    between atoms: C_17  and  C_18
REMARK    8  A    between atoms: C_24  and  C_25
REMARK                            x       y       z     vdW  Elec       q    Type
REMARK                         _______ _______ _______ _____ _____    ______ ____
ROOT
ATOM      1  C   UNL     1       2.214   7.682  18.530  0.00  0.00    +0.000 A 
ATOM      2  C   UNL     1       1.898   7.577  19.887  0.00  0.00    +0.000 A 
ATOM      3  C   UNL     1       1.262   8.604  20.572  0.00  0.00    +0.000 A 
ATOM      4  C   UNL     1       0.964   9.792  19.922  0.00  0.00    +0.000 A 
ATOM      5  C   UNL     1       1.202   9.897  18.551  0.00  0.00    +0.000 A 
ATOM      6  C   UNL     1       1.832   8.847  17.856  0.00  0.00    +0.000 A 
ENDROOT
BRANCH   1   9
ATOM      7  C   UNL     1       4.212   6.755  17.370  0.00  0.00    +0.000 C 
ATOM      8  O   UNL     1       4.940   7.734  17.528  0.00  0.00    +0.000 OA
ATOM      9  N   UNL     1       2.909   6.660  17.832  0.00  0.00    +0.000 N 
ATOM     10  H   UNL     1       2.412   5.798  17.633  0.00  0.00    +0.000 HD
BRANCH   7  16
ATOM     11  C   UNL     1       4.758   4.256  16.986  0.00  0.00    +0.000 A 
ATOM     12  C   UNL     1       5.416   3.315  16.174  0.00  0.00    +0.000 A 
ATOM     13  C   UNL     1       6.091   3.700  15.010  0.00  0.00    +0.000 A 
ATOM     14  C   UNL     1       6.129   5.033  14.638  0.00  0.00    +0.000 A 
ATOM     15  C   UNL     1       5.504   5.976  15.443  0.00  0.00    +0.000 A 
ATOM     16  C   UNL     1       4.821   5.612  16.627  0.00  0.00    +0.000 A 
BRANCH  11  18
ATOM     17  C   UNL     1       3.053   2.920  17.961  0.00  0.00    +0.000 C 
ATOM     18  O   UNL     1       4.072   3.907  18.125  0.00  0.00    +0.000 OA
ENDBRANCH  11  18
ENDBRANCH   7  16
ENDBRANCH   1   9
BRANCH   4  19
ATOM     19  O   UNL     1       0.456  10.890  20.564  0.00  0.00    +0.000 OA
BRANCH  19  20
ATOM     20  C   UNL     1       0.048  11.940  19.668  0.00  0.00    +0.000 C 
BRANCH  20  21
ATOM     21  C   UNL     1      -1.449  11.954  19.458  0.00  0.00    +0.000 A 
ATOM     22  C   UNL     1      -2.008  11.537  18.310  0.00  0.00    +0.000 A 
ATOM     23  C   UNL     1      -3.473  11.590  18.154  0.00  0.00    +0.000 A 
ATOM     24  O   UNL     1      -3.992  11.213  17.107  0.00  0.00    +0.000 OA
ATOM     25  N   UNL     1      -4.140  12.077  19.248  0.00  0.00    +0.000 N 
ATOM     26  C   UNL     1      -5.508  12.191  19.341  0.00  0.00    +0.000 A 
ATOM     27  C   UNL     1      -5.936  12.681  20.512  0.00  0.00    +0.000 A 
ATOM     28  C   UNL     1      -7.348  12.886  20.927  0.00  0.00    +0.000 C 
ATOM     29  S   UNL     1      -4.594  13.049  21.573  0.00  0.00    +0.000 S 
ATOM     30  C   UNL     1      -3.452  12.480  20.367  0.00  0.00    +0.000 A 
ATOM     31  N   UNL     1      -2.174  12.445  20.527  0.00  0.00    +0.000 NA
ENDBRANCH  20  21
ENDBRANCH  19  20
ENDBRANCH   4  19
TORSDOF 6
ENDMDL
MODEL 4
REMARK VINA RESULT:      -7.7      3.091      9.464
REMARK  Name = 
REMARK  8 active torsions:
REMARK  status: ('A' for Active; 'I' for Inactive)
REMARK    1  A    between atoms: C_1  and  O_2
REMARK    2  A    between atoms: O_2  and  C_3
REMARK    3  A    between atoms: C_8  and  C_9
REMARK    4  A    between atoms: N_11  and  C_12
REMARK    5  A    between atoms: C_15  and  O_16
REMARK    6  A    between atoms: O_16  and  C_17
REMARK    7  A    between atoms: C_17  and  C_18
REMARK    8  A    between atoms: C_24  and  C_25
REMARK                            x       y       z     vdW  Elec       q    Type
REMARK                         _______ _______ _______ _____ _____    ______ ____
ROOT
ATOM      1  C   UNL     1       5.986   6.014  18.397  0.00  0.00    +0.000 A 
ATOM      2  C   UNL     1       5.733   6.953  17.394  0.00  0.00    +0.000 A 
ATOM      3  C   UNL     1       6.660   7.929  17.053  0.00  0.00    +0.000 A 
ATOM      4  C   UNL     1       7.858   8.021  17.745  0.00  0.00    +0.000 A 
ATOM      5  C   UNL     1       8.168   7.053  18.702  0.00  0.00    +0.000 A 
ATOM      6  C   UNL     1       7.233   6.055  19.033  0.00  0.00    +0.000 A 
ENDROOT
BRANCH   1   9
ATOM      7  C   UNL     1       3.785   5.327  19.335  0.00  0.00    +0.000 C 
ATOM      8  O   UNL     1       3.349   6.461  19.530  0.00  0.00    +0.000 OA
ATOM      9  N   UNL     1       5.027   5.045  18.789  0.00  0.00    +0.000 N 
ATOM     10  H   UNL     1       5.271   4.065  18.683  0.00  0.00    +0.000 HD
BRANCH   7  16
ATOM     11  C   UNL     1       2.435   3.164  18.900  0.00  0.00    +0.000 A 
ATOM     12  C   UNL     1       1.554   2.208  19.438  0.00  0.00    +0.000 A 
ATOM     13  C   UNL     1       1.147   2.261  20.776  0.00  0.00    +0.000 A 
ATOM     14  C   UNL     1       1.604   3.275  21.601  0.00  0.00    +0.000 A 
ATOM     15  C   UNL     1       2.454   4.240  21.077  0.00  0.00    +0.000 A 
ATOM     16  C   UNL     1       2.876   4.210  19.727  0.00  0.00    +0.000 A 
BRANCH  11  18
ATOM     17  C   UNL     1       3.817   2.110  17.282  0.00  0.00    +0.000 C 
ATOM     18  O   UNL     1       2.867   3.129  17.596  0.00  0.00    +0.000 OA
ENDBRANCH  11  18
ENDBRANCH   7  16
ENDBRANCH   1   9
BRANCH   4  19
ATOM     19  O   UNL     1       8.760   9.033  17.551  0.00  0.00    +0.000 OA
BRANCH  19  20
ATOM     20  C   UNL     1       8.960   9.853  18.716  0.00  0.00    +0.000 C 
BRANCH  20  21
ATOM     21  C   UNL     1       9.484  11.226  18.359  0.00  0.00    +0.000 A 
ATOM     22  C   UNL     1      10.665  11.396  17.743  0.00  0.00    +0.000 A 
ATOM     23  C   UNL     1      11.134  12.759  17.434  0.00  0.00    +0.000 A 
ATOM     24  O   UNL     1      12.213  12.923  16.873  0.00  0.00    +0.000 OA
ATOM     25  N   UNL     1      10.275  13.753  17.823  0.00  0.00    +0.000 N 
ATOM     26  C   UNL     1      10.489  15.096  17.616  0.00  0.00    +0.000 A 
ATOM     27  C   UNL     1       9.504  15.883  18.069  0.00  0.00    +0.000 A 
ATOM     28  C   UNL     1       9.428  17.363  17.962  0.00  0.00    +0.000 C 
ATOM     29  S   UNL     1       8.236  14.940  18.819  0.00  0.00    +0.000 S 
ATOM     30  C   UNL     1       9.092  13.451  18.456  0.00  0.00    +0.000 A 
ATOM     31  N   UNL     1       8.661  12.270  18.737  0.00  0.00    +0.000 NA
ENDBRANCH  20  21
ENDBRANCH  19  20
ENDBRANCH   4  19
TORSDOF 6
ENDMDL
MODEL 5
REMARK VINA RESULT:      -7.7      5.405     10.163
REMARK  Name = 
REMARK  8 active torsions:
REMARK  status: ('A' for Active; 'I' for Inactive)
REMARK    1  A    between atoms: C_1  and  O_2
REMARK    2  A    between atoms: O_2  and  C_3
REMARK    3  A    between atoms: C_8  and  C_9
REMARK    4  A    between atoms: N_11  and  C_12
REMARK    5  A    between atoms: C_15  and  O_16
REMARK    6  A    between atoms: O_16  and  C_17
REMARK    7  A    between atoms: C_17  and  C_18
REMARK    8  A    between atoms: C_24  and  C_25
REMARK                            x       y       z     vdW  Elec       q    Type
REMARK                         _______ _______ _______ _____ _____    ______ ____
ROOT
ATOM      1  C   UNL     1      -0.852  10.431  19.410  0.00  0.00    +0.000 A 
ATOM      2  C   UNL     1      -0.482   9.821  20.612  0.00  0.00    +0.000 A 
ATOM      3  C   UNL     1       0.655   9.029  20.711  0.00  0.00    +0.000 A 
ATOM      4  C   UNL     1       1.434   8.788  19.590  0.00  0.00    +0.000 A 
ATOM      5  C   UNL     1       1.129   9.441  18.395  0.00  0.00    +0.000 A 
ATOM      6  C   UNL     1      -0.015  10.257  18.302  0.00  0.00    +0.000 A 
ENDROOT
BRANCH   1   9
ATOM      7  C   UNL     1      -3.126  10.861  18.494  0.00  0.00    +0.000 C 
ATOM      8  O   UNL     1      -3.208   9.836  17.819  0.00  0.00    +0.000 OA
ATOM      9  N   UNL     1      -2.038  11.199  19.283  0.00  0.00    +0.000 N 
ATOM     10  H   UNL     1      -2.092  12.077  19.790  0.00  0.00    +0.000 HD
BRANCH   7  16
ATOM     11  C   UNL     1      -4.776  12.603  19.461  0.00  0.00    +0.000 A 
ATOM     12  C   UNL     1      -5.926  13.379  19.227  0.00  0.00    +0.000 A 
ATOM     13  C   UNL     1      -6.578  13.364  17.989  0.00  0.00    +0.000 A 
ATOM     14  C   UNL     1      -6.101  12.567  16.962  0.00  0.00    +0.000 A 
ATOM     15  C   UNL     1      -4.981  11.778  17.186  0.00  0.00    +0.000 A 
ATOM     16  C   UNL     1      -4.307  11.772  18.431  0.00  0.00    +0.000 A 
BRANCH  11  18
ATOM     17  C   UNL     1      -4.914  12.745  21.827  0.00  0.00    +0.000 C 
ATOM     18  O   UNL     1      -4.103  12.610  20.659  0.00  0.00    +0.000 OA
ENDBRANCH  11  18
ENDBRANCH   7  16
ENDBRANCH   1   9
BRANCH   4  19
ATOM     19  O   UNL     1       2.491   7.918  19.585  0.00  0.00    +0.000 OA
BRANCH  19  20
ATOM     20  C   UNL     1       2.100   6.540  19.725  0.00  0.00    +0.000 C 
BRANCH  20  21
ATOM     21  C   UNL     1       2.852   5.639  18.772  0.00  0.00    +0.000 A 
ATOM     22  C   UNL     1       2.746   4.302  18.826  0.00  0.00    +0.000 A 
ATOM     23  C   UNL     1       3.516   3.472  17.882  0.00  0.00    +0.000 A 
ATOM     24  O   UNL     1       3.425   2.248  17.927  0.00  0.00    +0.000 OA
ATOM     25  N   UNL     1       4.292   4.185  17.007  0.00  0.00    +0.000 N 
ATOM     26  C   UNL     1       5.074   3.627  16.022  0.00  0.00    +0.000 A 
ATOM     27  C   UNL     1       5.735   4.522  15.276  0.00  0.00    +0.000 A 
ATOM     28  C   UNL     1       6.624   4.234  14.121  0.00  0.00    +0.000 C 
ATOM     29  S   UNL     1       5.409   6.156  15.811  0.00  0.00    +0.000 S 
ATOM     30  C   UNL     1       4.323   5.559  17.055  0.00  0.00    +0.000 A 
ATOM     31  N   UNL     1       3.661   6.305  17.870  0.00  0.00    +0.000 NA
ENDBRANCH  20  21
ENDBRANCH  19  20
ENDBRANCH   4  19
TORSDOF 6
ENDMDL
MODEL 6
REMARK VINA RESULT:      -7.7      4.701      8.262
REMARK  Name = 
REMARK  8 active torsions:
REMARK  status: ('A' for Active; 'I' for Inactive)
REMARK    1  A    between atoms: C_1  and  O_2
REMARK    2  A    between atoms: O_2  and  C_3
REMARK    3  A    between atoms: C_8  and  C_9
REMARK    4  A    between atoms: N_11  and  C_12
REMARK    5  A    between atoms: C_15  and  O_16
REMARK    6  A    between atoms: O_16  and  C_17
REMARK    7  A    between atoms: C_17  and  C_18
REMARK    8  A    between atoms: C_24  and  C_25
REMARK                            x       y       z     vdW  Elec       q    Type
REMARK                         _______ _______ _______ _____ _____    ______ ____
ROOT
ATOM      1  C   UNL     1       2.686   7.835  18.586  0.00  0.00    +0.000 A 
ATOM      2  C   UNL     1       2.305   7.379  19.851  0.00  0.00    +0.000 A 
ATOM      3  C   UNL     1       1.337   8.033  20.603  0.00  0.00    +0.000 A 
ATOM      4  C   UNL     1       0.753   9.195  20.124  0.00  0.00    +0.000 A 
ATOM      5  C   UNL     1       1.061   9.633  18.836  0.00  0.00    +0.000 A 
ATOM      6  C   UNL     1       2.031   8.958  18.069  0.00  0.00    +0.000 A 
ENDROOT
BRANCH   1   9
ATOM      7  C   UNL     1       3.958   5.843  17.805  0.00  0.00    +0.000 C 
ATOM      8  O   UNL     1       3.307   5.002  18.422  0.00  0.00    +0.000 OA
ATOM      9  N   UNL     1       3.709   7.207  17.830  0.00  0.00    +0.000 N 
ATOM     10  H   UNL     1       4.324   7.797  17.278  0.00  0.00    +0.000 HD
BRANCH   7  16
ATOM     11  C   UNL     1       6.292   4.782  17.465  0.00  0.00    +0.000 A 
ATOM     12  C   UNL     1       7.254   4.347  16.534  0.00  0.00    +0.000 A 
ATOM     13  C   UNL     1       7.013   4.397  15.157  0.00  0.00    +0.000 A 
ATOM     14  C   UNL     1       5.811   4.890  14.680  0.00  0.00    +0.000 A 
ATOM     15  C   UNL     1       4.862   5.346  15.585  0.00  0.00    +0.000 A 
ATOM     16  C   UNL     1       5.084   5.310  16.982  0.00  0.00    +0.000 A 
BRANCH  11  18
ATOM     17  C   UNL     1       7.420   5.677  19.353  0.00  0.00    +0.000 C 
ATOM     18  O   UNL     1       6.492   4.729  18.823  0.00  0.00    +0.000 OA
ENDBRANCH  11  18
ENDBRANCH   7  16
ENDBRANCH   1   9
BRANCH   4  19
ATOM     19  O   UNL     1      -0.110   9.960  20.864  0.00  0.00    +0.000 OA
BRANCH  19  20
ATOM     20  C   UNL     1       0.325  11.322  21.026  0.00  0.00    +0.000 C 
BRANCH  20  21
ATOM     21  C   UNL     1      -0.569  12.094  21.970  0.00  0.00    +0.000 A 
ATOM     22  C   UNL     1      -1.682  11.555  22.492  0.00  0.00    +0.000 A 
ATOM     23  C   UNL     1      -2.526  12.361  23.394  0.00  0.00    +0.000 A 
ATOM     24  O   UNL     1      -3.546  11.876  23.874  0.00  0.00    +0.000 OA
ATOM     25  N   UNL     1      -2.061  13.630  23.617  0.00  0.00    +0.000 N 
ATOM     26  C   UNL     1      -2.665  14.550  24.442  0.00  0.00    +0.000 A 
ATOM     27  C   UNL     1      -2.023  15.723  24.517  0.00  0.00    +0.000 A 
ATOM     28  C   UNL     1      -2.405  16.895  25.347  0.00  0.00    +0.000 C 
ATOM     29  S   UNL     1      -0.596  15.728  23.505  0.00  0.00    +0.000 S 
ATOM     30  C   UNL     1      -0.905  14.070  23.016  0.00  0.00    +0.000 A 
ATOM     31  N   UNL     1      -0.153  13.387  22.224  0.00  0.00    +0.000 NA
ENDBRANCH  20  21
ENDBRANCH  19  20
ENDBRANCH   4  19
TORSDOF 6
ENDMDL
MODEL 7
REMARK VINA RESULT:      -7.7      4.451      7.931
REMARK  Name = 
REMARK  8 active torsions:
REMARK  status: ('A' for Active; 'I' for Inactive)
REMARK    1  A    between atoms: C_1  and  O_2
REMARK    2  A    between atoms: O_2  and  C_3
REMARK    3  A    between atoms: C_8  and  C_9
REMARK    4  A    between atoms: N_11  and  C_12
REMARK    5  A    between atoms: C_15  and  O_16
REMARK    6  A    between atoms: O_16  and  C_17
REMARK    7  A    between atoms: C_17  and  C_18
REMARK    8  A    between atoms: C_24  and  C_25
REMARK                            x       y       z     vdW  Elec       q    Type
REMARK                         _______ _______ _______ _____ _____    ______ ____
ROOT
ATOM      1  C   UNL     1       1.649   8.705  19.606  0.00  0.00    +0.000 A 
ATOM      2  C   UNL     1       2.157   8.311  18.365  0.00  0.00    +0.000 A 
ATOM      3  C   UNL     1       2.544   7.001  18.115  0.00  0.00    +0.000 A 
ATOM      4  C   UNL     1       2.475   6.051  19.123  0.00  0.00    +0.000 A 
ATOM      5  C   UNL     1       1.905   6.399  20.349  0.00  0.00    +0.000 A 
ATOM      6  C   UNL     1       1.498   7.724  20.594  0.00  0.00    +0.000 A 
ENDROOT
BRANCH   1   9
ATOM      7  C   UNL     1       0.182  10.704  19.395  0.00  0.00    +0.000 C 
ATOM      8  O   UNL     1      -0.661  10.190  18.660  0.00  0.00    +0.000 OA
ATOM      9  N   UNL     1       1.299  10.050  19.890  0.00  0.00    +0.000 N 
ATOM     10  H   UNL     1       1.921  10.588  20.485  0.00  0.00    +0.000 HD
BRANCH   7  16
ATOM     11  C   UNL     1      -0.128  12.667  21.050  0.00  0.00    +0.000 A 
ATOM     12  C   UNL     1      -0.392  14.041  21.198  0.00  0.00    +0.000 A 
ATOM     13  C   UNL     1      -0.547  14.878  20.088  0.00  0.00    +0.000 A 
ATOM     14  C   UNL     1      -0.452  14.359  18.808  0.00  0.00    +0.000 A 
ATOM     15  C   UNL     1      -0.217  13.000  18.647  0.00  0.00    +0.000 A 
ATOM     16  C   UNL     1      -0.061  12.133  19.754  0.00  0.00    +0.000 A 
BRANCH  11  18
ATOM     17  C   UNL     1      -1.135  11.486  22.848  0.00  0.00    +0.000 C 
ATOM     18  O   UNL     1       0.047  11.823  22.120  0.00  0.00    +0.000 OA
ENDBRANCH  11  18
ENDBRANCH   7  16
ENDBRANCH   1   9
BRANCH   4  19
ATOM     19  O   UNL     1       2.958   4.777  18.987  0.00  0.00    +0.000 OA
BRANCH  19  20
ATOM     20  C   UNL     1       4.366   4.666  19.258  0.00  0.00    +0.000 C 
BRANCH  20  21
ATOM     21  C   UNL     1       5.202   4.920  18.024  0.00  0.00    +0.000 A 
ATOM     22  C   UNL     1       6.175   5.845  18.003  0.00  0.00    +0.000 A 
ATOM     23  C   UNL     1       6.946   6.063  16.767  0.00  0.00    +0.000 A 
ATOM     24  O   UNL     1       7.836   6.908  16.740  0.00  0.00    +0.000 OA
ATOM     25  N   UNL     1       6.576   5.258  15.721  0.00  0.00    +0.000 N 
ATOM     26  C   UNL     1       7.171   5.263  14.482  0.00  0.00    +0.000 A 
ATOM     27  C   UNL     1       6.650   4.379  13.621  0.00  0.00    +0.000 A 
ATOM     28  C   UNL     1       7.099   4.124  12.228  0.00  0.00    +0.000 C 
ATOM     29  S   UNL     1       5.333   3.487  14.350  0.00  0.00    +0.000 S 
ATOM     30  C   UNL     1       5.554   4.348  15.864  0.00  0.00    +0.000 A 
ATOM     31  N   UNL     1       4.865   4.141  16.933  0.00  0.00    +0.000 NA
ENDBRANCH  20  21
ENDBRANCH  19  20
ENDBRANCH   4  19
TORSDOF 6
ENDMDL
MODEL 8
REMARK VINA RESULT:      -7.7      5.133      9.512
REMARK  Name = 
REMARK  8 active torsions:
REMARK  status: ('A' for Active; 'I' for Inactive)
REMARK    1  A    between atoms: C_1  and  O_2
REMARK    2  A    between atoms: O_2  and  C_3
REMARK    3  A    between atoms: C_8  and  C_9
REMARK    4  A    between atoms: N_11  and  C_12
REMARK    5  A    between atoms: C_15  and  O_16
REMARK    6  A    between atoms: O_16  and  C_17
REMARK    7  A    between atoms: C_17  and  C_18
REMARK    8  A    between atoms: C_24  and  C_25
REMARK                            x       y       z     vdW  Elec       q    Type
REMARK                         _______ _______ _______ _____ _____    ______ ____
ROOT
ATOM      1  C   UNL     1       1.648   8.101  20.112  0.00  0.00    +0.000 A 
ATOM      2  C   UNL     1       1.513   8.157  21.501  0.00  0.00    +0.000 A 
ATOM      3  C   UNL     1       1.005   9.279  22.143  0.00  0.00    +0.000 A 
ATOM      4  C   UNL     1       0.656  10.401  21.408  0.00  0.00    +0.000 A 
ATOM      5  C   UNL     1       0.712  10.348  20.014  0.00  0.00    +0.000 A 
ATOM      6  C   UNL     1       1.213   9.202  19.366  0.00  0.00    +0.000 A 
ENDROOT
BRANCH   1   9
ATOM      7  C   UNL     1       1.970   5.656  19.774  0.00  0.00    +0.000 C 
ATOM      8  O   UNL     1       1.213   5.283  20.669  0.00  0.00    +0.000 OA
ATOM      9  N   UNL     1       2.213   6.981  19.449  0.00  0.00    +0.000 N 
ATOM     10  H   UNL     1       2.864   7.156  18.690  0.00  0.00    +0.000 HD
BRANCH   7  16
ATOM     11  C   UNL     1       3.494   4.730  17.900  0.00  0.00    +0.000 A 
ATOM     12  C   UNL     1       4.027   3.581  17.288  0.00  0.00    +0.000 A 
ATOM     13  C   UNL     1       3.763   2.300  17.783  0.00  0.00    +0.000 A 
ATOM     14  C   UNL     1       2.953   2.139  18.895  0.00  0.00    +0.000 A 
ATOM     15  C   UNL     1       2.400   3.262  19.495  0.00  0.00    +0.000 A 
ATOM     16  C   UNL     1       2.648   4.568  19.009  0.00  0.00    +0.000 A 
BRANCH  11  18
ATOM     17  C   UNL     1       5.122   6.313  17.204  0.00  0.00    +0.000 C 
ATOM     18  O   UNL     1       3.750   6.002  17.448  0.00  0.00    +0.000 OA
ENDBRANCH  11  18
ENDBRANCH   7  16
ENDBRANCH   1   9
BRANCH   4  19
ATOM     19  O   UNL     1       0.271  11.583  21.982  0.00  0.00    +0.000 OA
BRANCH  19  20
ATOM     20  C   UNL     1      -0.306  12.513  21.047  0.00  0.00    +0.000 C 
BRANCH  20  21
ATOM     21  C   UNL     1      -1.810  12.591  21.183  0.00  0.00    +0.000 A 
ATOM     22  C   UNL     1      -2.621  12.570  20.113  0.00  0.00    +0.000 A 
ATOM     23  C   UNL     1      -4.079  12.666  20.303  0.00  0.00    +0.000 A 
ATOM     24  O   UNL     1      -4.827  12.650  19.330  0.00  0.00    +0.000 OA
ATOM     25  N   UNL     1      -4.472  12.768  21.612  0.00  0.00    +0.000 N 
ATOM     26  C   UNL     1      -5.780  12.842  22.033  0.00  0.00    +0.000 A 
ATOM     27  C   UNL     1      -5.924  12.921  23.362  0.00  0.00    +0.000 A 
ATOM     28  C   UNL     1      -7.202  12.977  24.117  0.00  0.00    +0.000 C 
ATOM     29  S   UNL     1      -4.369  12.927  24.167  0.00  0.00    +0.000 S 
ATOM     30  C   UNL     1      -3.542  12.786  22.625  0.00  0.00    +0.000 A 
ATOM     31  N   UNL     1      -2.264  12.705  22.484  0.00  0.00    +0.000 NA
ENDBRANCH  20  21
ENDBRANCH  19  20
ENDBRANCH   4  19
TORSDOF 6
ENDMDL
MODEL 9
REMARK VINA RESULT:      -7.7      5.699      9.680
REMARK  Name = 
REMARK  8 active torsions:
REMARK  status: ('A' for Active; 'I' for Inactive)
REMARK    1  A    between atoms: C_1  and  O_2
REMARK    2  A    between atoms: O_2  and  C_3
REMARK    3  A    between atoms: C_8  and  C_9
REMARK    4  A    between atoms: N_11  and  C_12
REMARK    5  A    between atoms: C_15  and  O_16
REMARK    6  A    between atoms: O_16  and  C_17
REMARK    7  A    between atoms: C_17  and  C_18
REMARK    8  A    between atoms: C_24  and  C_25
REMARK                            x       y       z     vdW  Elec       q    Type
REMARK                         _______ _______ _______ _____ _____    ______ ____
ROOT
ATOM      1  C   UNL     1       1.530   8.234  20.223  0.00  0.00    +0.000 A 
ATOM      2  C   UNL     1       1.443   8.227  21.617  0.00  0.00    +0.000 A 
ATOM      3  C   UNL     1       0.852   9.270  22.319  0.00  0.00    +0.000 A 
ATOM      4  C   UNL     1       0.368  10.378  21.640  0.00  0.00    +0.000 A 
ATOM      5  C   UNL     1       0.376  10.379  20.244  0.00  0.00    +0.000 A 
ATOM      6  C   UNL     1       0.962   9.312  19.535  0.00  0.00    +0.000 A 
ENDROOT
BRANCH   1   9
ATOM      7  C   UNL     1       2.908   7.378  18.335  0.00  0.00    +0.000 C 
ATOM      8  O   UNL     1       3.105   8.465  17.793  0.00  0.00    +0.000 OA
ATOM      9  N   UNL     1       2.177   7.199  19.499  0.00  0.00    +0.000 N 
ATOM     10  H   UNL     1       2.084   6.249  19.842  0.00  0.00    +0.000 HD
BRANCH   7  16
ATOM     11  C   UNL     1       3.055   4.875  17.700  0.00  0.00    +0.000 A 
ATOM     12  C   UNL     1       3.780   3.884  17.014  0.00  0.00    +0.000 A 
ATOM     13  C   UNL     1       4.921   4.198  16.268  0.00  0.00    +0.000 A 
ATOM     14  C   UNL     1       5.366   5.508  16.198  0.00  0.00    +0.000 A 
ATOM     15  C   UNL     1       4.674   6.493  16.890  0.00  0.00    +0.000 A 
ATOM     16  C   UNL     1       3.521   6.199  17.656  0.00  0.00    +0.000 A 
BRANCH  11  18
ATOM     17  C   UNL     1       1.740   3.236  18.806  0.00  0.00    +0.000 C 
ATOM     18  O   UNL     1       1.921   4.600  18.426  0.00  0.00    +0.000 OA
ENDBRANCH  11  18
ENDBRANCH   7  16
ENDBRANCH   1   9
BRANCH   4  19
ATOM     19  O   UNL     1      -0.109  11.495  22.272  0.00  0.00    +0.000 OA
BRANCH  19  20
ATOM     20  C   UNL     1      -1.262  11.241  23.095  0.00  0.00    +0.000 C 
BRANCH  20  21
ATOM     21  C   UNL     1      -2.175  12.443  23.177  0.00  0.00    +0.000 A 
ATOM     22  C   UNL     1      -1.700  13.699  23.152  0.00  0.00    +0.000 A 
ATOM     23  C   UNL     1      -2.636  14.833  23.253  0.00  0.00    +0.000 A 
ATOM     24  O   UNL     1      -2.210  15.983  23.232  0.00  0.00    +0.000 OA
ATOM     25  N   UNL     1      -3.953  14.470  23.362  0.00  0.00    +0.000 N 
ATOM     26  C   UNL     1      -5.004  15.354  23.442  0.00  0.00    +0.000 A 
ATOM     27  C   UNL     1      -6.206  14.769  23.529  0.00  0.00    +0.000 A 
ATOM     28  C   UNL     1      -7.524  15.451  23.592  0.00  0.00    +0.000 C 
ATOM     29  S   UNL     1      -6.061  13.025  23.536  0.00  0.00    +0.000 S 
ATOM     30  C   UNL     1      -4.316  13.143  23.384  0.00  0.00    +0.000 A 
ATOM     31  N   UNL     1      -3.517  12.136  23.299  0.00  0.00    +0.000 NA
ENDBRANCH  20  21
ENDBRANCH  19  20
ENDBRANCH   4  19
TORSDOF 6
ENDMDL
