MODEL 1
REMARK VINA RESULT:      -9.3      0.000      0.000
REMARK  Name = 
REMARK  9 active torsions:
REMARK  status: ('A' for Active; 'I' for Inactive)
REMARK    1  A    between atoms: C_2  and  O_3
REMARK    2  A    between atoms: C_2  and  C_4
REMARK    3  A    between atoms: C_4  and  C_5
REMARK    4  A    between atoms: C_4  and  N_15
REMARK    5  A    between atoms: C_5  and  C_6
REMARK    6  A    between atoms: N_15  and  S_16
REMARK    7  A    between atoms: S_16  and  C_19
REMARK    8  A    between atoms: C_22  and  C_23
REMARK    9  A    between atoms: N_26  and  C_27
REMARK                            x       y       z     vdW  Elec       q    Type
REMARK                         _______ _______ _______ _____ _____    ______ ____
ROOT
ATOM      1  S   UNL     1       2.604   5.058  19.532  0.00  0.00    +0.000 S 
ATOM      2  O   UNL     1       2.026   4.355  18.414  0.00  0.00    +0.000 OA
ATOM      3  O   UNL     1       2.341   4.685  20.894  0.00  0.00    +0.000 OA
ENDROOT
BRANCH   1   4
ATOM      4  C   UNL     1       2.162   6.775  19.383  0.00  0.00    +0.000 A 
ATOM      5  C   UNL     1       2.362   7.452  18.182  0.00  0.00    +0.000 A 
ATOM      6  C   UNL     1       2.028   8.805  18.093  0.00  0.00    +0.000 A 
ATOM      7  C   UNL     1       1.494   9.481  19.202  0.00  0.00    +0.000 A 
ATOM      8  C   UNL     1       1.281   8.773  20.397  0.00  0.00    +0.000 A 
ATOM      9  C   UNL     1       1.596   7.419  20.487  0.00  0.00    +0.000 A 
BRANCH   7  10
ATOM     10  C   UNL     1       1.133  10.887  19.109  0.00  0.00    +0.000 A 
ATOM     11  N   UNL     1      -0.061  11.390  19.554  0.00  0.00    +0.000 NA
ATOM     12  N   UNL     1      -0.014  12.701  19.368  0.00  0.00    +0.000 NA
ATOM     13  N   UNL     1       1.201  12.945  18.822  0.00  0.00    +0.000 N 
ATOM     14  N   UNL     1       1.941  11.830  18.607  0.00  0.00    +0.000 NA
BRANCH  13  15
ATOM     15  C   UNL     1       1.678  14.241  18.524  0.00  0.00    +0.000 A 
ATOM     16  C   UNL     1       0.909  15.367  18.844  0.00  0.00    +0.000 A 
ATOM     17  C   UNL     1       1.396  16.642  18.551  0.00  0.00    +0.000 A 
ATOM     18  C   UNL     1       2.640  16.795  17.938  0.00  0.00    +0.000 A 
ATOM     19  C   UNL     1       3.407  15.676  17.619  0.00  0.00    +0.000 A 
ATOM     20  C   UNL     1       2.933  14.398  17.914  0.00  0.00    +0.000 A 
ENDBRANCH  13  15
ENDBRANCH   7  10
ENDBRANCH   1   4
BRANCH   1  21
ATOM     21  N   UNL     1       4.309   5.136  19.376  0.00  0.00    +0.000 NA
ATOM     22  H   UNL     1       4.525   6.060  18.985  0.00  0.00    +0.000 HD
BRANCH  21  23
ATOM     23  C   UNL     1       5.008   4.082  18.541  0.00  0.00    +0.000 C 
BRANCH  23  25
ATOM     24  O   UNL     1       4.867   2.307  20.215  0.00  0.00    +0.000 OA
ATOM     25  C   UNL     1       4.608   2.702  19.087  0.00  0.00    +0.000 C 
BRANCH  25  26
ATOM     26  O   UNL     1       3.894   1.959  18.202  0.00  0.00    +0.000 OA
ATOM     27  H   UNL     1       3.298   1.351  18.694  0.00  0.00    +0.000 HD
ENDBRANCH  25  26
ENDBRANCH  23  25
BRANCH  23  28
ATOM     28  C   UNL     1       4.714   4.122  17.038  0.00  0.00    +0.000 C 
BRANCH  28  29
ATOM     29  C   UNL     1       5.821   4.678  16.196  0.00  0.00    +0.000 A 
ATOM     30  C   UNL     1       6.818   5.554  16.578  0.00  0.00    +0.000 A 
ATOM     31  N   UNL     1       7.620   5.794  15.493  0.00  0.00    +0.000 N 
ATOM     32  C   UNL     1       7.165   5.089  14.403  0.00  0.00    +0.000 A 
ATOM     33  C   UNL     1       7.651   5.033  13.090  0.00  0.00    +0.000 A 
ATOM     34  C   UNL     1       6.968   4.217  12.182  0.00  0.00    +0.000 A 
ATOM     35  C   UNL     1       5.857   3.476  12.576  0.00  0.00    +0.000 A 
ATOM     36  C   UNL     1       5.394   3.536  13.890  0.00  0.00    +0.000 A 
ATOM     37  C   UNL     1       6.049   4.367  14.820  0.00  0.00    +0.000 A 
ATOM     38  H   UNL     1       8.430   6.399  15.488  0.00  0.00    +0.000 HD
ENDBRANCH  28  29
ENDBRANCH  23  28
ENDBRANCH  21  23
ENDBRANCH   1  21
TORSDOF 9
ENDMDL
MODEL 2
REMARK VINA RESULT:      -9.1      0.716      1.447
REMARK  Name = 
REMARK  9 active torsions:
REMARK  status: ('A' for Active; 'I' for Inactive)
REMARK    1  A    between atoms: C_2  and  O_3
REMARK    2  A    between atoms: C_2  and  C_4
REMARK    3  A    between atoms: C_4  and  C_5
REMARK    4  A    between atoms: C_4  and  N_15
REMARK    5  A    between atoms: C_5  and  C_6
REMARK    6  A    between atoms: N_15  and  S_16
REMARK    7  A    between atoms: S_16  and  C_19
REMARK    8  A    between atoms: C_22  and  C_23
REMARK    9  A    between atoms: N_26  and  C_27
REMARK                            x       y       z     vdW  Elec       q    Type
REMARK                         _______ _______ _______ _____ _____    ______ ____
ROOT
ATOM      1  S   UNL     1       2.287   5.131  19.782  0.00  0.00    +0.000 S 
ATOM      2  O   UNL     1       1.090   4.454  20.213  0.00  0.00    +0.000 OA
ATOM      3  O   UNL     1       3.532   5.019  20.491  0.00  0.00    +0.000 OA
ENDROOT
BRANCH   1   4
ATOM      4  C   UNL     1       1.922   6.870  19.676  0.00  0.00    +0.000 A 
ATOM      5  C   UNL     1       1.327   7.530  20.749  0.00  0.00    +0.000 A 
ATOM      6  C   UNL     1       1.028   8.890  20.637  0.00  0.00    +0.000 A 
ATOM      7  C   UNL     1       1.325   9.589  19.456  0.00  0.00    +0.000 A 
ATOM      8  C   UNL     1       1.944   8.907  18.395  0.00  0.00    +0.000 A 
ATOM      9  C   UNL     1       2.260   7.555  18.506  0.00  0.00    +0.000 A 
BRANCH   7  10
ATOM     10  C   UNL     1       1.028  11.008  19.341  0.00  0.00    +0.000 A 
ATOM     11  N   UNL     1      -0.101  11.587  19.859  0.00  0.00    +0.000 NA
ATOM     12  N   UNL     1      -0.004  12.887  19.624  0.00  0.00    +0.000 NA
ATOM     13  N   UNL     1       1.175  13.050  18.976  0.00  0.00    +0.000 N 
ATOM     14  N   UNL     1       1.839  11.892  18.744  0.00  0.00    +0.000 NA
BRANCH  13  15
ATOM     15  C   UNL     1       1.690  14.309  18.596  0.00  0.00    +0.000 A 
ATOM     16  C   UNL     1       2.928  14.399  17.948  0.00  0.00    +0.000 A 
ATOM     17  C   UNL     1       3.422  15.649  17.569  0.00  0.00    +0.000 A 
ATOM     18  C   UNL     1       2.687  16.804  17.839  0.00  0.00    +0.000 A 
ATOM     19  C   UNL     1       1.454  16.717  18.483  0.00  0.00    +0.000 A 
ATOM     20  C   UNL     1       0.949  15.473  18.858  0.00  0.00    +0.000 A 
ENDBRANCH  13  15
ENDBRANCH   7  10
ENDBRANCH   1   4
BRANCH   1  21
ATOM     21  N   UNL     1       2.631   4.761  18.145  0.00  0.00    +0.000 NA
ATOM     22  H   UNL     1       1.865   4.164  17.812  0.00  0.00    +0.000 HD
BRANCH  21  23
ATOM     23  C   UNL     1       3.947   4.083  17.817  0.00  0.00    +0.000 C 
BRANCH  23  25
ATOM     24  O   UNL     1       3.222   1.820  18.395  0.00  0.00    +0.000 OA
ATOM     25  C   UNL     1       3.995   2.749  18.581  0.00  0.00    +0.000 C 
BRANCH  25  26
ATOM     26  O   UNL     1       5.018   2.677  19.473  0.00  0.00    +0.000 OA
ATOM     27  H   UNL     1       4.715   3.018  20.344  0.00  0.00    +0.000 HD
ENDBRANCH  25  26
ENDBRANCH  23  25
BRANCH  23  28
ATOM     28  C   UNL     1       4.203   3.810  16.332  0.00  0.00    +0.000 C 
BRANCH  28  29
ATOM     29  C   UNL     1       5.434   4.460  15.778  0.00  0.00    +0.000 A 
ATOM     30  C   UNL     1       6.305   5.314  16.424  0.00  0.00    +0.000 A 
ATOM     31  N   UNL     1       7.296   5.665  15.545  0.00  0.00    +0.000 N 
ATOM     32  C   UNL     1       7.089   5.055  14.330  0.00  0.00    +0.000 A 
ATOM     33  C   UNL     1       7.824   5.127  13.140  0.00  0.00    +0.000 A 
ATOM     34  C   UNL     1       7.361   4.386  12.047  0.00  0.00    +0.000 A 
ATOM     35  C   UNL     1       6.221   3.593  12.148  0.00  0.00    +0.000 A 
ATOM     36  C   UNL     1       5.508   3.525  13.344  0.00  0.00    +0.000 A 
ATOM     37  C   UNL     1       5.938   4.279  14.453  0.00  0.00    +0.000 A 
ATOM     38  H   UNL     1       8.070   6.281  15.753  0.00  0.00    +0.000 HD
ENDBRANCH  28  29
ENDBRANCH  23  28
ENDBRANCH  21  23
ENDBRANCH   1  21
TORSDOF 9
ENDMDL
MODEL 3
REMARK VINA RESULT:      -9.1      0.279      1.018
REMARK  Name = 
REMARK  9 active torsions:
REMARK  status: ('A' for Active; 'I' for Inactive)
REMARK    1  A    between atoms: C_2  and  O_3
REMARK    2  A    between atoms: C_2  and  C_4
REMARK    3  A    between atoms: C_4  and  C_5
REMARK    4  A    between atoms: C_4  and  N_15
REMARK    5  A    between atoms: C_5  and  C_6
REMARK    6  A    between atoms: N_15  and  S_16
REMARK    7  A    between atoms: S_16  and  C_19
REMARK    8  A    between atoms: C_22  and  C_23
REMARK    9  A    between atoms: N_26  and  C_27
REMARK                            x       y       z     vdW  Elec       q    Type
REMARK                         _______ _______ _______ _____ _____    ______ ____
ROOT
ATOM      1  S   UNL     1       2.487   5.081  19.143  0.00  0.00    +0.000 S 
ATOM      2  O   UNL     1       1.909   4.500  17.958  0.00  0.00    +0.000 OA
ATOM      3  O   UNL     1       2.192   4.593  20.462  0.00  0.00    +0.000 OA
ENDROOT
BRANCH   1   4
ATOM      4  C   UNL     1       2.092   6.817  19.146  0.00  0.00    +0.000 A 
ATOM      5  C   UNL     1       2.213   7.568  17.979  0.00  0.00    +0.000 A 
ATOM      6  C   UNL     1       1.919   8.933  18.009  0.00  0.00    +0.000 A 
ATOM      7  C   UNL     1       1.503   9.546  19.202  0.00  0.00    +0.000 A 
ATOM      8  C   UNL     1       1.367   8.764  20.361  0.00  0.00    +0.000 A 
ATOM      9  C   UNL     1       1.643   7.399  20.335  0.00  0.00    +0.000 A 
BRANCH   7  10
ATOM     10  C   UNL     1       1.183  10.965  19.233  0.00  0.00    +0.000 A 
ATOM     11  N   UNL     1       0.144  11.488  19.957  0.00  0.00    +0.000 NA
ATOM     12  N   UNL     1       0.197  12.802  19.800  0.00  0.00    +0.000 NA
ATOM     13  N   UNL     1       1.260  13.029  18.993  0.00  0.00    +0.000 N 
ATOM     14  N   UNL     1       1.888  11.900  18.583  0.00  0.00    +0.000 NA
BRANCH  13  15
ATOM     15  C   UNL     1       1.703  14.319  18.627  0.00  0.00    +0.000 A 
ATOM     16  C   UNL     1       2.948  14.488  18.007  0.00  0.00    +0.000 A 
ATOM     17  C   UNL     1       3.370  15.768  17.642  0.00  0.00    +0.000 A 
ATOM     18  C   UNL     1       2.558  16.874  17.898  0.00  0.00    +0.000 A 
ATOM     19  C   UNL     1       1.319  16.708  18.515  0.00  0.00    +0.000 A 
ATOM     20  C   UNL     1       0.886  15.433  18.876  0.00  0.00    +0.000 A 
ENDBRANCH  13  15
ENDBRANCH   7  10
ENDBRANCH   1   4
BRANCH   1  21
ATOM     21  N   UNL     1       4.195   5.127  19.019  0.00  0.00    +0.000 NA
ATOM     22  H   UNL     1       4.435   6.034  18.602  0.00  0.00    +0.000 HD
BRANCH  21  23
ATOM     23  C   UNL     1       4.893   4.035  18.232  0.00  0.00    +0.000 C 
BRANCH  23  25
ATOM     24  O   UNL     1       3.672   1.917  18.207  0.00  0.00    +0.000 OA
ATOM     25  C   UNL     1       4.430   2.680  18.790  0.00  0.00    +0.000 C 
BRANCH  25  26
ATOM     26  O   UNL     1       4.979   2.378  19.995  0.00  0.00    +0.000 OA
ATOM     27  H   UNL     1       5.159   3.209  20.488  0.00  0.00    +0.000 HD
ENDBRANCH  25  26
ENDBRANCH  23  25
BRANCH  23  28
ATOM     28  C   UNL     1       4.657   4.052  16.718  0.00  0.00    +0.000 C 
BRANCH  28  29
ATOM     29  C   UNL     1       5.791   4.608  15.912  0.00  0.00    +0.000 A 
ATOM     30  C   UNL     1       6.775   5.484  16.326  0.00  0.00    +0.000 A 
ATOM     31  N   UNL     1       7.613   5.723  15.268  0.00  0.00    +0.000 N 
ATOM     32  C   UNL     1       7.192   5.018  14.164  0.00  0.00    +0.000 A 
ATOM     33  C   UNL     1       7.720   4.962  12.867  0.00  0.00    +0.000 A 
ATOM     34  C   UNL     1       7.066   4.147  11.938  0.00  0.00    +0.000 A 
ATOM     35  C   UNL     1       5.943   3.406  12.296  0.00  0.00    +0.000 A 
ATOM     36  C   UNL     1       5.438   3.466  13.594  0.00  0.00    +0.000 A 
ATOM     37  C   UNL     1       6.063   4.297  14.544  0.00  0.00    +0.000 A 
ATOM     38  H   UNL     1       8.422   6.327  15.289  0.00  0.00    +0.000 HD
ENDBRANCH  28  29
ENDBRANCH  23  28
ENDBRANCH  21  23
ENDBRANCH   1  21
TORSDOF 9
ENDMDL
MODEL 4
REMARK VINA RESULT:      -9.0      0.990      1.279
REMARK  Name = 
REMARK  9 active torsions:
REMARK  status: ('A' for Active; 'I' for Inactive)
REMARK    1  A    between atoms: C_2  and  O_3
REMARK    2  A    between atoms: C_2  and  C_4
REMARK    3  A    between atoms: C_4  and  C_5
REMARK    4  A    between atoms: C_4  and  N_15
REMARK    5  A    between atoms: C_5  and  C_6
REMARK    6  A    between atoms: N_15  and  S_16
REMARK    7  A    between atoms: S_16  and  C_19
REMARK    8  A    between atoms: C_22  and  C_23
REMARK    9  A    between atoms: N_26  and  C_27
REMARK                            x       y       z     vdW  Elec       q    Type
REMARK                         _______ _______ _______ _____ _____    ______ ____
ROOT
ATOM      1  S   UNL     1       3.120   5.419  19.716  0.00  0.00    +0.000 S 
ATOM      2  O   UNL     1       2.448   4.783  20.822  0.00  0.00    +0.000 OA
ATOM      3  O   UNL     1       4.545   5.602  19.684  0.00  0.00    +0.000 OA
ENDROOT
BRANCH   1   4
ATOM      4  C   UNL     1       2.399   7.030  19.493  0.00  0.00    +0.000 A 
ATOM      5  C   UNL     1       2.543   7.704  18.282  0.00  0.00    +0.000 A 
ATOM      6  C   UNL     1       1.987   8.977  18.136  0.00  0.00    +0.000 A 
ATOM      7  C   UNL     1       1.287   9.575  19.197  0.00  0.00    +0.000 A 
ATOM      8  C   UNL     1       1.136   8.867  20.401  0.00  0.00    +0.000 A 
ATOM      9  C   UNL     1       1.674   7.590  20.548  0.00  0.00    +0.000 A 
BRANCH   7  10
ATOM     10  C   UNL     1       0.696  10.895  19.043  0.00  0.00    +0.000 A 
ATOM     11  N   UNL     1      -0.649  11.136  19.144  0.00  0.00    +0.000 NA
ATOM     12  N   UNL     1      -0.811  12.444  19.015  0.00  0.00    +0.000 NA
ATOM     13  N   UNL     1       0.434  12.948  18.843  0.00  0.00    +0.000 N 
ATOM     14  N   UNL     1       1.409  12.007  18.817  0.00  0.00    +0.000 NA
BRANCH  13  15
ATOM     15  C   UNL     1       0.709  14.328  18.727  0.00  0.00    +0.000 A 
ATOM     16  C   UNL     1      -0.337  15.260  18.735  0.00  0.00    +0.000 A 
ATOM     17  C   UNL     1      -0.050  16.622  18.629  0.00  0.00    +0.000 A 
ATOM     18  C   UNL     1       1.271  17.054  18.509  0.00  0.00    +0.000 A 
ATOM     19  C   UNL     1       2.313  16.129  18.501  0.00  0.00    +0.000 A 
ATOM     20  C   UNL     1       2.038  14.767  18.615  0.00  0.00    +0.000 A 
ENDBRANCH  13  15
ENDBRANCH   7  10
ENDBRANCH   1   4
BRANCH   1  21
ATOM     21  N   UNL     1       2.701   4.656  18.239  0.00  0.00    +0.000 NA
ATOM     22  H   UNL     1       1.827   4.146  18.411  0.00  0.00    +0.000 HD
BRANCH  21  23
ATOM     23  C   UNL     1       3.699   3.706  17.607  0.00  0.00    +0.000 C 
BRANCH  23  25
ATOM     24  O   UNL     1       2.173   1.797  17.577  0.00  0.00    +0.000 OA
ATOM     25  C   UNL     1       3.248   2.270  17.918  0.00  0.00    +0.000 C 
BRANCH  25  26
ATOM     26  O   UNL     1       4.183   1.544  18.585  0.00  0.00    +0.000 OA
ATOM     27  H   UNL     1       4.730   2.147  19.137  0.00  0.00    +0.000 HD
ENDBRANCH  25  26
ENDBRANCH  23  25
BRANCH  23  28
ATOM     28  C   UNL     1       3.886   3.848  16.093  0.00  0.00    +0.000 C 
BRANCH  28  29
ATOM     29  C   UNL     1       5.193   4.450  15.676  0.00  0.00    +0.000 A 
ATOM     30  C   UNL     1       6.039   5.242  16.426  0.00  0.00    +0.000 A 
ATOM     31  N   UNL     1       7.124   5.567  15.654  0.00  0.00    +0.000 N 
ATOM     32  C   UNL     1       7.002   5.000  14.406  0.00  0.00    +0.000 A 
ATOM     33  C   UNL     1       7.848   5.068  13.292  0.00  0.00    +0.000 A 
ATOM     34  C   UNL     1       7.455   4.381  12.139  0.00  0.00    +0.000 A 
ATOM     35  C   UNL     1       6.275   3.644  12.109  0.00  0.00    +0.000 A 
ATOM     36  C   UNL     1       5.450   3.579  13.231  0.00  0.00    +0.000 A 
ATOM     37  C   UNL     1       5.810   4.280  14.398  0.00  0.00    +0.000 A 
ATOM     38  H   UNL     1       7.903   6.138  15.952  0.00  0.00    +0.000 HD
ENDBRANCH  28  29
ENDBRANCH  23  28
ENDBRANCH  21  23
ENDBRANCH   1  21
TORSDOF 9
ENDMDL
MODEL 5
REMARK VINA RESULT:      -9.0      1.696      2.688
REMARK  Name = 
REMARK  9 active torsions:
REMARK  status: ('A' for Active; 'I' for Inactive)
REMARK    1  A    between atoms: C_2  and  O_3
REMARK    2  A    between atoms: C_2  and  C_4
REMARK    3  A    between atoms: C_4  and  C_5
REMARK    4  A    between atoms: C_4  and  N_15
REMARK    5  A    between atoms: C_5  and  C_6
REMARK    6  A    between atoms: N_15  and  S_16
REMARK    7  A    between atoms: S_16  and  C_19
REMARK    8  A    between atoms: C_22  and  C_23
REMARK    9  A    between atoms: N_26  and  C_27
REMARK                            x       y       z     vdW  Elec       q    Type
REMARK                         _______ _______ _______ _____ _____    ______ ____
ROOT
ATOM      1  S   UNL     1       2.798   5.135  19.885  0.00  0.00    +0.000 S 
ATOM      2  O   UNL     1       1.750   4.480  20.628  0.00  0.00    +0.000 OA
ATOM      3  O   UNL     1       4.153   5.199  20.359  0.00  0.00    +0.000 OA
ENDROOT
BRANCH   1   4
ATOM      4  C   UNL     1       2.287   6.814  19.588  0.00  0.00    +0.000 A 
ATOM      5  C   UNL     1       1.640   7.539  20.586  0.00  0.00    +0.000 A 
ATOM      6  C   UNL     1       1.228   8.848  20.326  0.00  0.00    +0.000 A 
ATOM      7  C   UNL     1       1.465   9.432  19.071  0.00  0.00    +0.000 A 
ATOM      8  C   UNL     1       2.138   8.689  18.086  0.00  0.00    +0.000 A 
ATOM      9  C   UNL     1       2.566   7.389  18.346  0.00  0.00    +0.000 A 
BRANCH   7  10
ATOM     10  C   UNL     1       1.049  10.800  18.800  0.00  0.00    +0.000 A 
ATOM     11  N   UNL     1      -0.262  11.180  18.679  0.00  0.00    +0.000 NA
ATOM     12  N   UNL     1      -0.262  12.492  18.503  0.00  0.00    +0.000 NA
ATOM     13  N   UNL     1       1.042  12.861  18.525  0.00  0.00    +0.000 N 
ATOM     14  N   UNL     1       1.903  11.825  18.673  0.00  0.00    +0.000 NA
BRANCH  13  15
ATOM     15  C   UNL     1       1.477  14.201  18.430  0.00  0.00    +0.000 A 
ATOM     16  C   UNL     1       0.634  15.246  18.830  0.00  0.00    +0.000 A 
ATOM     17  C   UNL     1       1.080  16.567  18.739  0.00  0.00    +0.000 A 
ATOM     18  C   UNL     1       2.357  16.844  18.249  0.00  0.00    +0.000 A 
ATOM     19  C   UNL     1       3.197  15.805  17.852  0.00  0.00    +0.000 A 
ATOM     20  C   UNL     1       2.764  14.483  17.945  0.00  0.00    +0.000 A 
ENDBRANCH  13  15
ENDBRANCH   7  10
ENDBRANCH   1   4
BRANCH   1  21
ATOM     21  N   UNL     1       2.876   4.522  18.287  0.00  0.00    +0.000 NA
ATOM     22  H   UNL     1       1.928   4.212  18.045  0.00  0.00    +0.000 HD
BRANCH  21  23
ATOM     23  C   UNL     1       3.842   3.391  17.993  0.00  0.00    +0.000 C 
BRANCH  23  25
ATOM     24  O   UNL     1       2.072   1.989  17.056  0.00  0.00    +0.000 OA
ATOM     25  C   UNL     1       3.024   2.102  17.816  0.00  0.00    +0.000 C 
BRANCH  25  26
ATOM     26  O   UNL     1       3.483   1.066  18.565  0.00  0.00    +0.000 OA
ATOM     27  H   UNL     1       3.058   1.091  19.451  0.00  0.00    +0.000 HD
ENDBRANCH  25  26
ENDBRANCH  23  25
BRANCH  23  28
ATOM     28  C   UNL     1       4.734   3.581  16.762  0.00  0.00    +0.000 C 
BRANCH  28  29
ATOM     29  C   UNL     1       5.305   4.958  16.607  0.00  0.00    +0.000 A 
ATOM     30  C   UNL     1       4.970   5.913  15.668  0.00  0.00    +0.000 A 
ATOM     31  N   UNL     1       5.734   7.029  15.896  0.00  0.00    +0.000 N 
ATOM     32  C   UNL     1       6.566   6.820  16.971  0.00  0.00    +0.000 A 
ATOM     33  C   UNL     1       7.522   7.660  17.556  0.00  0.00    +0.000 A 
ATOM     34  C   UNL     1       8.232   7.167  18.655  0.00  0.00    +0.000 A 
ATOM     35  C   UNL     1       7.982   5.893  19.158  0.00  0.00    +0.000 A 
ATOM     36  C   UNL     1       7.019   5.074  18.570  0.00  0.00    +0.000 A 
ATOM     37  C   UNL     1       6.306   5.537  17.447  0.00  0.00    +0.000 A 
ATOM     38  H   UNL     1       5.695   7.882  15.357  0.00  0.00    +0.000 HD
ENDBRANCH  28  29
ENDBRANCH  23  28
ENDBRANCH  21  23
ENDBRANCH   1  21
TORSDOF 9
ENDMDL
MODEL 6
REMARK VINA RESULT:      -9.0      1.782      2.633
REMARK  Name = 
REMARK  9 active torsions:
REMARK  status: ('A' for Active; 'I' for Inactive)
REMARK    1  A    between atoms: C_2  and  O_3
REMARK    2  A    between atoms: C_2  and  C_4
REMARK    3  A    between atoms: C_4  and  C_5
REMARK    4  A    between atoms: C_4  and  N_15
REMARK    5  A    between atoms: C_5  and  C_6
REMARK    6  A    between atoms: N_15  and  S_16
REMARK    7  A    between atoms: S_16  and  C_19
REMARK    8  A    between atoms: C_22  and  C_23
REMARK    9  A    between atoms: N_26  and  C_27
REMARK                            x       y       z     vdW  Elec       q    Type
REMARK                         _______ _______ _______ _____ _____    ______ ____
ROOT
ATOM      1  S   UNL     1       2.493   5.070  19.959  0.00  0.00    +0.000 S 
ATOM      2  O   UNL     1       1.418   4.510  20.738  0.00  0.00    +0.000 OA
ATOM      3  O   UNL     1       3.855   5.074  20.418  0.00  0.00    +0.000 OA
ENDROOT
BRANCH   1   4
ATOM      4  C   UNL     1       2.078   6.762  19.595  0.00  0.00    +0.000 A 
ATOM      5  C   UNL     1       2.276   7.276  18.316  0.00  0.00    +0.000 A 
ATOM      6  C   UNL     1       1.963   8.612  18.057  0.00  0.00    +0.000 A 
ATOM      7  C   UNL     1       1.453   9.434  19.075  0.00  0.00    +0.000 A 
ATOM      8  C   UNL     1       1.242   8.889  20.353  0.00  0.00    +0.000 A 
ATOM      9  C   UNL     1       1.536   7.552  20.613  0.00  0.00    +0.000 A 
BRANCH   7  10
ATOM     10  C   UNL     1       1.115  10.823  18.806  0.00  0.00    +0.000 A 
ATOM     11  N   UNL     1      -0.172  11.290  18.755  0.00  0.00    +0.000 NA
ATOM     12  N   UNL     1      -0.094  12.597  18.557  0.00  0.00    +0.000 NA
ATOM     13  N   UNL     1       1.230  12.876  18.496  0.00  0.00    +0.000 N 
ATOM     14  N   UNL     1       2.027  11.786  18.612  0.00  0.00    +0.000 NA
BRANCH  13  15
ATOM     15  C   UNL     1       1.748  14.182  18.354  0.00  0.00    +0.000 A 
ATOM     16  C   UNL     1       2.976  14.388  17.712  0.00  0.00    +0.000 A 
ATOM     17  C   UNL     1       3.472  15.685  17.570  0.00  0.00    +0.000 A 
ATOM     18  C   UNL     1       2.752  16.771  18.069  0.00  0.00    +0.000 A 
ATOM     19  C   UNL     1       1.529  16.568  18.707  0.00  0.00    +0.000 A 
ATOM     20  C   UNL     1       1.021  15.277  18.847  0.00  0.00    +0.000 A 
ENDBRANCH  13  15
ENDBRANCH   7  10
ENDBRANCH   1   4
BRANCH   1  21
ATOM     21  N   UNL     1       2.517   4.386  18.388  0.00  0.00    +0.000 NA
ATOM     22  H   UNL     1       1.661   3.826  18.298  0.00  0.00    +0.000 HD
BRANCH  21  23
ATOM     23  C   UNL     1       3.700   3.524  17.992  0.00  0.00    +0.000 C 
BRANCH  23  25
ATOM     24  O   UNL     1       3.832   1.141  18.521  0.00  0.00    +0.000 OA
ATOM     25  C   UNL     1       3.235   2.060  17.976  0.00  0.00    +0.000 C 
BRANCH  25  26
ATOM     26  O   UNL     1       2.057   1.876  17.324  0.00  0.00    +0.000 OA
ATOM     27  H   UNL     1       2.013   0.954  16.985  0.00  0.00    +0.000 HD
ENDBRANCH  25  26
ENDBRANCH  23  25
BRANCH  23  28
ATOM     28  C   UNL     1       4.340   3.853  16.640  0.00  0.00    +0.000 C 
BRANCH  28  29
ATOM     29  C   UNL     1       5.066   5.164  16.591  0.00  0.00    +0.000 A 
ATOM     30  C   UNL     1       4.844   6.223  15.735  0.00  0.00    +0.000 A 
ATOM     31  N   UNL     1       5.731   7.221  16.045  0.00  0.00    +0.000 N 
ATOM     32  C   UNL     1       6.534   6.832  17.092  0.00  0.00    +0.000 A 
ATOM     33  C   UNL     1       7.580   7.507  17.734  0.00  0.00    +0.000 A 
ATOM     34  C   UNL     1       8.227   6.847  18.785  0.00  0.00    +0.000 A 
ATOM     35  C   UNL     1       7.831   5.574  19.186  0.00  0.00    +0.000 A 
ATOM     36  C   UNL     1       6.780   4.922  18.542  0.00  0.00    +0.000 A 
ATOM     37  C   UNL     1       6.127   5.553  17.466  0.00  0.00    +0.000 A 
ATOM     38  H   UNL     1       5.792   8.115  15.576  0.00  0.00    +0.000 HD
ENDBRANCH  28  29
ENDBRANCH  23  28
ENDBRANCH  21  23
ENDBRANCH   1  21
TORSDOF 9
ENDMDL
MODEL 7
REMARK VINA RESULT:      -9.0      1.032      1.434
REMARK  Name = 
REMARK  9 active torsions:
REMARK  status: ('A' for Active; 'I' for Inactive)
REMARK    1  A    between atoms: C_2  and  O_3
REMARK    2  A    between atoms: C_2  and  C_4
REMARK    3  A    between atoms: C_4  and  C_5
REMARK    4  A    between atoms: C_4  and  N_15
REMARK    5  A    between atoms: C_5  and  C_6
REMARK    6  A    between atoms: N_15  and  S_16
REMARK    7  A    between atoms: S_16  and  C_19
REMARK    8  A    between atoms: C_22  and  C_23
REMARK    9  A    between atoms: N_26  and  C_27
REMARK                            x       y       z     vdW  Elec       q    Type
REMARK                         _______ _______ _______ _____ _____    ______ ____
ROOT
ATOM      1  S   UNL     1       2.953   5.231  19.969  0.00  0.00    +0.000 S 
ATOM      2  O   UNL     1       2.257   4.714  21.121  0.00  0.00    +0.000 OA
ATOM      3  O   UNL     1       4.386   5.337  19.921  0.00  0.00    +0.000 OA
ENDROOT
BRANCH   1   4
ATOM      4  C   UNL     1       2.315   6.857  19.630  0.00  0.00    +0.000 A 
ATOM      5  C   UNL     1       2.497   7.437  18.377  0.00  0.00    +0.000 A 
ATOM      6  C   UNL     1       2.006   8.723  18.139  0.00  0.00    +0.000 A 
ATOM      7  C   UNL     1       1.334   9.427  19.151  0.00  0.00    +0.000 A 
ATOM      8  C   UNL     1       1.144   8.814  20.401  0.00  0.00    +0.000 A 
ATOM      9  C   UNL     1       1.616   7.525  20.639  0.00  0.00    +0.000 A 
BRANCH   7  10
ATOM     10  C   UNL     1       0.811  10.762  18.902  0.00  0.00    +0.000 A 
ATOM     11  N   UNL     1      -0.519  11.026  18.703  0.00  0.00    +0.000 NA
ATOM     12  N   UNL     1      -0.630  12.339  18.575  0.00  0.00    +0.000 NA
ATOM     13  N   UNL     1       0.628  12.824  18.702  0.00  0.00    +0.000 N 
ATOM     14  N   UNL     1       1.571  11.865  18.873  0.00  0.00    +0.000 NA
BRANCH  13  15
ATOM     15  C   UNL     1       0.941  14.201  18.688  0.00  0.00    +0.000 A 
ATOM     16  C   UNL     1       2.254  14.624  18.444  0.00  0.00    +0.000 A 
ATOM     17  C   UNL     1       2.548  15.989  18.424  0.00  0.00    +0.000 A 
ATOM     18  C   UNL     1       1.540  16.927  18.651  0.00  0.00    +0.000 A 
ATOM     19  C   UNL     1       0.233  16.508  18.893  0.00  0.00    +0.000 A 
ATOM     20  C   UNL     1      -0.072  15.147  18.908  0.00  0.00    +0.000 A 
ENDBRANCH  13  15
ENDBRANCH   7  10
ENDBRANCH   1   4
BRANCH   1  21
ATOM     21  N   UNL     1       2.486   4.386  18.554  0.00  0.00    +0.000 NA
ATOM     22  H   UNL     1       1.734   3.743  18.831  0.00  0.00    +0.000 HD
BRANCH  21  23
ATOM     23  C   UNL     1       3.540   3.598  17.801  0.00  0.00    +0.000 C 
BRANCH  23  25
ATOM     24  O   UNL     1       3.956   1.271  18.423  0.00  0.00    +0.000 OA
ATOM     25  C   UNL     1       3.203   2.105  17.939  0.00  0.00    +0.000 C 
BRANCH  25  26
ATOM     26  O   UNL     1       1.956   1.791  17.502  0.00  0.00    +0.000 OA
ATOM     27  H   UNL     1       1.311   1.930  18.231  0.00  0.00    +0.000 HD
ENDBRANCH  25  26
ENDBRANCH  23  25
BRANCH  23  28
ATOM     28  C   UNL     1       3.686   3.935  16.314  0.00  0.00    +0.000 C 
BRANCH  28  29
ATOM     29  C   UNL     1       5.015   4.511  15.928  0.00  0.00    +0.000 A 
ATOM     30  C   UNL     1       5.857   5.287  16.698  0.00  0.00    +0.000 A 
ATOM     31  N   UNL     1       6.967   5.589  15.952  0.00  0.00    +0.000 N 
ATOM     32  C   UNL     1       6.865   5.022  14.703  0.00  0.00    +0.000 A 
ATOM     33  C   UNL     1       7.741   5.070  13.610  0.00  0.00    +0.000 A 
ATOM     34  C   UNL     1       7.363   4.388  12.449  0.00  0.00    +0.000 A 
ATOM     35  C   UNL     1       6.170   3.675  12.390  0.00  0.00    +0.000 A 
ATOM     36  C   UNL     1       5.316   3.629  13.492  0.00  0.00    +0.000 A 
ATOM     37  C   UNL     1       5.660   4.326  14.666  0.00  0.00    +0.000 A 
ATOM     38  H   UNL     1       7.749   6.145  16.269  0.00  0.00    +0.000 HD
ENDBRANCH  28  29
ENDBRANCH  23  28
ENDBRANCH  21  23
ENDBRANCH   1  21
TORSDOF 9
ENDMDL
MODEL 8
REMARK VINA RESULT:      -8.9      2.459      3.238
REMARK  Name = 
REMARK  9 active torsions:
REMARK  status: ('A' for Active; 'I' for Inactive)
REMARK    1  A    between atoms: C_2  and  O_3
REMARK    2  A    between atoms: C_2  and  C_4
REMARK    3  A    between atoms: C_4  and  C_5
REMARK    4  A    between atoms: C_4  and  N_15
REMARK    5  A    between atoms: C_5  and  C_6
REMARK    6  A    between atoms: N_15  and  S_16
REMARK    7  A    between atoms: S_16  and  C_19
REMARK    8  A    between atoms: C_22  and  C_23
REMARK    9  A    between atoms: N_26  and  C_27
REMARK                            x       y       z     vdW  Elec       q    Type
REMARK                         _______ _______ _______ _____ _____    ______ ____
ROOT
ATOM      1  S   UNL     1       3.465   5.449  19.747  0.00  0.00    +0.000 S 
ATOM      2  O   UNL     1       2.908   4.644  20.804  0.00  0.00    +0.000 OA
ATOM      3  O   UNL     1       4.841   5.862  19.738  0.00  0.00    +0.000 OA
ENDROOT
BRANCH   1   4
ATOM      4  C   UNL     1       2.492   6.934  19.622  0.00  0.00    +0.000 A 
ATOM      5  C   UNL     1       2.426   7.633  18.419  0.00  0.00    +0.000 A 
ATOM      6  C   UNL     1       1.674   8.808  18.349  0.00  0.00    +0.000 A 
ATOM      7  C   UNL     1       0.987   9.282  19.479  0.00  0.00    +0.000 A 
ATOM      8  C   UNL     1       1.050   8.548  20.675  0.00  0.00    +0.000 A 
ATOM      9  C   UNL     1       1.785   7.367  20.747  0.00  0.00    +0.000 A 
BRANCH   7  10
ATOM     10  C   UNL     1       0.192  10.498  19.405  0.00  0.00    +0.000 A 
ATOM     11  N   UNL     1       0.624  11.647  18.797  0.00  0.00    +0.000 NA
ATOM     12  N   UNL     1      -0.376  12.512  18.865  0.00  0.00    +0.000 NA
ATOM     13  N   UNL     1      -1.375  11.861  19.507  0.00  0.00    +0.000 N 
ATOM     14  N   UNL     1      -1.050  10.605  19.898  0.00  0.00    +0.000 NA
BRANCH  13  15
ATOM     15  C   UNL     1      -2.653  12.419  19.733  0.00  0.00    +0.000 A 
ATOM     16  C   UNL     1      -3.757  11.974  18.994  0.00  0.00    +0.000 A 
ATOM     17  C   UNL     1      -5.017  12.527  19.233  0.00  0.00    +0.000 A 
ATOM     18  C   UNL     1      -5.175  13.522  20.198  0.00  0.00    +0.000 A 
ATOM     19  C   UNL     1      -4.077  13.966  20.934  0.00  0.00    +0.000 A 
ATOM     20  C   UNL     1      -2.817  13.414  20.709  0.00  0.00    +0.000 A 
ENDBRANCH  13  15
ENDBRANCH   7  10
ENDBRANCH   1   4
BRANCH   1  21
ATOM     21  N   UNL     1       3.171   4.726  18.221  0.00  0.00    +0.000 NA
ATOM     22  H   UNL     1       2.253   4.270  18.285  0.00  0.00    +0.000 HD
BRANCH  21  23
ATOM     23  C   UNL     1       4.174   3.720  17.692  0.00  0.00    +0.000 C 
BRANCH  23  25
ATOM     24  O   UNL     1       2.891   1.639  17.716  0.00  0.00    +0.000 OA
ATOM     25  C   UNL     1       3.770   2.331  18.211  0.00  0.00    +0.000 C 
BRANCH  25  26
ATOM     26  O   UNL     1       4.517   1.912  19.266  0.00  0.00    +0.000 OA
ATOM     27  H   UNL     1       5.115   2.639  19.550  0.00  0.00    +0.000 HD
ENDBRANCH  25  26
ENDBRANCH  23  25
BRANCH  23  28
ATOM     28  C   UNL     1       4.311   3.657  16.168  0.00  0.00    +0.000 C 
BRANCH  28  29
ATOM     29  C   UNL     1       5.522   4.348  15.617  0.00  0.00    +0.000 A 
ATOM     30  C   UNL     1       6.376   5.212  16.273  0.00  0.00    +0.000 A 
ATOM     31  N   UNL     1       7.351   5.604  15.394  0.00  0.00    +0.000 N 
ATOM     32  C   UNL     1       7.150   5.011  14.169  0.00  0.00    +0.000 A 
ATOM     33  C   UNL     1       7.875   5.123  12.976  0.00  0.00    +0.000 A 
ATOM     34  C   UNL     1       7.423   4.391  11.873  0.00  0.00    +0.000 A 
ATOM     35  C   UNL     1       6.304   3.569  11.966  0.00  0.00    +0.000 A 
ATOM     36  C   UNL     1       5.601   3.460  13.166  0.00  0.00    +0.000 A 
ATOM     37  C   UNL     1       6.020   4.205  14.286  0.00  0.00    +0.000 A 
ATOM     38  H   UNL     1       8.111   6.235  15.608  0.00  0.00    +0.000 HD
ENDBRANCH  28  29
ENDBRANCH  23  28
ENDBRANCH  21  23
ENDBRANCH   1  21
TORSDOF 9
ENDMDL
MODEL 9
REMARK VINA RESULT:      -8.8      1.341      1.680
REMARK  Name = 
REMARK  9 active torsions:
REMARK  status: ('A' for Active; 'I' for Inactive)
REMARK    1  A    between atoms: C_2  and  O_3
REMARK    2  A    between atoms: C_2  and  C_4
REMARK    3  A    between atoms: C_4  and  C_5
REMARK    4  A    between atoms: C_4  and  N_15
REMARK    5  A    between atoms: C_5  and  C_6
REMARK    6  A    between atoms: N_15  and  S_16
REMARK    7  A    between atoms: S_16  and  C_19
REMARK    8  A    between atoms: C_22  and  C_23
REMARK    9  A    between atoms: N_26  and  C_27
REMARK                            x       y       z     vdW  Elec       q    Type
REMARK                         _______ _______ _______ _____ _____    ______ ____
ROOT
ATOM      1  S   UNL     1       3.241   5.463  19.725  0.00  0.00    +0.000 S 
ATOM      2  O   UNL     1       2.603   4.716  20.781  0.00  0.00    +0.000 OA
ATOM      3  O   UNL     1       4.643   5.775  19.744  0.00  0.00    +0.000 OA
ENDROOT
BRANCH   1   4
ATOM      4  C   UNL     1       2.381   7.011  19.557  0.00  0.00    +0.000 A 
ATOM      5  C   UNL     1       2.416   7.708  18.351  0.00  0.00    +0.000 A 
ATOM      6  C   UNL     1       1.752   8.933  18.247  0.00  0.00    +0.000 A 
ATOM      7  C   UNL     1       1.053   9.459  19.346  0.00  0.00    +0.000 A 
ATOM      8  C   UNL     1       1.014   8.729  20.545  0.00  0.00    +0.000 A 
ATOM      9  C   UNL     1       1.660   7.499  20.651  0.00  0.00    +0.000 A 
BRANCH   7  10
ATOM     10  C   UNL     1       0.350  10.728  19.236  0.00  0.00    +0.000 A 
ATOM     11  N   UNL     1      -0.943  10.839  18.795  0.00  0.00    +0.000 NA
ATOM     12  N   UNL     1      -1.268  12.119  18.890  0.00  0.00    +0.000 NA
ATOM     13  N   UNL     1      -0.169  12.736  19.386  0.00  0.00    +0.000 N 
ATOM     14  N   UNL     1       0.884  11.906  19.584  0.00  0.00    +0.000 NA
BRANCH  13  15
ATOM     15  C   UNL     1      -0.119  14.113  19.698  0.00  0.00    +0.000 A 
ATOM     16  C   UNL     1      -0.297  14.544  21.019  0.00  0.00    +0.000 A 
ATOM     17  C   UNL     1      -0.236  15.907  21.315  0.00  0.00    +0.000 A 
ATOM     18  C   UNL     1      -0.006  16.836  20.300  0.00  0.00    +0.000 A 
ATOM     19  C   UNL     1       0.171  16.409  18.985  0.00  0.00    +0.000 A 
ATOM     20  C   UNL     1       0.121  15.049  18.680  0.00  0.00    +0.000 A 
ENDBRANCH  13  15
ENDBRANCH   7  10
ENDBRANCH   1   4
BRANCH   1  21
ATOM     21  N   UNL     1       2.929   4.739  18.204  0.00  0.00    +0.000 NA
ATOM     22  H   UNL     1       1.993   4.323  18.263  0.00  0.00    +0.000 HD
BRANCH  21  23
ATOM     23  C   UNL     1       3.893   3.687  17.692  0.00  0.00    +0.000 C 
BRANCH  23  25
ATOM     24  O   UNL     1       3.866   1.677  19.084  0.00  0.00    +0.000 OA
ATOM     25  C   UNL     1       3.384   2.313  18.156  0.00  0.00    +0.000 C 
BRANCH  25  26
ATOM     26  O   UNL     1       2.306   1.874  17.457  0.00  0.00    +0.000 OA
ATOM     27  H   UNL     1       2.608   1.301  16.717  0.00  0.00    +0.000 HD
ENDBRANCH  25  26
ENDBRANCH  23  25
BRANCH  23  28
ATOM     28  C   UNL     1       4.095   3.651  16.174  0.00  0.00    +0.000 C 
BRANCH  28  29
ATOM     29  C   UNL     1       5.342   4.327  15.690  0.00  0.00    +0.000 A 
ATOM     30  C   UNL     1       6.184   5.159  16.401  0.00  0.00    +0.000 A 
ATOM     31  N   UNL     1       7.204   5.549  15.572  0.00  0.00    +0.000 N 
ATOM     32  C   UNL     1       7.044   4.985  14.327  0.00  0.00    +0.000 A 
ATOM     33  C   UNL     1       7.821   5.107  13.168  0.00  0.00    +0.000 A 
ATOM     34  C   UNL     1       7.402   4.408  12.032  0.00  0.00    +0.000 A 
ATOM     35  C   UNL     1       6.263   3.607  12.060  0.00  0.00    +0.000 A 
ATOM     36  C   UNL     1       5.508   3.489  13.226  0.00  0.00    +0.000 A 
ATOM     37  C   UNL     1       5.894   4.201  14.378  0.00  0.00    +0.000 A 
ATOM     38  H   UNL     1       7.966   6.159  15.832  0.00  0.00    +0.000 HD
ENDBRANCH  28  29
ENDBRANCH  23  28
ENDBRANCH  21  23
ENDBRANCH   1  21
TORSDOF 9
ENDMDL
