MODEL 1
REMARK VINA RESULT:      -7.0      0.000      0.000
REMARK  Name = 
REMARK  9 active torsions:
REMARK  status: ('A' for Active; 'I' for Inactive)
REMARK    1  A    between atoms: C_1  and  C_2
REMARK    2  A    between atoms: C_2  and  S_3
REMARK    3  A    between atoms: S_3  and  C_4
REMARK    4  A    between atoms: C_6  and  C_7
REMARK    5  A    between atoms: C_7  and  C_8
REMARK    6  A    between atoms: C_11  and  O_12
REMARK    7  A    between atoms: O_12  and  C_13
REMARK    8  A    between atoms: C_17  and  O_19
REMARK    9  A    between atoms: O_19  and  C_20
REMARK                            x       y       z     vdW  Elec       q    Type
REMARK                         _______ _______ _______ _____ _____    ______ ____
ROOT
ATOM      1  C   UNL     1       6.552   4.176  13.878  0.00  0.00    +0.000 C 
ATOM      2  C   UNL     1       5.756   3.495  14.709  0.00  0.00    +0.000 C 
ATOM      3  C   UNL     1       5.635   4.168  16.050  0.00  0.00    +0.000 C 
ATOM      4  N   UNL     1       6.574   5.290  15.882  0.00  0.00    +0.000 N 
ATOM      5  C   UNL     1       7.047   6.138  16.850  0.00  0.00    +0.000 C 
ATOM      6  O   UNL     1       7.869   7.020  16.623  0.00  0.00    +0.000 OA
ATOM      7  C   UNL     1       7.132   5.375  14.546  0.00  0.00    +0.000 C 
ENDROOT
BRANCH   5   8
ATOM      8  O   UNL     1       6.534   5.885  18.081  0.00  0.00    +0.000 OA
ATOM      9  C   UNL     1       7.539   5.711  19.085  0.00  0.00    +0.000 C 
ENDBRANCH   5   8
BRANCH   1  10
ATOM     10  S   UNL     1       6.761   3.792  12.223  0.00  0.00    +0.000 S 
BRANCH  10  12
ATOM     11  C   UNL     1       4.237   3.292  11.321  0.00  0.00    +0.000 C 
ATOM     12  C   UNL     1       5.424   2.593  11.964  0.00  0.00    +0.000 C 
ENDBRANCH  10  12
ENDBRANCH   1  10
BRANCH   3  13
ATOM     13  C   UNL     1       4.189   4.627  16.319  0.00  0.00    +0.000 C 
BRANCH  13  14
ATOM     14  C   UNL     1       3.451   3.891  17.424  0.00  0.00    +0.000 A 
ATOM     15  C   UNL     1       4.132   3.125  18.379  0.00  0.00    +0.000 A 
ATOM     16  C   UNL     1       3.436   2.537  19.444  0.00  0.00    +0.000 A 
ATOM     17  C   UNL     1       2.062   2.719  19.583  0.00  0.00    +0.000 A 
ATOM     18  C   UNL     1       1.365   3.428  18.604  0.00  0.00    +0.000 A 
ATOM     19  C   UNL     1       2.056   4.010  17.537  0.00  0.00    +0.000 A 
BRANCH  17  20
ATOM     20  O   UNL     1       1.485   2.148  20.685  0.00  0.00    +0.000 OA
ATOM     21  C   UNL     1       1.710   2.850  21.907  0.00  0.00    +0.000 C 
ENDBRANCH  17  20
ENDBRANCH  13  14
ENDBRANCH   3  13
TORSDOF 6
ENDMDL
MODEL 2
REMARK VINA RESULT:      -6.7      4.215      6.082
REMARK  Name = 
REMARK  9 active torsions:
REMARK  status: ('A' for Active; 'I' for Inactive)
REMARK    1  A    between atoms: C_1  and  C_2
REMARK    2  A    between atoms: C_2  and  S_3
REMARK    3  A    between atoms: S_3  and  C_4
REMARK    4  A    between atoms: C_6  and  C_7
REMARK    5  A    between atoms: C_7  and  C_8
REMARK    6  A    between atoms: C_11  and  O_12
REMARK    7  A    between atoms: O_12  and  C_13
REMARK    8  A    between atoms: C_17  and  O_19
REMARK    9  A    between atoms: O_19  and  C_20
REMARK                            x       y       z     vdW  Elec       q    Type
REMARK                         _______ _______ _______ _____ _____    ______ ____
ROOT
ATOM      1  C   UNL     1       5.101   4.690  16.845  0.00  0.00    +0.000 C 
ATOM      2  C   UNL     1       4.371   5.793  17.036  0.00  0.00    +0.000 C 
ATOM      3  C   UNL     1       3.125   5.512  17.833  0.00  0.00    +0.000 C 
ATOM      4  N   UNL     1       3.212   4.049  17.975  0.00  0.00    +0.000 N 
ATOM      5  C   UNL     1       2.243   3.193  18.432  0.00  0.00    +0.000 C 
ATOM      6  O   UNL     1       2.389   1.976  18.471  0.00  0.00    +0.000 OA
ATOM      7  C   UNL     1       4.435   3.492  17.429  0.00  0.00    +0.000 C 
ENDROOT
BRANCH   5   8
ATOM      8  O   UNL     1       1.103   3.827  18.809  0.00  0.00    +0.000 OA
ATOM      9  C   UNL     1       0.816   3.686  20.204  0.00  0.00    +0.000 C 
ENDBRANCH   5   8
BRANCH   1  10
ATOM     10  S   UNL     1       6.662   4.683  16.142  0.00  0.00    +0.000 S 
BRANCH  10  12
ATOM     11  C   UNL     1       7.641   5.858  18.400  0.00  0.00    +0.000 C 
ATOM     12  C   UNL     1       7.715   4.558  17.616  0.00  0.00    +0.000 C 
ENDBRANCH  10  12
ENDBRANCH   1  10
BRANCH   3  13
ATOM     13  C   UNL     1       3.143   6.252  19.184  0.00  0.00    +0.000 C 
BRANCH  13  14
ATOM     14  C   UNL     1       2.323   7.529  19.256  0.00  0.00    +0.000 A 
ATOM     15  C   UNL     1       2.154   8.357  18.140  0.00  0.00    +0.000 A 
ATOM     16  C   UNL     1       1.313   9.476  18.209  0.00  0.00    +0.000 A 
ATOM     17  C   UNL     1       0.616   9.772  19.378  0.00  0.00    +0.000 A 
ATOM     18  C   UNL     1       0.825   8.989  20.513  0.00  0.00    +0.000 A 
ATOM     19  C   UNL     1       1.669   7.875  20.450  0.00  0.00    +0.000 A 
BRANCH  17  20
ATOM     20  O   UNL     1      -0.220  10.855  19.327  0.00  0.00    +0.000 OA
ATOM     21  C   UNL     1       0.405  12.070  18.914  0.00  0.00    +0.000 C 
ENDBRANCH  17  20
ENDBRANCH  13  14
ENDBRANCH   3  13
TORSDOF 6
ENDMDL
MODEL 3
REMARK VINA RESULT:      -6.7      4.164      5.733
REMARK  Name = 
REMARK  9 active torsions:
REMARK  status: ('A' for Active; 'I' for Inactive)
REMARK    1  A    between atoms: C_1  and  C_2
REMARK    2  A    between atoms: C_2  and  S_3
REMARK    3  A    between atoms: S_3  and  C_4
REMARK    4  A    between atoms: C_6  and  C_7
REMARK    5  A    between atoms: C_7  and  C_8
REMARK    6  A    between atoms: C_11  and  O_12
REMARK    7  A    between atoms: O_12  and  C_13
REMARK    8  A    between atoms: C_17  and  O_19
REMARK    9  A    between atoms: O_19  and  C_20
REMARK                            x       y       z     vdW  Elec       q    Type
REMARK                         _______ _______ _______ _____ _____    ______ ____
ROOT
ATOM      1  C   UNL     1       5.468   4.655  17.329  0.00  0.00    +0.000 C 
ATOM      2  C   UNL     1       4.703   5.750  17.374  0.00  0.00    +0.000 C 
ATOM      3  C   UNL     1       3.363   5.475  18.003  0.00  0.00    +0.000 C 
ATOM      4  N   UNL     1       3.451   4.020  18.217  0.00  0.00    +0.000 N 
ATOM      5  C   UNL     1       2.442   3.163  18.571  0.00  0.00    +0.000 C 
ATOM      6  O   UNL     1       2.600   1.952  18.680  0.00  0.00    +0.000 OA
ATOM      7  C   UNL     1       4.746   3.467  17.866  0.00  0.00    +0.000 C 
ENDROOT
BRANCH   5   8
ATOM      8  O   UNL     1       1.251   3.788  18.763  0.00  0.00    +0.000 OA
ATOM      9  C   UNL     1       0.780   3.698  20.111  0.00  0.00    +0.000 C 
ENDBRANCH   5   8
BRANCH   1  10
ATOM     10  S   UNL     1       7.110   4.654  16.847  0.00  0.00    +0.000 S 
BRANCH  10  12
ATOM     11  C   UNL     1       6.099   3.940  14.418  0.00  0.00    +0.000 C 
ATOM     12  C   UNL     1       6.961   5.007  15.073  0.00  0.00    +0.000 C 
ENDBRANCH  10  12
ENDBRANCH   1  10
BRANCH   3  13
ATOM     13  C   UNL     1       3.185   6.267  19.313  0.00  0.00    +0.000 C 
BRANCH  13  14
ATOM     14  C   UNL     1       2.294   7.494  19.233  0.00  0.00    +0.000 A 
ATOM     15  C   UNL     1       1.655   8.014  20.366  0.00  0.00    +0.000 A 
ATOM     16  C   UNL     1       0.918   9.202  20.282  0.00  0.00    +0.000 A 
ATOM     17  C   UNL     1       0.824   9.898  19.079  0.00  0.00    +0.000 A 
ATOM     18  C   UNL     1       1.405   9.358  17.931  0.00  0.00    +0.000 A 
ATOM     19  C   UNL     1       2.136   8.167  18.011  0.00  0.00    +0.000 A 
BRANCH  17  20
ATOM     20  O   UNL     1       0.127  11.075  19.113  0.00  0.00    +0.000 OA
ATOM     21  C   UNL     1      -1.292  10.924  19.162  0.00  0.00    +0.000 C 
ENDBRANCH  17  20
ENDBRANCH  13  14
ENDBRANCH   3  13
TORSDOF 6
ENDMDL
MODEL 4
REMARK VINA RESULT:      -6.7      0.444      1.223
REMARK  Name = 
REMARK  9 active torsions:
REMARK  status: ('A' for Active; 'I' for Inactive)
REMARK    1  A    between atoms: C_1  and  C_2
REMARK    2  A    between atoms: C_2  and  S_3
REMARK    3  A    between atoms: S_3  and  C_4
REMARK    4  A    between atoms: C_6  and  C_7
REMARK    5  A    between atoms: C_7  and  C_8
REMARK    6  A    between atoms: C_11  and  O_12
REMARK    7  A    between atoms: O_12  and  C_13
REMARK    8  A    between atoms: C_17  and  O_19
REMARK    9  A    between atoms: O_19  and  C_20
REMARK                            x       y       z     vdW  Elec       q    Type
REMARK                         _______ _______ _______ _____ _____    ______ ____
ROOT
ATOM      1  C   UNL     1       6.623   4.113  13.768  0.00  0.00    +0.000 C 
ATOM      2  C   UNL     1       5.793   3.418  14.552  0.00  0.00    +0.000 C 
ATOM      3  C   UNL     1       5.619   4.065  15.901  0.00  0.00    +0.000 C 
ATOM      4  N   UNL     1       6.567   5.187  15.793  0.00  0.00    +0.000 N 
ATOM      5  C   UNL     1       7.003   6.014  16.796  0.00  0.00    +0.000 C 
ATOM      6  O   UNL     1       7.835   6.898  16.620  0.00  0.00    +0.000 OA
ATOM      7  C   UNL     1       7.179   5.297  14.482  0.00  0.00    +0.000 C 
ENDROOT
BRANCH   5   8
ATOM      8  O   UNL     1       6.439   5.738  18.000  0.00  0.00    +0.000 OA
ATOM      9  C   UNL     1       7.386   5.720  19.073  0.00  0.00    +0.000 C 
ENDBRANCH   5   8
BRANCH   1  10
ATOM     10  S   UNL     1       6.898   3.761  12.116  0.00  0.00    +0.000 S 
BRANCH  10  12
ATOM     11  C   UNL     1       6.278   1.297  11.126  0.00  0.00    +0.000 C 
ATOM     12  C   UNL     1       5.635   2.495  11.806  0.00  0.00    +0.000 C 
ENDBRANCH  10  12
ENDBRANCH   1  10
BRANCH   3  13
ATOM     13  C   UNL     1       4.164   4.523  16.121  0.00  0.00    +0.000 C 
BRANCH  13  14
ATOM     14  C   UNL     1       3.476   3.980  17.361  0.00  0.00    +0.000 A 
ATOM     15  C   UNL     1       2.192   4.398  17.731  0.00  0.00    +0.000 A 
ATOM     16  C   UNL     1       1.541   3.810  18.824  0.00  0.00    +0.000 A 
ATOM     17  C   UNL     1       2.150   2.787  19.548  0.00  0.00    +0.000 A 
ATOM     18  C   UNL     1       3.452   2.405  19.226  0.00  0.00    +0.000 A 
ATOM     19  C   UNL     1       4.107   2.996  18.140  0.00  0.00    +0.000 A 
BRANCH  17  20
ATOM     20  O   UNL     1       1.412   2.242  20.563  0.00  0.00    +0.000 OA
ATOM     21  C   UNL     1       1.746   2.721  21.865  0.00  0.00    +0.000 C 
ENDBRANCH  17  20
ENDBRANCH  13  14
ENDBRANCH   3  13
TORSDOF 6
ENDMDL
MODEL 5
REMARK VINA RESULT:      -6.7      4.189      6.087
REMARK  Name = 
REMARK  9 active torsions:
REMARK  status: ('A' for Active; 'I' for Inactive)
REMARK    1  A    between atoms: C_1  and  C_2
REMARK    2  A    between atoms: C_2  and  S_3
REMARK    3  A    between atoms: S_3  and  C_4
REMARK    4  A    between atoms: C_6  and  C_7
REMARK    5  A    between atoms: C_7  and  C_8
REMARK    6  A    between atoms: C_11  and  O_12
REMARK    7  A    between atoms: O_12  and  C_13
REMARK    8  A    between atoms: C_17  and  O_19
REMARK    9  A    between atoms: O_19  and  C_20
REMARK                            x       y       z     vdW  Elec       q    Type
REMARK                         _______ _______ _______ _____ _____    ______ ____
ROOT
ATOM      1  C   UNL     1       5.020   4.451  16.934  0.00  0.00    +0.000 C 
ATOM      2  C   UNL     1       4.304   5.574  17.050  0.00  0.00    +0.000 C 
ATOM      3  C   UNL     1       3.087   5.379  17.914  0.00  0.00    +0.000 C 
ATOM      4  N   UNL     1       3.171   3.935  18.189  0.00  0.00    +0.000 N 
ATOM      5  C   UNL     1       2.215   3.134  18.758  0.00  0.00    +0.000 C 
ATOM      6  O   UNL     1       2.357   1.924  18.905  0.00  0.00    +0.000 OA
ATOM      7  C   UNL     1       4.369   3.318  17.652  0.00  0.00    +0.000 C 
ENDROOT
BRANCH   5   8
ATOM      8  O   UNL     1       1.094   3.810  19.117  0.00  0.00    +0.000 OA
ATOM      9  C   UNL     1       0.947   3.945  20.535  0.00  0.00    +0.000 C 
ENDBRANCH   5   8
BRANCH   1  10
ATOM     10  S   UNL     1       6.553   4.365  16.178  0.00  0.00    +0.000 S 
BRANCH  10  12
ATOM     11  C   UNL     1       7.509   5.911  18.211  0.00  0.00    +0.000 C 
ATOM     12  C   UNL     1       7.663   4.525  17.606  0.00  0.00    +0.000 C 
ENDBRANCH  10  12
ENDBRANCH   1  10
BRANCH   3  13
ATOM     13  C   UNL     1       3.160   6.241  19.190  0.00  0.00    +0.000 C 
BRANCH  13  14
ATOM     14  C   UNL     1       2.267   7.469  19.216  0.00  0.00    +0.000 A 
ATOM     15  C   UNL     1       1.638   7.895  20.392  0.00  0.00    +0.000 A 
ATOM     16  C   UNL     1       0.898   9.085  20.411  0.00  0.00    +0.000 A 
ATOM     17  C   UNL     1       0.793   9.875  19.268  0.00  0.00    +0.000 A 
ATOM     18  C   UNL     1       1.364   9.429  18.076  0.00  0.00    +0.000 A 
ATOM     19  C   UNL     1       2.097   8.237  18.053  0.00  0.00    +0.000 A 
BRANCH  17  20
ATOM     20  O   UNL     1       0.094  11.043  19.402  0.00  0.00    +0.000 OA
ATOM     21  C   UNL     1       0.772  12.202  18.918  0.00  0.00    +0.000 C 
ENDBRANCH  17  20
ENDBRANCH  13  14
ENDBRANCH   3  13
TORSDOF 6
ENDMDL
MODEL 6
REMARK VINA RESULT:      -6.7      4.131      5.285
REMARK  Name = 
REMARK  9 active torsions:
REMARK  status: ('A' for Active; 'I' for Inactive)
REMARK    1  A    between atoms: C_1  and  C_2
REMARK    2  A    between atoms: C_2  and  S_3
REMARK    3  A    between atoms: S_3  and  C_4
REMARK    4  A    between atoms: C_6  and  C_7
REMARK    5  A    between atoms: C_7  and  C_8
REMARK    6  A    between atoms: C_11  and  O_12
REMARK    7  A    between atoms: O_12  and  C_13
REMARK    8  A    between atoms: C_17  and  O_19
REMARK    9  A    between atoms: O_19  and  C_20
REMARK                            x       y       z     vdW  Elec       q    Type
REMARK                         _______ _______ _______ _____ _____    ______ ____
ROOT
ATOM      1  C   UNL     1       4.066   3.713  17.717  0.00  0.00    +0.000 C 
ATOM      2  C   UNL     1       3.647   4.783  18.400  0.00  0.00    +0.000 C 
ATOM      3  C   UNL     1       4.397   6.029  18.008  0.00  0.00    +0.000 C 
ATOM      4  N   UNL     1       5.381   5.474  17.064  0.00  0.00    +0.000 N 
ATOM      5  C   UNL     1       6.479   6.101  16.534  0.00  0.00    +0.000 C 
ATOM      6  O   UNL     1       7.274   5.541  15.787  0.00  0.00    +0.000 OA
ATOM      7  C   UNL     1       5.193   4.059  16.806  0.00  0.00    +0.000 C 
ENDROOT
BRANCH   5   8
ATOM      8  O   UNL     1       6.606   7.391  16.939  0.00  0.00    +0.000 OA
ATOM      9  C   UNL     1       7.739   7.605  17.787  0.00  0.00    +0.000 C 
ENDBRANCH   5   8
BRANCH   1  10
ATOM     10  S   UNL     1       3.308   2.180  17.782  0.00  0.00    +0.000 S 
BRANCH  10  12
ATOM     11  C   UNL     1       0.829   2.447  18.884  0.00  0.00    +0.000 C 
ATOM     12  C   UNL     1       2.293   2.347  19.277  0.00  0.00    +0.000 C 
ENDBRANCH  10  12
ENDBRANCH   1  10
BRANCH   3  13
ATOM     13  C   UNL     1       3.460   7.068  17.361  0.00  0.00    +0.000 C 
BRANCH  13  14
ATOM     14  C   UNL     1       2.521   7.797  18.306  0.00  0.00    +0.000 A 
ATOM     15  C   UNL     1       2.341   7.380  19.631  0.00  0.00    +0.000 A 
ATOM     16  C   UNL     1       1.544   8.128  20.508  0.00  0.00    +0.000 A 
ATOM     17  C   UNL     1       0.936   9.308  20.087  0.00  0.00    +0.000 A 
ATOM     18  C   UNL     1       1.059   9.700  18.754  0.00  0.00    +0.000 A 
ATOM     19  C   UNL     1       1.848   8.951  17.874  0.00  0.00    +0.000 A 
BRANCH  17  20
ATOM     20  O   UNL     1       0.223   9.993  21.033  0.00  0.00    +0.000 OA
ATOM     21  C   UNL     1       0.030  11.378  20.746  0.00  0.00    +0.000 C 
ENDBRANCH  17  20
ENDBRANCH  13  14
ENDBRANCH   3  13
TORSDOF 6
ENDMDL
MODEL 7
REMARK VINA RESULT:      -6.5      4.392      6.231
REMARK  Name = 
REMARK  9 active torsions:
REMARK  status: ('A' for Active; 'I' for Inactive)
REMARK    1  A    between atoms: C_1  and  C_2
REMARK    2  A    between atoms: C_2  and  S_3
REMARK    3  A    between atoms: S_3  and  C_4
REMARK    4  A    between atoms: C_6  and  C_7
REMARK    5  A    between atoms: C_7  and  C_8
REMARK    6  A    between atoms: C_11  and  O_12
REMARK    7  A    between atoms: O_12  and  C_13
REMARK    8  A    between atoms: C_17  and  O_19
REMARK    9  A    between atoms: O_19  and  C_20
REMARK                            x       y       z     vdW  Elec       q    Type
REMARK                         _______ _______ _______ _____ _____    ______ ____
ROOT
ATOM      1  C   UNL     1       5.783   5.272  18.075  0.00  0.00    +0.000 C 
ATOM      2  C   UNL     1       4.791   6.165  18.001  0.00  0.00    +0.000 C 
ATOM      3  C   UNL     1       3.438   5.510  18.080  0.00  0.00    +0.000 C 
ATOM      4  N   UNL     1       3.820   4.088  18.107  0.00  0.00    +0.000 N 
ATOM      5  C   UNL     1       3.000   2.998  17.965  0.00  0.00    +0.000 C 
ATOM      6  O   UNL     1       3.418   1.845  17.954  0.00  0.00    +0.000 OA
ATOM      7  C   UNL     1       5.255   3.881  18.157  0.00  0.00    +0.000 C 
ENDROOT
BRANCH   5   8
ATOM      8  O   UNL     1       1.692   3.328  17.815  0.00  0.00    +0.000 OA
ATOM      9  C   UNL     1       0.825   2.602  18.692  0.00  0.00    +0.000 C 
ENDBRANCH   5   8
BRANCH   1  10
ATOM     10  S   UNL     1       7.439   5.689  18.200  0.00  0.00    +0.000 S 
BRANCH  10  12
ATOM     11  C   UNL     1       8.085   8.326  17.948  0.00  0.00    +0.000 C 
ATOM     12  C   UNL     1       7.515   7.166  17.148  0.00  0.00    +0.000 C 
ENDBRANCH  10  12
ENDBRANCH   1  10
BRANCH   3  13
ATOM     13  C   UNL     1       2.672   5.954  19.341  0.00  0.00    +0.000 C 
BRANCH  13  14
ATOM     14  C   UNL     1       2.040   7.333  19.286  0.00  0.00    +0.000 A 
ATOM     15  C   UNL     1       1.528   7.954  20.433  0.00  0.00    +0.000 A 
ATOM     16  C   UNL     1       1.039   9.265  20.371  0.00  0.00    +0.000 A 
ATOM     17  C   UNL     1       1.073   9.982  19.178  0.00  0.00    +0.000 A 
ATOM     18  C   UNL     1       1.524   9.353  18.017  0.00  0.00    +0.000 A 
ATOM     19  C   UNL     1       2.005   8.041  18.074  0.00  0.00    +0.000 A 
BRANCH  17  20
ATOM     20  O   UNL     1       0.621  11.273  19.233  0.00  0.00    +0.000 OA
ATOM     21  C   UNL     1       1.215  12.067  20.260  0.00  0.00    +0.000 C 
ENDBRANCH  17  20
ENDBRANCH  13  14
ENDBRANCH   3  13
TORSDOF 6
ENDMDL
MODEL 8
REMARK VINA RESULT:      -6.4      4.458      5.956
REMARK  Name = 
REMARK  9 active torsions:
REMARK  status: ('A' for Active; 'I' for Inactive)
REMARK    1  A    between atoms: C_1  and  C_2
REMARK    2  A    between atoms: C_2  and  S_3
REMARK    3  A    between atoms: S_3  and  C_4
REMARK    4  A    between atoms: C_6  and  C_7
REMARK    5  A    between atoms: C_7  and  C_8
REMARK    6  A    between atoms: C_11  and  O_12
REMARK    7  A    between atoms: O_12  and  C_13
REMARK    8  A    between atoms: C_17  and  O_19
REMARK    9  A    between atoms: O_19  and  C_20
REMARK                            x       y       z     vdW  Elec       q    Type
REMARK                         _______ _______ _______ _____ _____    ______ ____
ROOT
ATOM      1  C   UNL     1       4.461   3.848  19.279  0.00  0.00    +0.000 C 
ATOM      2  C   UNL     1       3.862   5.005  19.573  0.00  0.00    +0.000 C 
ATOM      3  C   UNL     1       4.436   6.153  18.786  0.00  0.00    +0.000 C 
ATOM      4  N   UNL     1       5.531   5.476  18.070  0.00  0.00    +0.000 N 
ATOM      5  C   UNL     1       6.547   6.055  17.354  0.00  0.00    +0.000 C 
ATOM      6  O   UNL     1       7.447   5.409  16.828  0.00  0.00    +0.000 OA
ATOM      7  C   UNL     1       5.564   4.044  18.296  0.00  0.00    +0.000 C 
ENDROOT
BRANCH   5   8
ATOM      8  O   UNL     1       6.467   7.410  17.310  0.00  0.00    +0.000 OA
ATOM      9  C   UNL     1       7.715   8.056  17.580  0.00  0.00    +0.000 C 
ENDBRANCH   5   8
BRANCH   1  10
ATOM     10  S   UNL     1       3.934   2.323  19.852  0.00  0.00    +0.000 S 
BRANCH  10  12
ATOM     11  C   UNL     1       1.835   2.674  21.557  0.00  0.00    +0.000 C 
ATOM     12  C   UNL     1       2.157   2.621  20.073  0.00  0.00    +0.000 C 
ENDBRANCH  10  12
ENDBRANCH   1  10
BRANCH   3  13
ATOM     13  C   UNL     1       3.386   6.768  17.841  0.00  0.00    +0.000 C 
BRANCH  13  14
ATOM     14  C   UNL     1       2.447   7.787  18.461  0.00  0.00    +0.000 A 
ATOM     15  C   UNL     1       2.019   7.679  19.790  0.00  0.00    +0.000 A 
ATOM     16  C   UNL     1       1.231   8.685  20.366  0.00  0.00    +0.000 A 
ATOM     17  C   UNL     1       0.878   9.818  19.636  0.00  0.00    +0.000 A 
ATOM     18  C   UNL     1       1.248   9.907  18.293  0.00  0.00    +0.000 A 
ATOM     19  C   UNL     1       2.028   8.900  17.714  0.00  0.00    +0.000 A 
BRANCH  17  20
ATOM     20  O   UNL     1       0.153  10.767  20.304  0.00  0.00    +0.000 OA
ATOM     21  C   UNL     1       0.871  11.964  20.602  0.00  0.00    +0.000 C 
ENDBRANCH  17  20
ENDBRANCH  13  14
ENDBRANCH   3  13
TORSDOF 6
ENDMDL
MODEL 9
REMARK VINA RESULT:      -6.4      0.971      1.056
REMARK  Name = 
REMARK  9 active torsions:
REMARK  status: ('A' for Active; 'I' for Inactive)
REMARK    1  A    between atoms: C_1  and  C_2
REMARK    2  A    between atoms: C_2  and  S_3
REMARK    3  A    between atoms: S_3  and  C_4
REMARK    4  A    between atoms: C_6  and  C_7
REMARK    5  A    between atoms: C_7  and  C_8
REMARK    6  A    between atoms: C_11  and  O_12
REMARK    7  A    between atoms: O_12  and  C_13
REMARK    8  A    between atoms: C_17  and  O_19
REMARK    9  A    between atoms: O_19  and  C_20
REMARK                            x       y       z     vdW  Elec       q    Type
REMARK                         _______ _______ _______ _____ _____    ______ ____
ROOT
ATOM      1  C   UNL     1       6.633   4.246  14.041  0.00  0.00    +0.000 C 
ATOM      2  C   UNL     1       5.800   3.580  14.846  0.00  0.00    +0.000 C 
ATOM      3  C   UNL     1       5.631   4.269  16.175  0.00  0.00    +0.000 C 
ATOM      4  N   UNL     1       6.585   5.381  16.033  0.00  0.00    +0.000 N 
ATOM      5  C   UNL     1       7.026   6.236  17.010  0.00  0.00    +0.000 C 
ATOM      6  O   UNL     1       7.863   7.109  16.807  0.00  0.00    +0.000 OA
ATOM      7  C   UNL     1       7.196   5.448  14.719  0.00  0.00    +0.000 C 
ENDROOT
BRANCH   5   8
ATOM      8  O   UNL     1       6.462   6.000  18.222  0.00  0.00    +0.000 OA
ATOM      9  C   UNL     1       7.423   5.716  19.244  0.00  0.00    +0.000 C 
ENDBRANCH   5   8
BRANCH   1  10
ATOM     10  S   UNL     1       6.905   3.843  12.400  0.00  0.00    +0.000 S 
BRANCH  10  12
ATOM     11  C   UNL     1       5.726   1.618  11.353  0.00  0.00    +0.000 C 
ATOM     12  C   UNL     1       5.377   2.951  11.994  0.00  0.00    +0.000 C 
ENDBRANCH  10  12
ENDBRANCH   1  10
BRANCH   3  13
ATOM     13  C   UNL     1       4.179   4.741  16.381  0.00  0.00    +0.000 C 
BRANCH  13  14
ATOM     14  C   UNL     1       3.577   4.466  17.748  0.00  0.00    +0.000 A 
ATOM     15  C   UNL     1       3.693   3.214  18.364  0.00  0.00    +0.000 A 
ATOM     16  C   UNL     1       3.213   3.016  19.666  0.00  0.00    +0.000 A 
ATOM     17  C   UNL     1       2.632   4.064  20.377  0.00  0.00    +0.000 A 
ATOM     18  C   UNL     1       2.456   5.298  19.751  0.00  0.00    +0.000 A 
ATOM     19  C   UNL     1       2.928   5.496  18.449  0.00  0.00    +0.000 A 
BRANCH  17  20
ATOM     20  O   UNL     1       2.243   3.783  21.658  0.00  0.00    +0.000 OA
ATOM     21  C   UNL     1       1.629   2.506  21.828  0.00  0.00    +0.000 C 
ENDBRANCH  17  20
ENDBRANCH  13  14
ENDBRANCH   3  13
TORSDOF 6
ENDMDL
