MODEL 1
REMARK VINA RESULT:      -7.5      0.000      0.000
REMARK  Name = 
REMARK  1 active torsions:
REMARK  status: ('A' for Active; 'I' for Inactive)
REMARK    1  A    between atoms: C_4  and  C_5
REMARK                            x       y       z     vdW  Elec       q    Type
REMARK                         _______ _______ _______ _____ _____    ______ ____
ROOT
ATOM      1  O   UNL     1       8.278   7.777  18.218  0.00  0.00    +0.000 OA
ATOM      2  C   UNL     1       7.608   6.806  17.877  0.00  0.00    +0.000 C 
ATOM      3  C   UNL     1       6.890   5.925  18.867  0.00  0.00    +0.000 C 
ATOM      4  C   UNL     1       5.655   5.238  18.275  0.00  0.00    +0.000 C 
ATOM      5  C   UNL     1       5.885   4.810  16.848  0.00  0.00    +0.000 A 
ATOM      6  C   UNL     1       6.810   5.383  16.049  0.00  0.00    +0.000 A 
ATOM      7  N   UNL     1       6.900   4.962  14.733  0.00  0.00    +0.000 N 
ATOM      8  C   UNL     1       7.742   5.413  13.729  0.00  0.00    +0.000 A 
ATOM      9  C   UNL     1       7.559   4.844  12.527  0.00  0.00    +0.000 A 
ATOM     10  S   UNL     1       6.274   3.657  12.578  0.00  0.00    +0.000 S 
ATOM     11  C   UNL     1       6.021   3.982  14.306  0.00  0.00    +0.000 A 
ATOM     12  N   UNL     1       5.133   3.357  14.990  0.00  0.00    +0.000 NA
ATOM     13  C   UNL     1       5.042   3.680  16.325  0.00  0.00    +0.000 A 
ATOM     14  O   UNL     1       4.310   3.070  17.095  0.00  0.00    +0.000 OA
ATOM     15  N   UNL     1       7.584   6.394  16.571  0.00  0.00    +0.000 N 
ATOM     16  H   UNL     1       8.151   6.956  15.952  0.00  0.00    +0.000 HD
ENDROOT
BRANCH   4  17
ATOM     17  C   UNL     1       4.386   6.069  18.433  0.00  0.00    +0.000 A 
ATOM     18  C   UNL     1       4.140   7.132  17.547  0.00  0.00    +0.000 A 
ATOM     19  C   UNL     1       2.988   7.915  17.670  0.00  0.00    +0.000 A 
ATOM     20  C   UNL     1       2.065   7.654  18.679  0.00  0.00    +0.000 A 
ATOM     21  C   UNL     1       2.297   6.613  19.572  0.00  0.00    +0.000 A 
ATOM     22  C   UNL     1       3.448   5.840  19.448  0.00  0.00    +0.000 A 
ATOM     23  F   UNL     1       3.644   4.871  20.350  0.00  0.00    +0.000 F 
ENDBRANCH   4  17
TORSDOF 1
ENDMDL
MODEL 2
REMARK VINA RESULT:      -7.0      1.009      1.435
REMARK  Name = 
REMARK  1 active torsions:
REMARK  status: ('A' for Active; 'I' for Inactive)
REMARK    1  A    between atoms: C_4  and  C_5
REMARK                            x       y       z     vdW  Elec       q    Type
REMARK                         _______ _______ _______ _____ _____    ______ ____
ROOT
ATOM      1  O   UNL     1       8.289   7.780  18.211  0.00  0.00    +0.000 OA
ATOM      2  C   UNL     1       7.627   6.803  17.875  0.00  0.00    +0.000 C 
ATOM      3  C   UNL     1       6.926   5.913  18.870  0.00  0.00    +0.000 C 
ATOM      4  C   UNL     1       5.694   5.214  18.287  0.00  0.00    +0.000 C 
ATOM      5  C   UNL     1       5.917   4.790  16.858  0.00  0.00    +0.000 A 
ATOM      6  C   UNL     1       6.829   5.372  16.052  0.00  0.00    +0.000 A 
ATOM      7  N   UNL     1       6.912   4.954  14.735  0.00  0.00    +0.000 N 
ATOM      8  C   UNL     1       7.742   5.415  13.724  0.00  0.00    +0.000 A 
ATOM      9  C   UNL     1       7.554   4.844  12.524  0.00  0.00    +0.000 A 
ATOM     10  S   UNL     1       6.282   3.644  12.584  0.00  0.00    +0.000 S 
ATOM     11  C   UNL     1       6.040   3.965  14.314  0.00  0.00    +0.000 A 
ATOM     12  N   UNL     1       5.165   3.330  15.005  0.00  0.00    +0.000 NA
ATOM     13  C   UNL     1       5.081   3.651  16.341  0.00  0.00    +0.000 A 
ATOM     14  O   UNL     1       4.362   3.033  17.117  0.00  0.00    +0.000 OA
ATOM     15  N   UNL     1       7.597   6.391  16.569  0.00  0.00    +0.000 N 
ATOM     16  H   UNL     1       8.153   6.960  15.946  0.00  0.00    +0.000 HD
ENDROOT
BRANCH   4  17
ATOM     17  C   UNL     1       4.418   6.032  18.456  0.00  0.00    +0.000 A 
ATOM     18  C   UNL     1       3.583   5.791  19.561  0.00  0.00    +0.000 A 
ATOM     19  C   UNL     1       2.404   6.520  19.741  0.00  0.00    +0.000 A 
ATOM     20  C   UNL     1       2.036   7.500  18.822  0.00  0.00    +0.000 A 
ATOM     21  C   UNL     1       2.844   7.744  17.716  0.00  0.00    +0.000 A 
ATOM     22  C   UNL     1       4.014   7.011  17.540  0.00  0.00    +0.000 A 
ATOM     23  F   UNL     1       4.742   7.259  16.444  0.00  0.00    +0.000 F 
ENDBRANCH   4  17
TORSDOF 1
ENDMDL
MODEL 3
REMARK VINA RESULT:      -6.7      7.421     10.022
REMARK  Name = 
REMARK  1 active torsions:
REMARK  status: ('A' for Active; 'I' for Inactive)
REMARK    1  A    between atoms: C_4  and  C_5
REMARK                            x       y       z     vdW  Elec       q    Type
REMARK                         _______ _______ _______ _____ _____    ______ ____
ROOT
ATOM      1  O   UNL     1      -2.272  11.271  16.443  0.00  0.00    +0.000 OA
ATOM      2  C   UNL     1      -1.788  11.455  17.556  0.00  0.00    +0.000 C 
ATOM      3  C   UNL     1      -1.929  10.459  18.680  0.00  0.00    +0.000 C 
ATOM      4  C   UNL     1      -0.782  10.530  19.693  0.00  0.00    +0.000 C 
ATOM      5  C   UNL     1      -0.340  11.950  19.937  0.00  0.00    +0.000 A 
ATOM      6  C   UNL     1      -0.543  12.946  19.050  0.00  0.00    +0.000 A 
ATOM      7  N   UNL     1      -0.042  14.204  19.340  0.00  0.00    +0.000 N 
ATOM      8  C   UNL     1      -0.101  15.362  18.582  0.00  0.00    +0.000 A 
ATOM      9  C   UNL     1       0.528  16.425  19.108  0.00  0.00    +0.000 A 
ATOM     10  S   UNL     1       1.261  16.030  20.647  0.00  0.00    +0.000 S 
ATOM     11  C   UNL     1       0.656  14.364  20.525  0.00  0.00    +0.000 A 
ATOM     12  N   UNL     1       0.875  13.495  21.443  0.00  0.00    +0.000 NA
ATOM     13  C   UNL     1       0.341  12.242  21.247  0.00  0.00    +0.000 A 
ATOM     14  O   UNL     1       0.391  11.369  22.105  0.00  0.00    +0.000 OA
ATOM     15  N   UNL     1      -1.196  12.648  17.876  0.00  0.00    +0.000 N 
ATOM     16  H   UNL     1      -1.202  13.324  17.125  0.00  0.00    +0.000 HD
ENDROOT
BRANCH   4  17
ATOM     17  C   UNL     1       0.383   9.615  19.328  0.00  0.00    +0.000 A 
ATOM     18  C   UNL     1       0.987   9.734  18.065  0.00  0.00    +0.000 A 
ATOM     19  C   UNL     1       2.053   8.907  17.699  0.00  0.00    +0.000 A 
ATOM     20  C   UNL     1       2.533   7.945  18.585  0.00  0.00    +0.000 A 
ATOM     21  C   UNL     1       1.939   7.805  19.835  0.00  0.00    +0.000 A 
ATOM     22  C   UNL     1       0.875   8.628  20.192  0.00  0.00    +0.000 A 
ATOM     23  F   UNL     1       0.316   8.434  21.393  0.00  0.00    +0.000 F 
ENDBRANCH   4  17
TORSDOF 1
ENDMDL
MODEL 4
REMARK VINA RESULT:      -6.7      2.807      3.802
REMARK  Name = 
REMARK  1 active torsions:
REMARK  status: ('A' for Active; 'I' for Inactive)
REMARK    1  A    between atoms: C_4  and  C_5
REMARK                            x       y       z     vdW  Elec       q    Type
REMARK                         _______ _______ _______ _____ _____    ______ ____
ROOT
ATOM      1  O   UNL     1       1.521   8.243  17.800  0.00  0.00    +0.000 OA
ATOM      2  C   UNL     1       2.426   7.487  18.142  0.00  0.00    +0.000 C 
ATOM      3  C   UNL     1       2.667   7.104  19.580  0.00  0.00    +0.000 C 
ATOM      4  C   UNL     1       3.341   5.737  19.733  0.00  0.00    +0.000 C 
ATOM      5  C   UNL     1       4.375   5.502  18.662  0.00  0.00    +0.000 A 
ATOM      6  C   UNL     1       4.359   6.137  17.471  0.00  0.00    +0.000 A 
ATOM      7  N   UNL     1       5.317   5.804  16.529  0.00  0.00    +0.000 N 
ATOM      8  C   UNL     1       5.483   6.294  15.244  0.00  0.00    +0.000 A 
ATOM      9  C   UNL     1       6.481   5.736  14.541  0.00  0.00    +0.000 A 
ATOM     10  S   UNL     1       7.312   4.516  15.481  0.00  0.00    +0.000 S 
ATOM     11  C   UNL     1       6.235   4.822  16.860  0.00  0.00    +0.000 A 
ATOM     12  N   UNL     1       6.354   4.185  17.968  0.00  0.00    +0.000 NA
ATOM     13  C   UNL     1       5.474   4.522  18.971  0.00  0.00    +0.000 A 
ATOM     14  O   UNL     1       5.567   4.060  20.103  0.00  0.00    +0.000 OA
ATOM     15  N   UNL     1       3.355   7.050  17.236  0.00  0.00    +0.000 N 
ATOM     16  H   UNL     1       3.213   7.401  16.299  0.00  0.00    +0.000 HD
ENDROOT
BRANCH   4  17
ATOM     17  C   UNL     1       2.337   4.593  19.829  0.00  0.00    +0.000 A 
ATOM     18  C   UNL     1       1.691   4.139  18.667  0.00  0.00    +0.000 A 
ATOM     19  C   UNL     1       0.762   3.096  18.724  0.00  0.00    +0.000 A 
ATOM     20  C   UNL     1       0.459   2.489  19.941  0.00  0.00    +0.000 A 
ATOM     21  C   UNL     1       1.080   2.933  21.103  0.00  0.00    +0.000 A 
ATOM     22  C   UNL     1       2.001   3.975  21.041  0.00  0.00    +0.000 A 
ATOM     23  F   UNL     1       2.548   4.389  22.191  0.00  0.00    +0.000 F 
ENDBRANCH   4  17
TORSDOF 1
ENDMDL
MODEL 5
REMARK VINA RESULT:      -6.7      8.113     10.627
REMARK  Name = 
REMARK  1 active torsions:
REMARK  status: ('A' for Active; 'I' for Inactive)
REMARK    1  A    between atoms: C_4  and  C_5
REMARK                            x       y       z     vdW  Elec       q    Type
REMARK                         _______ _______ _______ _____ _____    ______ ____
ROOT
ATOM      1  O   UNL     1      -0.368  14.323  20.564  0.00  0.00    +0.000 OA
ATOM      2  C   UNL     1      -0.831  13.480  19.802  0.00  0.00    +0.000 C 
ATOM      3  C   UNL     1      -0.007  12.804  18.736  0.00  0.00    +0.000 C 
ATOM      4  C   UNL     1      -0.524  11.410  18.370  0.00  0.00    +0.000 C 
ATOM      5  C   UNL     1      -2.030  11.357  18.365  0.00  0.00    +0.000 A 
ATOM      6  C   UNL     1      -2.799  12.220  19.062  0.00  0.00    +0.000 A 
ATOM      7  N   UNL     1      -4.173  12.047  19.044  0.00  0.00    +0.000 N 
ATOM      8  C   UNL     1      -5.152  12.781  19.694  0.00  0.00    +0.000 A 
ATOM      9  C   UNL     1      -6.408  12.338  19.525  0.00  0.00    +0.000 A 
ATOM     10  S   UNL     1      -6.447  10.922  18.498  0.00  0.00    +0.000 S 
ATOM     11  C   UNL     1      -4.681  10.984  18.318  0.00  0.00    +0.000 A 
ATOM     12  N   UNL     1      -4.042  10.132  17.601  0.00  0.00    +0.000 NA
ATOM     13  C   UNL     1      -2.678  10.293  17.521  0.00  0.00    +0.000 A 
ATOM     14  O   UNL     1      -1.982   9.609  16.779  0.00  0.00    +0.000 OA
ATOM     15  N   UNL     1      -2.172  13.199  19.799  0.00  0.00    +0.000 N 
ATOM     16  H   UNL     1      -2.707  13.738  20.466  0.00  0.00    +0.000 HD
ENDROOT
BRANCH   4  17
ATOM     17  C   UNL     1       0.092  10.310  19.228  0.00  0.00    +0.000 A 
ATOM     18  C   UNL     1      -0.386  10.101  20.533  0.00  0.00    +0.000 A 
ATOM     19  C   UNL     1       0.162   9.104  21.346  0.00  0.00    +0.000 A 
ATOM     20  C   UNL     1       1.196   8.300  20.872  0.00  0.00    +0.000 A 
ATOM     21  C   UNL     1       1.689   8.500  19.587  0.00  0.00    +0.000 A 
ATOM     22  C   UNL     1       1.144   9.497  18.784  0.00  0.00    +0.000 A 
ATOM     23  F   UNL     1       1.673   9.673  17.567  0.00  0.00    +0.000 F 
ENDBRANCH   4  17
TORSDOF 1
ENDMDL
MODEL 6
REMARK VINA RESULT:      -6.5      2.852      3.967
REMARK  Name = 
REMARK  1 active torsions:
REMARK  status: ('A' for Active; 'I' for Inactive)
REMARK    1  A    between atoms: C_4  and  C_5
REMARK                            x       y       z     vdW  Elec       q    Type
REMARK                         _______ _______ _______ _____ _____    ______ ____
ROOT
ATOM      1  O   UNL     1       1.472   8.228  17.814  0.00  0.00    +0.000 OA
ATOM      2  C   UNL     1       2.396   7.499  18.163  0.00  0.00    +0.000 C 
ATOM      3  C   UNL     1       2.685   7.188  19.610  0.00  0.00    +0.000 C 
ATOM      4  C   UNL     1       3.381   5.837  19.806  0.00  0.00    +0.000 C 
ATOM      5  C   UNL     1       4.384   5.562  18.716  0.00  0.00    +0.000 A 
ATOM      6  C   UNL     1       4.323   6.138  17.498  0.00  0.00    +0.000 A 
ATOM      7  N   UNL     1       5.255   5.770  16.543  0.00  0.00    +0.000 N 
ATOM      8  C   UNL     1       5.376   6.199  15.231  0.00  0.00    +0.000 A 
ATOM      9  C   UNL     1       6.358   5.618  14.525  0.00  0.00    +0.000 A 
ATOM     10  S   UNL     1       7.232   4.453  15.495  0.00  0.00    +0.000 S 
ATOM     11  C   UNL     1       6.195   4.814  16.891  0.00  0.00    +0.000 A 
ATOM     12  N   UNL     1       6.356   4.234  18.024  0.00  0.00    +0.000 NA
ATOM     13  C   UNL     1       5.504   4.609  19.037  0.00  0.00    +0.000 A 
ATOM     14  O   UNL     1       5.636   4.204  20.186  0.00  0.00    +0.000 OA
ATOM     15  N   UNL     1       3.302   7.027  17.250  0.00  0.00    +0.000 N 
ATOM     16  H   UNL     1       3.126   7.332  16.303  0.00  0.00    +0.000 HD
ENDROOT
BRANCH   4  17
ATOM     17  C   UNL     1       2.394   4.689  19.989  0.00  0.00    +0.000 A 
ATOM     18  C   UNL     1       2.244   4.100  21.256  0.00  0.00    +0.000 A 
ATOM     19  C   UNL     1       1.351   3.043  21.455  0.00  0.00    +0.000 A 
ATOM     20  C   UNL     1       0.595   2.552  20.393  0.00  0.00    +0.000 A 
ATOM     21  C   UNL     1       0.739   3.115  19.129  0.00  0.00    +0.000 A 
ATOM     22  C   UNL     1       1.632   4.164  18.936  0.00  0.00    +0.000 A 
ATOM     23  F   UNL     1       1.760   4.651  17.696  0.00  0.00    +0.000 F 
ENDBRANCH   4  17
TORSDOF 1
ENDMDL
MODEL 7
REMARK VINA RESULT:      -6.4      7.481      9.891
REMARK  Name = 
REMARK  1 active torsions:
REMARK  status: ('A' for Active; 'I' for Inactive)
REMARK    1  A    between atoms: C_4  and  C_5
REMARK                            x       y       z     vdW  Elec       q    Type
REMARK                         _______ _______ _______ _____ _____    ______ ____
ROOT
ATOM      1  O   UNL     1       2.025  13.403  21.197  0.00  0.00    +0.000 OA
ATOM      2  C   UNL     1       1.259  12.862  20.404  0.00  0.00    +0.000 C 
ATOM      3  C   UNL     1       1.741  12.150  19.166  0.00  0.00    +0.000 C 
ATOM      4  C   UNL     1       0.789  11.044  18.701  0.00  0.00    +0.000 C 
ATOM      5  C   UNL     1      -0.655  11.436  18.883  0.00  0.00    +0.000 A 
ATOM      6  C   UNL     1      -1.057  12.367  19.774  0.00  0.00    +0.000 A 
ATOM      7  N   UNL     1      -2.413  12.610  19.912  0.00  0.00    +0.000 N 
ATOM      8  C   UNL     1      -3.058  13.488  20.768  0.00  0.00    +0.000 A 
ATOM      9  C   UNL     1      -4.399  13.465  20.708  0.00  0.00    +0.000 A 
ATOM     10  S   UNL     1      -4.962  12.301  19.529  0.00  0.00    +0.000 S 
ATOM     11  C   UNL     1      -3.285  11.870  19.132  0.00  0.00    +0.000 A 
ATOM     12  N   UNL     1      -3.004  10.991  18.240  0.00  0.00    +0.000 NA
ATOM     13  C   UNL     1      -1.669  10.754  18.006  0.00  0.00    +0.000 A 
ATOM     14  O   UNL     1      -1.285  10.020  17.103  0.00  0.00    +0.000 OA
ATOM     15  N   UNL     1      -0.098  12.992  20.539  0.00  0.00    +0.000 N 
ATOM     16  H   UNL     1      -0.380  13.553  21.330  0.00  0.00    +0.000 HD
ENDROOT
BRANCH   4  17
ATOM     17  C   UNL     1       1.106   9.691  19.331  0.00  0.00    +0.000 A 
ATOM     18  C   UNL     1       0.673   9.419  20.640  0.00  0.00    +0.000 A 
ATOM     19  C   UNL     1       0.953   8.191  21.248  0.00  0.00    +0.000 A 
ATOM     20  C   UNL     1       1.670   7.215  20.561  0.00  0.00    +0.000 A 
ATOM     21  C   UNL     1       2.116   7.470  19.268  0.00  0.00    +0.000 A 
ATOM     22  C   UNL     1       1.839   8.696  18.671  0.00  0.00    +0.000 A 
ATOM     23  F   UNL     1       2.317   8.909  17.438  0.00  0.00    +0.000 F 
ENDBRANCH   4  17
TORSDOF 1
ENDMDL
MODEL 8
REMARK VINA RESULT:      -6.2      7.496      9.624
REMARK  Name = 
REMARK  1 active torsions:
REMARK  status: ('A' for Active; 'I' for Inactive)
REMARK    1  A    between atoms: C_4  and  C_5
REMARK                            x       y       z     vdW  Elec       q    Type
REMARK                         _______ _______ _______ _____ _____    ______ ____
ROOT
ATOM      1  O   UNL     1       2.091   8.884  17.486  0.00  0.00    +0.000 OA
ATOM      2  C   UNL     1       1.179   9.474  18.057  0.00  0.00    +0.000 C 
ATOM      3  C   UNL     1       1.230   9.828  19.522  0.00  0.00    +0.000 C 
ATOM      4  C   UNL     1       0.387  11.058  19.872  0.00  0.00    +0.000 C 
ATOM      5  C   UNL     1      -0.900  11.094  19.089  0.00  0.00    +0.000 A 
ATOM      6  C   UNL     1      -1.062  10.456  17.911  0.00  0.00    +0.000 A 
ATOM      7  N   UNL     1      -2.262  10.603  17.236  0.00  0.00    +0.000 N 
ATOM      8  C   UNL     1      -2.647  10.074  16.015  0.00  0.00    +0.000 A 
ATOM      9  C   UNL     1      -3.867  10.440  15.590  0.00  0.00    +0.000 A 
ATOM     10  S   UNL     1      -4.644  11.508  16.737  0.00  0.00    +0.000 S 
ATOM     11  C   UNL     1      -3.229  11.414  17.807  0.00  0.00    +0.000 A 
ATOM     12  N   UNL     1      -3.185  12.034  18.930  0.00  0.00    +0.000 NA
ATOM     13  C   UNL     1      -2.044  11.870  19.681  0.00  0.00    +0.000 A 
ATOM     14  O   UNL     1      -1.939  12.324  20.815  0.00  0.00    +0.000 OA
ATOM     15  N   UNL     1      -0.003   9.730  17.414  0.00  0.00    +0.000 N 
ATOM     16  H   UNL     1      -0.033   9.396  16.461  0.00  0.00    +0.000 HD
ENDROOT
BRANCH   4  17
ATOM     17  C   UNL     1       1.171  12.362  19.758  0.00  0.00    +0.000 A 
ATOM     18  C   UNL     1       1.872  12.646  18.574  0.00  0.00    +0.000 A 
ATOM     19  C   UNL     1       2.604  13.830  18.441  0.00  0.00    +0.000 A 
ATOM     20  C   UNL     1       2.651  14.748  19.488  0.00  0.00    +0.000 A 
ATOM     21  C   UNL     1       1.973  14.478  20.671  0.00  0.00    +0.000 A 
ATOM     22  C   UNL     1       1.250  13.296  20.799  0.00  0.00    +0.000 A 
ATOM     23  F   UNL     1       0.640  13.064  21.969  0.00  0.00    +0.000 F 
ENDBRANCH   4  17
TORSDOF 1
ENDMDL
MODEL 9
REMARK VINA RESULT:      -6.2      3.370      5.242
REMARK  Name = 
REMARK  1 active torsions:
REMARK  status: ('A' for Active; 'I' for Inactive)
REMARK    1  A    between atoms: C_4  and  C_5
REMARK                            x       y       z     vdW  Elec       q    Type
REMARK                         _______ _______ _______ _____ _____    ______ ____
ROOT
ATOM      1  O   UNL     1       2.312   8.696  19.023  0.00  0.00    +0.000 OA
ATOM      2  C   UNL     1       2.665   7.658  18.470  0.00  0.00    +0.000 C 
ATOM      3  C   UNL     1       3.492   7.648  17.210  0.00  0.00    +0.000 C 
ATOM      4  C   UNL     1       4.343   6.383  17.061  0.00  0.00    +0.000 C 
ATOM      5  C   UNL     1       3.611   5.157  17.544  0.00  0.00    +0.000 A 
ATOM      6  C   UNL     1       2.597   5.209  18.433  0.00  0.00    +0.000 A 
ATOM      7  N   UNL     1       2.032   4.020  18.863  0.00  0.00    +0.000 N 
ATOM      8  C   UNL     1       1.011   3.822  19.779  0.00  0.00    +0.000 A 
ATOM      9  C   UNL     1       0.711   2.538  20.034  0.00  0.00    +0.000 A 
ATOM     10  S   UNL     1       1.723   1.454  19.105  0.00  0.00    +0.000 S 
ATOM     11  C   UNL     1       2.552   2.839  18.363  0.00  0.00    +0.000 A 
ATOM     12  N   UNL     1       3.487   2.685  17.497  0.00  0.00    +0.000 NA
ATOM     13  C   UNL     1       4.042   3.832  16.977  0.00  0.00    +0.000 A 
ATOM     14  O   UNL     1       4.861   3.806  16.066  0.00  0.00    +0.000 OA
ATOM     15  N   UNL     1       2.210   6.442  18.906  0.00  0.00    +0.000 N 
ATOM     16  H   UNL     1       1.585   6.497  19.698  0.00  0.00    +0.000 HD
ENDROOT
BRANCH   4  17
ATOM     17  C   UNL     1       5.722   6.523  17.698  0.00  0.00    +0.000 A 
ATOM     18  C   UNL     1       6.632   7.459  17.179  0.00  0.00    +0.000 A 
ATOM     19  C   UNL     1       7.905   7.608  17.737  0.00  0.00    +0.000 A 
ATOM     20  C   UNL     1       8.293   6.823  18.821  0.00  0.00    +0.000 A 
ATOM     21  C   UNL     1       7.409   5.883  19.341  0.00  0.00    +0.000 A 
ATOM     22  C   UNL     1       6.145   5.737  18.778  0.00  0.00    +0.000 A 
ATOM     23  F   UNL     1       5.341   4.797  19.291  0.00  0.00    +0.000 F 
ENDBRANCH   4  17
TORSDOF 1
ENDMDL
