MODEL 1
REMARK VINA RESULT:      -8.4      0.000      0.000
REMARK  Name = 
REMARK  8 active torsions:
REMARK  status: ('A' for Active; 'I' for Inactive)
REMARK    1  A    between atoms: C_1  and  C_2
REMARK    2  A    between atoms: C_5  and  C_6
REMARK    3  A    between atoms: N_8  and  C_9
REMARK    4  A    between atoms: C_9  and  C_10
REMARK    5  A    between atoms: C_10  and  C_11
REMARK    6  A    between atoms: C_10  and  S_16
REMARK    7  A    between atoms: S_16  and  C_19
REMARK    8  A    between atoms: C_25  and  C_26
REMARK                            x       y       z     vdW  Elec       q    Type
REMARK                         _______ _______ _______ _____ _____    ______ ____
ROOT
ATOM      1  C   UNL     1       3.748   5.458  19.631  0.00  0.00    +0.000 C 
ENDROOT
BRANCH   1   2
ATOM      2  C   UNL     1       2.666   4.421  19.849  0.00  0.00    +0.000 A 
ATOM      3  C   UNL     1       2.224   3.920  21.062  0.00  0.00    +0.000 A 
ATOM      4  C   UNL     1       1.152   2.993  20.916  0.00  0.00    +0.000 A 
ATOM      5  C   UNL     1       0.801   2.816  19.598  0.00  0.00    +0.000 A 
ATOM      6  S   UNL     1       1.755   3.764  18.550  0.00  0.00    +0.000 S 
ENDBRANCH   1   2
BRANCH   1   7
ATOM      7  S   UNL     1       5.328   4.717  19.209  0.00  0.00    +0.000 S 
ATOM      8  O   UNL     1       6.420   5.554  19.668  0.00  0.00    +0.000 OA
ATOM      9  O   UNL     1       5.287   3.307  19.554  0.00  0.00    +0.000 OA
BRANCH   7  10
ATOM     10  C   UNL     1       5.477   4.735  17.431  0.00  0.00    +0.000 A 
ATOM     11  C   UNL     1       4.811   4.024  16.448  0.00  0.00    +0.000 A 
ATOM     12  C   UNL     1       5.187   4.424  15.134  0.00  0.00    +0.000 A 
ATOM     13  C   UNL     1       6.132   5.426  15.154  0.00  0.00    +0.000 A 
ATOM     14  S   UNL     1       6.567   5.866  16.751  0.00  0.00    +0.000 S 
ENDBRANCH   7  10
ENDBRANCH   1   7
BRANCH   1  15
ATOM     15  C   UNL     1       3.383   6.494  18.561  0.00  0.00    +0.000 C 
BRANCH  15  18
ATOM     16  C   UNL     1       2.087   8.552  18.182  0.00  0.00    +0.000 C 
ATOM     17  O   UNL     1       2.691   8.794  17.143  0.00  0.00    +0.000 OA
ATOM     18  N   UNL     1       2.368   7.461  18.987  0.00  0.00    +0.000 N 
ATOM     19  H   UNL     1       1.629   7.149  19.604  0.00  0.00    +0.000 HD
BRANCH  16  24
ATOM     20  C   UNL     1      -2.252  12.070  19.783  0.00  0.00    +0.000 C 
ATOM     21  C   UNL     1      -1.146  11.140  19.361  0.00  0.00    +0.000 A 
ATOM     22  C   UNL     1      -0.047  10.948  20.211  0.00  0.00    +0.000 A 
ATOM     23  C   UNL     1       1.003  10.102  19.848  0.00  0.00    +0.000 A 
ATOM     24  C   UNL     1       0.968   9.432  18.623  0.00  0.00    +0.000 A 
ATOM     25  C   UNL     1      -0.120   9.626  17.760  0.00  0.00    +0.000 A 
ATOM     26  C   UNL     1      -1.185  10.471  18.119  0.00  0.00    +0.000 A 
ATOM     27  C   UNL     1      -2.335  10.656  17.167  0.00  0.00    +0.000 C 
ENDBRANCH  16  24
ENDBRANCH  15  18
ENDBRANCH   1  15
TORSDOF 6
ENDMDL
MODEL 2
REMARK VINA RESULT:      -8.2      0.845      1.540
REMARK  Name = 
REMARK  8 active torsions:
REMARK  status: ('A' for Active; 'I' for Inactive)
REMARK    1  A    between atoms: C_1  and  C_2
REMARK    2  A    between atoms: C_5  and  C_6
REMARK    3  A    between atoms: N_8  and  C_9
REMARK    4  A    between atoms: C_9  and  C_10
REMARK    5  A    between atoms: C_10  and  C_11
REMARK    6  A    between atoms: C_10  and  S_16
REMARK    7  A    between atoms: S_16  and  C_19
REMARK    8  A    between atoms: C_25  and  C_26
REMARK                            x       y       z     vdW  Elec       q    Type
REMARK                         _______ _______ _______ _____ _____    ______ ____
ROOT
ATOM      1  C   UNL     1       3.730   5.205  19.586  0.00  0.00    +0.000 C 
ENDROOT
BRANCH   1   2
ATOM      2  C   UNL     1       2.644   4.148  19.588  0.00  0.00    +0.000 A 
ATOM      3  C   UNL     1       2.145   3.468  20.686  0.00  0.00    +0.000 A 
ATOM      4  C   UNL     1       1.087   2.576  20.346  0.00  0.00    +0.000 A 
ATOM      5  C   UNL     1       0.803   2.604  19.000  0.00  0.00    +0.000 A 
ATOM      6  S   UNL     1       1.803   3.700  18.159  0.00  0.00    +0.000 S 
ENDBRANCH   1   2
BRANCH   1   7
ATOM      7  S   UNL     1       5.338   4.529  19.165  0.00  0.00    +0.000 S 
ATOM      8  O   UNL     1       6.396   5.370  19.693  0.00  0.00    +0.000 OA
ATOM      9  O   UNL     1       5.329   3.103  19.437  0.00  0.00    +0.000 OA
BRANCH   7  10
ATOM     10  C   UNL     1       5.528   4.643  17.394  0.00  0.00    +0.000 A 
ATOM     11  C   UNL     1       4.899   3.971  16.361  0.00  0.00    +0.000 A 
ATOM     12  C   UNL     1       5.297   4.445  15.078  0.00  0.00    +0.000 A 
ATOM     13  C   UNL     1       6.221   5.463  15.173  0.00  0.00    +0.000 A 
ATOM     14  S   UNL     1       6.611   5.827  16.800  0.00  0.00    +0.000 S 
ENDBRANCH   7  10
ENDBRANCH   1   7
BRANCH   1  15
ATOM     15  C   UNL     1       3.424   6.381  18.650  0.00  0.00    +0.000 C 
BRANCH  15  18
ATOM     16  C   UNL     1       2.104   8.450  18.459  0.00  0.00    +0.000 C 
ATOM     17  O   UNL     1       2.396   8.579  17.275  0.00  0.00    +0.000 OA
ATOM     18  N   UNL     1       2.584   7.420  19.250  0.00  0.00    +0.000 N 
ATOM     19  H   UNL     1       2.042   7.191  20.075  0.00  0.00    +0.000 HD
BRANCH  16  24
ATOM     20  C   UNL     1      -1.648  12.070  21.026  0.00  0.00    +0.000 C 
ATOM     21  C   UNL     1      -0.659  11.134  20.383  0.00  0.00    +0.000 A 
ATOM     22  C   UNL     1      -0.321  11.313  19.032  0.00  0.00    +0.000 A 
ATOM     23  C   UNL     1       0.584  10.458  18.399  0.00  0.00    +0.000 A 
ATOM     24  C   UNL     1       1.166   9.407  19.110  0.00  0.00    +0.000 A 
ATOM     25  C   UNL     1       0.826   9.212  20.456  0.00  0.00    +0.000 A 
ATOM     26  C   UNL     1      -0.079  10.070  21.105  0.00  0.00    +0.000 A 
ATOM     27  C   UNL     1      -0.420   9.828  22.550  0.00  0.00    +0.000 C 
ENDBRANCH  16  24
ENDBRANCH  15  18
ENDBRANCH   1  15
TORSDOF 6
ENDMDL
MODEL 3
REMARK VINA RESULT:      -8.2      1.893      2.629
REMARK  Name = 
REMARK  8 active torsions:
REMARK  status: ('A' for Active; 'I' for Inactive)
REMARK    1  A    between atoms: C_1  and  C_2
REMARK    2  A    between atoms: C_5  and  C_6
REMARK    3  A    between atoms: N_8  and  C_9
REMARK    4  A    between atoms: C_9  and  C_10
REMARK    5  A    between atoms: C_10  and  C_11
REMARK    6  A    between atoms: C_10  and  S_16
REMARK    7  A    between atoms: S_16  and  C_19
REMARK    8  A    between atoms: C_25  and  C_26
REMARK                            x       y       z     vdW  Elec       q    Type
REMARK                         _______ _______ _______ _____ _____    ______ ____
ROOT
ATOM      1  C   UNL     1       3.515   5.517  19.155  0.00  0.00    +0.000 C 
ENDROOT
BRANCH   1   2
ATOM      2  C   UNL     1       2.493   4.509  19.639  0.00  0.00    +0.000 A 
ATOM      3  C   UNL     1       1.604   3.785  18.862  0.00  0.00    +0.000 A 
ATOM      4  C   UNL     1       0.814   2.881  19.629  0.00  0.00    +0.000 A 
ATOM      5  C   UNL     1       1.124   2.935  20.968  0.00  0.00    +0.000 A 
ATOM      6  S   UNL     1       2.361   4.063  21.293  0.00  0.00    +0.000 S 
ENDBRANCH   1   2
BRANCH   1   7
ATOM      7  S   UNL     1       4.778   4.765  18.125  0.00  0.00    +0.000 S 
ATOM      8  O   UNL     1       5.350   3.607  18.786  0.00  0.00    +0.000 OA
ATOM      9  O   UNL     1       4.270   4.660  16.769  0.00  0.00    +0.000 OA
BRANCH   7  10
ATOM     10  C   UNL     1       6.135   5.917  18.003  0.00  0.00    +0.000 A 
ATOM     11  C   UNL     1       6.335   7.014  17.183  0.00  0.00    +0.000 A 
ATOM     12  C   UNL     1       7.537   7.714  17.490  0.00  0.00    +0.000 A 
ATOM     13  C   UNL     1       8.219   7.129  18.533  0.00  0.00    +0.000 A 
ATOM     14  S   UNL     1       7.416   5.735  19.123  0.00  0.00    +0.000 S 
ENDBRANCH   7  10
ENDBRANCH   1   7
BRANCH   1  15
ATOM     15  C   UNL     1       2.890   6.694  18.396  0.00  0.00    +0.000 C 
BRANCH  15  18
ATOM     16  C   UNL     1       1.753   8.856  18.697  0.00  0.00    +0.000 C 
ATOM     17  O   UNL     1       1.807   9.100  17.497  0.00  0.00    +0.000 OA
ATOM     18  N   UNL     1       2.288   7.711  19.262  0.00  0.00    +0.000 N 
ATOM     19  H   UNL     1       1.909   7.425  20.156  0.00  0.00    +0.000 HD
BRANCH  16  24
ATOM     20  C   UNL     1      -1.072  12.420  22.315  0.00  0.00    +0.000 C 
ATOM     21  C   UNL     1      -0.324  11.489  21.398  0.00  0.00    +0.000 A 
ATOM     22  C   UNL     1       0.078  11.945  20.133  0.00  0.00    +0.000 A 
ATOM     23  C   UNL     1       0.764  11.106  19.252  0.00  0.00    +0.000 A 
ATOM     24  C   UNL     1       1.059   9.793  19.625  0.00  0.00    +0.000 A 
ATOM     25  C   UNL     1       0.652   9.323  20.881  0.00  0.00    +0.000 A 
ATOM     26  C   UNL     1      -0.034  10.161  21.778  0.00  0.00    +0.000 A 
ATOM     27  C   UNL     1      -0.457   9.622  23.118  0.00  0.00    +0.000 C 
ENDBRANCH  16  24
ENDBRANCH  15  18
ENDBRANCH   1  15
TORSDOF 6
ENDMDL
MODEL 4
REMARK VINA RESULT:      -8.0      0.700      1.596
REMARK  Name = 
REMARK  8 active torsions:
REMARK  status: ('A' for Active; 'I' for Inactive)
REMARK    1  A    between atoms: C_1  and  C_2
REMARK    2  A    between atoms: C_5  and  C_6
REMARK    3  A    between atoms: N_8  and  C_9
REMARK    4  A    between atoms: C_9  and  C_10
REMARK    5  A    between atoms: C_10  and  C_11
REMARK    6  A    between atoms: C_10  and  S_16
REMARK    7  A    between atoms: S_16  and  C_19
REMARK    8  A    between atoms: C_25  and  C_26
REMARK                            x       y       z     vdW  Elec       q    Type
REMARK                         _______ _______ _______ _____ _____    ______ ____
ROOT
ATOM      1  C   UNL     1       3.648   5.493  19.567  0.00  0.00    +0.000 C 
ENDROOT
BRANCH   1   2
ATOM      2  C   UNL     1       2.557   4.459  19.753  0.00  0.00    +0.000 A 
ATOM      3  C   UNL     1       1.791   3.868  18.762  0.00  0.00    +0.000 A 
ATOM      4  C   UNL     1       0.887   2.893  19.274  0.00  0.00    +0.000 A 
ATOM      5  C   UNL     1       0.993   2.760  20.639  0.00  0.00    +0.000 A 
ATOM      6  S   UNL     1       2.174   3.802  21.293  0.00  0.00    +0.000 S 
ENDBRANCH   1   2
BRANCH   1   7
ATOM      7  S   UNL     1       5.240   4.747  19.206  0.00  0.00    +0.000 S 
ATOM      8  O   UNL     1       6.318   5.603  19.663  0.00  0.00    +0.000 OA
ATOM      9  O   UNL     1       5.197   3.349  19.596  0.00  0.00    +0.000 OA
BRANCH   7  10
ATOM     10  C   UNL     1       5.430   4.707  17.432  0.00  0.00    +0.000 A 
ATOM     11  C   UNL     1       4.734   4.023  16.451  0.00  0.00    +0.000 A 
ATOM     12  C   UNL     1       5.169   4.359  15.137  0.00  0.00    +0.000 A 
ATOM     13  C   UNL     1       6.187   5.286  15.156  0.00  0.00    +0.000 A 
ATOM     14  S   UNL     1       6.620   5.733  16.752  0.00  0.00    +0.000 S 
ENDBRANCH   7  10
ENDBRANCH   1   7
BRANCH   1  15
ATOM     15  C   UNL     1       3.324   6.523  18.478  0.00  0.00    +0.000 C 
BRANCH  15  18
ATOM     16  C   UNL     1       2.098   8.619  18.075  0.00  0.00    +0.000 C 
ATOM     17  O   UNL     1       2.769   8.872  17.081  0.00  0.00    +0.000 OA
ATOM     18  N   UNL     1       2.306   7.502  18.867  0.00  0.00    +0.000 N 
ATOM     19  H   UNL     1       1.524   7.193  19.431  0.00  0.00    +0.000 HD
BRANCH  16  24
ATOM     20  C   UNL     1      -2.307  12.026  19.738  0.00  0.00    +0.000 C 
ATOM     21  C   UNL     1      -1.148  11.164  19.313  0.00  0.00    +0.000 A 
ATOM     22  C   UNL     1      -1.237  10.432  18.119  0.00  0.00    +0.000 A 
ATOM     23  C   UNL     1      -0.187   9.613  17.698  0.00  0.00    +0.000 A 
ATOM     24  C   UNL     1       0.972   9.514  18.470  0.00  0.00    +0.000 A 
ATOM     25  C   UNL     1       1.067  10.230  19.671  0.00  0.00    +0.000 A 
ATOM     26  C   UNL     1       0.018  11.062  20.100  0.00  0.00    +0.000 A 
ATOM     27  C   UNL     1       0.155  11.815  21.396  0.00  0.00    +0.000 C 
ENDBRANCH  16  24
ENDBRANCH  15  18
ENDBRANCH   1  15
TORSDOF 6
ENDMDL
MODEL 5
REMARK VINA RESULT:      -8.0      1.608      4.391
REMARK  Name = 
REMARK  8 active torsions:
REMARK  status: ('A' for Active; 'I' for Inactive)
REMARK    1  A    between atoms: C_1  and  C_2
REMARK    2  A    between atoms: C_5  and  C_6
REMARK    3  A    between atoms: N_8  and  C_9
REMARK    4  A    between atoms: C_9  and  C_10
REMARK    5  A    between atoms: C_10  and  C_11
REMARK    6  A    between atoms: C_10  and  S_16
REMARK    7  A    between atoms: S_16  and  C_19
REMARK    8  A    between atoms: C_25  and  C_26
REMARK                            x       y       z     vdW  Elec       q    Type
REMARK                         _______ _______ _______ _____ _____    ______ ____
ROOT
ATOM      1  C   UNL     1       3.408   5.413  17.754  0.00  0.00    +0.000 C 
ENDROOT
BRANCH   1   2
ATOM      2  C   UNL     1       4.763   5.154  17.129  0.00  0.00    +0.000 A 
ATOM      3  C   UNL     1       5.116   5.330  15.801  0.00  0.00    +0.000 A 
ATOM      4  C   UNL     1       6.490   5.045  15.556  0.00  0.00    +0.000 A 
ATOM      5  C   UNL     1       7.150   4.665  16.701  0.00  0.00    +0.000 A 
ATOM      6  S   UNL     1       6.119   4.658  18.060  0.00  0.00    +0.000 S 
ENDBRANCH   1   2
BRANCH   1   7
ATOM      7  S   UNL     1       2.366   3.952  17.752  0.00  0.00    +0.000 S 
ATOM      8  O   UNL     1       1.025   4.285  17.310  0.00  0.00    +0.000 OA
ATOM      9  O   UNL     1       3.095   2.861  17.129  0.00  0.00    +0.000 OA
BRANCH   7  10
ATOM     10  C   UNL     1       2.154   3.434  19.447  0.00  0.00    +0.000 A 
ATOM     11  C   UNL     1       1.066   3.508  20.298  0.00  0.00    +0.000 A 
ATOM     12  C   UNL     1       1.312   2.883  21.554  0.00  0.00    +0.000 A 
ATOM     13  C   UNL     1       2.582   2.355  21.624  0.00  0.00    +0.000 A 
ATOM     14  S   UNL     1       3.471   2.628  20.186  0.00  0.00    +0.000 S 
ENDBRANCH   7  10
ENDBRANCH   1   7
BRANCH   1  15
ATOM     15  C   UNL     1       3.498   5.957  19.185  0.00  0.00    +0.000 C 
BRANCH  15  18
ATOM     16  C   UNL     1       2.402   8.098  18.664  0.00  0.00    +0.000 C 
ATOM     17  O   UNL     1       3.137   8.290  17.702  0.00  0.00    +0.000 OA
ATOM     18  N   UNL     1       2.511   6.995  19.493  0.00  0.00    +0.000 N 
ATOM     19  H   UNL     1       1.685   6.739  20.020  0.00  0.00    +0.000 HD
BRANCH  16  24
ATOM     20  C   UNL     1      -1.957  11.725  19.935  0.00  0.00    +0.000 C 
ATOM     21  C   UNL     1      -0.813  10.797  19.625  0.00  0.00    +0.000 A 
ATOM     22  C   UNL     1      -0.451  10.574  18.288  0.00  0.00    +0.000 A 
ATOM     23  C   UNL     1       0.598   9.711  17.962  0.00  0.00    +0.000 A 
ATOM     24  C   UNL     1       1.303   9.057  18.974  0.00  0.00    +0.000 A 
ATOM     25  C   UNL     1       0.943   9.263  20.312  0.00  0.00    +0.000 A 
ATOM     26  C   UNL     1      -0.107  10.134  20.652  0.00  0.00    +0.000 A 
ATOM     27  C   UNL     1      -0.467  10.330  22.100  0.00  0.00    +0.000 C 
ENDBRANCH  16  24
ENDBRANCH  15  18
ENDBRANCH   1  15
TORSDOF 6
ENDMDL
MODEL 6
REMARK VINA RESULT:      -8.0      1.009      1.181
REMARK  Name = 
REMARK  8 active torsions:
REMARK  status: ('A' for Active; 'I' for Inactive)
REMARK    1  A    between atoms: C_1  and  C_2
REMARK    2  A    between atoms: C_5  and  C_6
REMARK    3  A    between atoms: N_8  and  C_9
REMARK    4  A    between atoms: C_9  and  C_10
REMARK    5  A    between atoms: C_10  and  C_11
REMARK    6  A    between atoms: C_10  and  S_16
REMARK    7  A    between atoms: S_16  and  C_19
REMARK    8  A    between atoms: C_25  and  C_26
REMARK                            x       y       z     vdW  Elec       q    Type
REMARK                         _______ _______ _______ _____ _____    ______ ____
ROOT
ATOM      1  C   UNL     1       3.699   5.248  19.621  0.00  0.00    +0.000 C 
ENDROOT
BRANCH   1   2
ATOM      2  C   UNL     1       2.598   4.208  19.576  0.00  0.00    +0.000 A 
ATOM      3  C   UNL     1       1.942   3.736  18.451  0.00  0.00    +0.000 A 
ATOM      4  C   UNL     1       0.994   2.717  18.754  0.00  0.00    +0.000 A 
ATOM      5  C   UNL     1       0.956   2.434  20.100  0.00  0.00    +0.000 A 
ATOM      6  S   UNL     1       2.058   3.387  20.985  0.00  0.00    +0.000 S 
ENDBRANCH   1   2
BRANCH   1   7
ATOM      7  S   UNL     1       5.303   4.561  19.199  0.00  0.00    +0.000 S 
ATOM      8  O   UNL     1       6.367   5.404  19.712  0.00  0.00    +0.000 OA
ATOM      9  O   UNL     1       5.289   3.138  19.488  0.00  0.00    +0.000 OA
BRANCH   7  10
ATOM     10  C   UNL     1       5.483   4.653  17.427  0.00  0.00    +0.000 A 
ATOM     11  C   UNL     1       4.825   3.994  16.403  0.00  0.00    +0.000 A 
ATOM     12  C   UNL     1       5.229   4.445  15.114  0.00  0.00    +0.000 A 
ATOM     13  C   UNL     1       6.186   5.432  15.193  0.00  0.00    +0.000 A 
ATOM     14  S   UNL     1       6.600   5.797  16.814  0.00  0.00    +0.000 S 
ENDBRANCH   7  10
ENDBRANCH   1   7
BRANCH   1  15
ATOM     15  C   UNL     1       3.423   6.457  18.719  0.00  0.00    +0.000 C 
BRANCH  15  18
ATOM     16  C   UNL     1       2.050   8.491  18.534  0.00  0.00    +0.000 C 
ATOM     17  O   UNL     1       2.370   8.653  17.362  0.00  0.00    +0.000 OA
ATOM     18  N   UNL     1       2.537   7.458  19.317  0.00  0.00    +0.000 N 
ATOM     19  H   UNL     1       1.980   7.197  20.121  0.00  0.00    +0.000 HD
BRANCH  16  24
ATOM     20  C   UNL     1      -1.688  12.176  21.028  0.00  0.00    +0.000 C 
ATOM     21  C   UNL     1      -0.736  11.220  20.359  0.00  0.00    +0.000 A 
ATOM     22  C   UNL     1      -0.229  10.133  21.087  0.00  0.00    +0.000 A 
ATOM     23  C   UNL     1       0.665   9.232  20.504  0.00  0.00    +0.000 A 
ATOM     24  C   UNL     1       1.066   9.407  19.178  0.00  0.00    +0.000 A 
ATOM     25  C   UNL     1       0.576  10.497  18.445  0.00  0.00    +0.000 A 
ATOM     26  C   UNL     1      -0.329  11.406  19.021  0.00  0.00    +0.000 A 
ATOM     27  C   UNL     1      -0.834  12.565  18.204  0.00  0.00    +0.000 C 
ENDBRANCH  16  24
ENDBRANCH  15  18
ENDBRANCH   1  15
TORSDOF 6
ENDMDL
MODEL 7
REMARK VINA RESULT:      -8.0      1.612      1.958
REMARK  Name = 
REMARK  8 active torsions:
REMARK  status: ('A' for Active; 'I' for Inactive)
REMARK    1  A    between atoms: C_1  and  C_2
REMARK    2  A    between atoms: C_5  and  C_6
REMARK    3  A    between atoms: N_8  and  C_9
REMARK    4  A    between atoms: C_9  and  C_10
REMARK    5  A    between atoms: C_10  and  C_11
REMARK    6  A    between atoms: C_10  and  S_16
REMARK    7  A    between atoms: S_16  and  C_19
REMARK    8  A    between atoms: C_25  and  C_26
REMARK                            x       y       z     vdW  Elec       q    Type
REMARK                         _______ _______ _______ _____ _____    ______ ____
ROOT
ATOM      1  C   UNL     1       3.496   5.530  19.011  0.00  0.00    +0.000 C 
ENDROOT
BRANCH   1   2
ATOM      2  C   UNL     1       2.460   4.543  19.508  0.00  0.00    +0.000 A 
ATOM      3  C   UNL     1       1.654   3.721  18.738  0.00  0.00    +0.000 A 
ATOM      4  C   UNL     1       0.825   2.871  19.525  0.00  0.00    +0.000 A 
ATOM      5  C   UNL     1       1.024   3.061  20.873  0.00  0.00    +0.000 A 
ATOM      6  S   UNL     1       2.205   4.252  21.182  0.00  0.00    +0.000 S 
ENDBRANCH   1   2
BRANCH   1   7
ATOM      7  S   UNL     1       4.875   4.719  18.197  0.00  0.00    +0.000 S 
ATOM      8  O   UNL     1       5.420   3.674  19.042  0.00  0.00    +0.000 OA
ATOM      9  O   UNL     1       4.500   4.433  16.823  0.00  0.00    +0.000 OA
BRANCH   7  10
ATOM     10  C   UNL     1       6.197   5.909  18.058  0.00  0.00    +0.000 A 
ATOM     11  C   UNL     1       6.359   7.007  17.231  0.00  0.00    +0.000 A 
ATOM     12  C   UNL     1       7.543   7.742  17.524  0.00  0.00    +0.000 A 
ATOM     13  C   UNL     1       8.251   7.180  18.563  0.00  0.00    +0.000 A 
ATOM     14  S   UNL     1       7.493   5.768  19.167  0.00  0.00    +0.000 S 
ENDBRANCH   7  10
ENDBRANCH   1   7
BRANCH   1  15
ATOM     15  C   UNL     1       2.914   6.590  18.067  0.00  0.00    +0.000 C 
BRANCH  15  18
ATOM     16  C   UNL     1       1.821   8.793  18.175  0.00  0.00    +0.000 C 
ATOM     17  O   UNL     1       2.442   9.197  17.198  0.00  0.00    +0.000 OA
ATOM     18  N   UNL     1       1.998   7.531  18.716  0.00  0.00    +0.000 N 
ATOM     19  H   UNL     1       1.234   7.162  19.270  0.00  0.00    +0.000 HD
BRANCH  16  24
ATOM     20  C   UNL     1      -2.161  12.263  20.598  0.00  0.00    +0.000 C 
ATOM     21  C   UNL     1      -1.149  11.348  19.961  0.00  0.00    +0.000 A 
ATOM     22  C   UNL     1      -0.028  10.940  20.700  0.00  0.00    +0.000 A 
ATOM     23  C   UNL     1       0.937  10.101  20.138  0.00  0.00    +0.000 A 
ATOM     24  C   UNL     1       0.793   9.656  18.822  0.00  0.00    +0.000 A 
ATOM     25  C   UNL     1      -0.317  10.066  18.071  0.00  0.00    +0.000 A 
ATOM     26  C   UNL     1      -1.297  10.906  18.629  0.00  0.00    +0.000 A 
ATOM     27  C   UNL     1      -2.473  11.327  17.791  0.00  0.00    +0.000 C 
ENDBRANCH  16  24
ENDBRANCH  15  18
ENDBRANCH   1  15
TORSDOF 6
ENDMDL
MODEL 8
REMARK VINA RESULT:      -8.0      0.956      1.187
REMARK  Name = 
REMARK  8 active torsions:
REMARK  status: ('A' for Active; 'I' for Inactive)
REMARK    1  A    between atoms: C_1  and  C_2
REMARK    2  A    between atoms: C_5  and  C_6
REMARK    3  A    between atoms: N_8  and  C_9
REMARK    4  A    between atoms: C_9  and  C_10
REMARK    5  A    between atoms: C_10  and  C_11
REMARK    6  A    between atoms: C_10  and  S_16
REMARK    7  A    between atoms: S_16  and  C_19
REMARK    8  A    between atoms: C_25  and  C_26
REMARK                            x       y       z     vdW  Elec       q    Type
REMARK                         _______ _______ _______ _____ _____    ______ ____
ROOT
ATOM      1  C   UNL     1       3.677   5.522  19.669  0.00  0.00    +0.000 C 
ENDROOT
BRANCH   1   2
ATOM      2  C   UNL     1       2.592   4.487  19.883  0.00  0.00    +0.000 A 
ATOM      3  C   UNL     1       1.780   3.918  18.916  0.00  0.00    +0.000 A 
ATOM      4  C   UNL     1       0.897   2.935  19.449  0.00  0.00    +0.000 A 
ATOM      5  C   UNL     1       1.062   2.775  20.805  0.00  0.00    +0.000 A 
ATOM      6  S   UNL     1       2.275   3.800  21.426  0.00  0.00    +0.000 S 
ENDBRANCH   1   2
BRANCH   1   7
ATOM      7  S   UNL     1       5.236   4.782  19.175  0.00  0.00    +0.000 S 
ATOM      8  O   UNL     1       6.351   5.552  19.693  0.00  0.00    +0.000 OA
ATOM      9  O   UNL     1       5.163   3.350  19.402  0.00  0.00    +0.000 OA
BRANCH   7  10
ATOM     10  C   UNL     1       5.375   4.945  17.403  0.00  0.00    +0.000 A 
ATOM     11  C   UNL     1       6.006   5.893  16.617  0.00  0.00    +0.000 A 
ATOM     12  C   UNL     1       5.941   5.582  15.228  0.00  0.00    +0.000 A 
ATOM     13  C   UNL     1       5.259   4.409  14.997  0.00  0.00    +0.000 A 
ATOM     14  S   UNL     1       4.691   3.699  16.449  0.00  0.00    +0.000 S 
ENDBRANCH   7  10
ENDBRANCH   1   7
BRANCH   1  15
ATOM     15  C   UNL     1       3.291   6.599  18.648  0.00  0.00    +0.000 C 
BRANCH  15  18
ATOM     16  C   UNL     1       1.934   8.629  18.335  0.00  0.00    +0.000 C 
ATOM     17  O   UNL     1       2.404   8.823  17.220  0.00  0.00    +0.000 OA
ATOM     18  N   UNL     1       2.324   7.578  19.149  0.00  0.00    +0.000 N 
ATOM     19  H   UNL     1       1.669   7.293  19.867  0.00  0.00    +0.000 HD
BRANCH  16  24
ATOM     20  C   UNL     1      -2.183  12.218  20.319  0.00  0.00    +0.000 C 
ATOM     21  C   UNL     1      -1.136  11.273  19.792  0.00  0.00    +0.000 A 
ATOM     22  C   UNL     1      -0.150  10.783  20.663  0.00  0.00    +0.000 A 
ATOM     23  C   UNL     1       0.844   9.915  20.208  0.00  0.00    +0.000 A 
ATOM     24  C   UNL     1       0.867   9.522  18.868  0.00  0.00    +0.000 A 
ATOM     25  C   UNL     1      -0.105  10.014  17.986  0.00  0.00    +0.000 A 
ATOM     26  C   UNL     1      -1.114  10.885  18.436  0.00  0.00    +0.000 A 
ATOM     27  C   UNL     1      -2.140  11.394  17.460  0.00  0.00    +0.000 C 
ENDBRANCH  16  24
ENDBRANCH  15  18
ENDBRANCH   1  15
TORSDOF 6
ENDMDL
MODEL 9
REMARK VINA RESULT:      -7.8      1.100      1.234
REMARK  Name = 
REMARK  8 active torsions:
REMARK  status: ('A' for Active; 'I' for Inactive)
REMARK    1  A    between atoms: C_1  and  C_2
REMARK    2  A    between atoms: C_5  and  C_6
REMARK    3  A    between atoms: N_8  and  C_9
REMARK    4  A    between atoms: C_9  and  C_10
REMARK    5  A    between atoms: C_10  and  C_11
REMARK    6  A    between atoms: C_10  and  S_16
REMARK    7  A    between atoms: S_16  and  C_19
REMARK    8  A    between atoms: C_25  and  C_26
REMARK                            x       y       z     vdW  Elec       q    Type
REMARK                         _______ _______ _______ _____ _____    ______ ____
ROOT
ATOM      1  C   UNL     1       3.652   5.507  19.728  0.00  0.00    +0.000 C 
ENDROOT
BRANCH   1   2
ATOM      2  C   UNL     1       2.635   4.418  20.001  0.00  0.00    +0.000 A 
ATOM      3  C   UNL     1       2.331   3.849  21.226  0.00  0.00    +0.000 A 
ATOM      4  C   UNL     1       1.284   2.887  21.141  0.00  0.00    +0.000 A 
ATOM      5  C   UNL     1       0.814   2.750  19.856  0.00  0.00    +0.000 A 
ATOM      6  S   UNL     1       1.626   3.779  18.765  0.00  0.00    +0.000 S 
ENDBRANCH   1   2
BRANCH   1   7
ATOM      7  S   UNL     1       5.217   4.847  19.145  0.00  0.00    +0.000 S 
ATOM      8  O   UNL     1       6.321   5.648  19.639  0.00  0.00    +0.000 OA
ATOM      9  O   UNL     1       5.212   3.407  19.332  0.00  0.00    +0.000 OA
BRANCH   7  10
ATOM     10  C   UNL     1       5.271   5.066  17.375  0.00  0.00    +0.000 A 
ATOM     11  C   UNL     1       5.702   6.125  16.596  0.00  0.00    +0.000 A 
ATOM     12  C   UNL     1       5.651   5.834  15.202  0.00  0.00    +0.000 A 
ATOM     13  C   UNL     1       5.179   4.563  14.961  0.00  0.00    +0.000 A 
ATOM     14  S   UNL     1       4.789   3.738  16.410  0.00  0.00    +0.000 S 
ENDBRANCH   7  10
ENDBRANCH   1   7
BRANCH   1  15
ATOM     15  C   UNL     1       3.155   6.561  18.731  0.00  0.00    +0.000 C 
BRANCH  15  18
ATOM     16  C   UNL     1       1.873   8.654  18.549  0.00  0.00    +0.000 C 
ATOM     17  O   UNL     1       2.213   8.812  17.382  0.00  0.00    +0.000 OA
ATOM     18  N   UNL     1       2.307   7.595  19.329  0.00  0.00    +0.000 N 
ATOM     19  H   UNL     1       1.731   7.351  20.125  0.00  0.00    +0.000 HD
BRANCH  16  24
ATOM     20  C   UNL     1      -1.721  12.476  21.050  0.00  0.00    +0.000 C 
ATOM     21  C   UNL     1      -0.804  11.487  20.379  0.00  0.00    +0.000 A 
ATOM     22  C   UNL     1      -0.435  10.318  21.062  0.00  0.00    +0.000 A 
ATOM     23  C   UNL     1       0.422   9.384  20.476  0.00  0.00    +0.000 A 
ATOM     24  C   UNL     1       0.925   9.608  19.192  0.00  0.00    +0.000 A 
ATOM     25  C   UNL     1       0.572  10.778  18.506  0.00  0.00    +0.000 A 
ATOM     26  C   UNL     1      -0.294  11.721  19.084  0.00  0.00    +0.000 A 
ATOM     27  C   UNL     1      -0.649  12.967  18.318  0.00  0.00    +0.000 C 
ENDBRANCH  16  24
ENDBRANCH  15  18
ENDBRANCH   1  15
TORSDOF 6
ENDMDL
