MODEL 1
REMARK VINA RESULT:      -8.4      0.000      0.000
REMARK  Name = 
REMARK  4 active torsions:
REMARK  status: ('A' for Active; 'I' for Inactive)
REMARK    1  A    between atoms: N_1  and  S_2
REMARK    2  A    between atoms: S_2  and  C_5
REMARK    3  A    between atoms: C_8  and  N_9
REMARK    4  A    between atoms: N_9  and  C_10
REMARK                            x       y       z     vdW  Elec       q    Type
REMARK                         _______ _______ _______ _____ _____    ______ ____
ROOT
ATOM      1  C   UNL     1       3.100   5.825  19.155  0.00  0.00    +0.000 A 
ATOM      2  C   UNL     1       4.125   5.675  18.132  0.00  0.00    +0.000 A 
ATOM      3  C   UNL     1       4.104   6.111  16.783  0.00  0.00    +0.000 A 
ATOM      4  C   UNL     1       5.186   5.929  15.917  0.00  0.00    +0.000 A 
ATOM      5  C   UNL     1       6.321   5.287  16.379  0.00  0.00    +0.000 A 
ATOM      6 CL   UNL     1       7.660   5.042  15.332  0.00  0.00    +0.000 Cl
ATOM      7  C   UNL     1       6.323   4.729  17.647  0.00  0.00    +0.000 A 
ATOM      8  C   UNL     1       5.197   4.827  18.446  0.00  0.00    +0.000 A 
ATOM      9  N   UNL     1       5.073   3.911  19.406  0.00  0.00    +0.000 NA
ATOM     10  C   UNL     1       3.840   3.769  19.896  0.00  0.00    +0.000 A 
ATOM     11  C   UNL     1       3.086   2.702  19.459  0.00  0.00    +0.000 A 
ATOM     12  C   UNL     1       1.711   2.687  19.699  0.00  0.00    +0.000 A 
ATOM     13 CL   UNL     1       0.679   1.736  18.709  0.00  0.00    +0.000 Cl
ATOM     14  C   UNL     1       1.168   3.582  20.615  0.00  0.00    +0.000 A 
ATOM     15  C   UNL     1       1.945   4.659  20.996  0.00  0.00    +0.000 A 
ATOM     16  C   UNL     1       3.078   4.861  20.201  0.00  0.00    +0.000 A 
ENDROOT
BRANCH   1  17
ATOM     17  N   UNL     1       2.005   6.745  19.105  0.00  0.00    +0.000 N 
ATOM     18  H   UNL     1       1.232   6.352  18.572  0.00  0.00    +0.000 HD
BRANCH  17  22
ATOM     19  C   UNL     1       1.367  10.877  18.982  0.00  0.00    +0.000 A 
ATOM     20  C   UNL     1       1.080  10.179  20.158  0.00  0.00    +0.000 A 
ATOM     21  C   UNL     1       1.358   8.815  20.214  0.00  0.00    +0.000 A 
ATOM     22  C   UNL     1       1.927   8.148  19.112  0.00  0.00    +0.000 A 
ATOM     23  C   UNL     1       2.352   8.910  18.025  0.00  0.00    +0.000 A 
ATOM     24  C   UNL     1       1.996  10.243  17.912  0.00  0.00    +0.000 A 
BRANCH  19  25
ATOM     25  S   UNL     1       1.014  12.600  18.832  0.00  0.00    +0.000 S 
ATOM     26  O   UNL     1       1.453  13.279  20.033  0.00  0.00    +0.000 OA
ATOM     27  O   UNL     1      -0.300  12.779  18.270  0.00  0.00    +0.000 OA
BRANCH  25  28
ATOM     28  N   UNL     1       2.097  13.013  17.623  0.00  0.00    +0.000 NA
ATOM     29  H   UNL     1       2.607  12.187  17.317  0.00  0.00    +0.000 HD
ATOM     30  H   UNL     1       2.680  13.791  17.921  0.00  0.00    +0.000 HD
ENDBRANCH  25  28
ENDBRANCH  19  25
ENDBRANCH  17  22
ENDBRANCH   1  17
TORSDOF 4
ENDMDL
MODEL 2
REMARK VINA RESULT:      -8.3      1.414      1.626
REMARK  Name = 
REMARK  4 active torsions:
REMARK  status: ('A' for Active; 'I' for Inactive)
REMARK    1  A    between atoms: N_1  and  S_2
REMARK    2  A    between atoms: S_2  and  C_5
REMARK    3  A    between atoms: C_8  and  N_9
REMARK    4  A    between atoms: N_9  and  C_10
REMARK                            x       y       z     vdW  Elec       q    Type
REMARK                         _______ _______ _______ _____ _____    ______ ____
ROOT
ATOM      1  C   UNL     1       3.073   5.915  19.086  0.00  0.00    +0.000 A 
ATOM      2  C   UNL     1       4.126   5.755  18.094  0.00  0.00    +0.000 A 
ATOM      3  C   UNL     1       4.137   6.166  16.736  0.00  0.00    +0.000 A 
ATOM      4  C   UNL     1       5.243   5.977  15.902  0.00  0.00    +0.000 A 
ATOM      5  C   UNL     1       6.370   5.354  16.407  0.00  0.00    +0.000 A 
ATOM      6 CL   UNL     1       7.739   5.101  15.400  0.00  0.00    +0.000 Cl
ATOM      7  C   UNL     1       6.344   4.820  17.685  0.00  0.00    +0.000 A 
ATOM      8  C   UNL     1       5.197   4.923  18.452  0.00  0.00    +0.000 A 
ATOM      9  N   UNL     1       5.054   4.023  19.425  0.00  0.00    +0.000 NA
ATOM     10  C   UNL     1       3.810   3.880  19.885  0.00  0.00    +0.000 A 
ATOM     11  C   UNL     1       3.077   2.798  19.448  0.00  0.00    +0.000 A 
ATOM     12  C   UNL     1       1.696   2.775  19.653  0.00  0.00    +0.000 A 
ATOM     13 CL   UNL     1       0.699   1.797  18.653  0.00  0.00    +0.000 Cl
ATOM     14  C   UNL     1       1.122   3.682  20.537  0.00  0.00    +0.000 A 
ATOM     15  C   UNL     1       1.880   4.773  20.917  0.00  0.00    +0.000 A 
ATOM     16  C   UNL     1       3.031   4.970  20.149  0.00  0.00    +0.000 A 
ENDROOT
BRANCH   1  17
ATOM     17  N   UNL     1       1.972   6.824  18.990  0.00  0.00    +0.000 N 
ATOM     18  H   UNL     1       1.518   6.741  18.083  0.00  0.00    +0.000 HD
BRANCH  17  22
ATOM     19  C   UNL     1       0.796  10.494  20.615  0.00  0.00    +0.000 A 
ATOM     20  C   UNL     1       1.027   9.414  21.471  0.00  0.00    +0.000 A 
ATOM     21  C   UNL     1       1.484   8.214  20.930  0.00  0.00    +0.000 A 
ATOM     22  C   UNL     1       1.719   8.089  19.546  0.00  0.00    +0.000 A 
ATOM     23  C   UNL     1       1.638   9.234  18.755  0.00  0.00    +0.000 A 
ATOM     24  C   UNL     1       1.093  10.404  19.256  0.00  0.00    +0.000 A 
BRANCH  19  25
ATOM     25  S   UNL     1       0.191  12.034  21.230  0.00  0.00    +0.000 S 
ATOM     26  O   UNL     1      -0.971  12.426  20.462  0.00  0.00    +0.000 OA
ATOM     27  O   UNL     1       1.296  12.923  21.484  0.00  0.00    +0.000 OA
BRANCH  25  28
ATOM     28  N   UNL     1      -0.367  11.547  22.733  0.00  0.00    +0.000 NA
ATOM     29  H   UNL     1       0.398  11.156  23.277  0.00  0.00    +0.000 HD
ATOM     30  H   UNL     1      -1.175  10.938  22.629  0.00  0.00    +0.000 HD
ENDBRANCH  25  28
ENDBRANCH  19  25
ENDBRANCH  17  22
ENDBRANCH   1  17
TORSDOF 4
ENDMDL
MODEL 3
REMARK VINA RESULT:      -8.0      2.058      4.385
REMARK  Name = 
REMARK  4 active torsions:
REMARK  status: ('A' for Active; 'I' for Inactive)
REMARK    1  A    between atoms: N_1  and  S_2
REMARK    2  A    between atoms: S_2  and  C_5
REMARK    3  A    between atoms: C_8  and  N_9
REMARK    4  A    between atoms: N_9  and  C_10
REMARK                            x       y       z     vdW  Elec       q    Type
REMARK                         _______ _______ _______ _____ _____    ______ ____
ROOT
ATOM      1  C   UNL     1       3.697   6.290  17.438  0.00  0.00    +0.000 A 
ATOM      2  C   UNL     1       2.933   5.145  17.911  0.00  0.00    +0.000 A 
ATOM      3  C   UNL     1       2.048   5.063  19.016  0.00  0.00    +0.000 A 
ATOM      4  C   UNL     1       1.348   3.896  19.334  0.00  0.00    +0.000 A 
ATOM      5  C   UNL     1       1.527   2.767  18.554  0.00  0.00    +0.000 A 
ATOM      6 CL   UNL     1       0.686   1.317  18.929  0.00  0.00    +0.000 Cl
ATOM      7  C   UNL     1       2.484   2.772  17.552  0.00  0.00    +0.000 A 
ATOM      8  C   UNL     1       3.244   3.907  17.329  0.00  0.00    +0.000 A 
ATOM      9  N   UNL     1       4.417   3.723  16.723  0.00  0.00    +0.000 NA
ATOM     10  C   UNL     1       5.290   4.722  16.866  0.00  0.00    +0.000 A 
ATOM     11  C   UNL     1       6.300   4.575  17.790  0.00  0.00    +0.000 A 
ATOM     12  C   UNL     1       7.036   5.692  18.189  0.00  0.00    +0.000 A 
ATOM     13 CL   UNL     1       7.856   5.683  19.698  0.00  0.00    +0.000 Cl
ATOM     14  C   UNL     1       6.948   6.867  17.451  0.00  0.00    +0.000 A 
ATOM     15  C   UNL     1       5.895   6.987  16.563  0.00  0.00    +0.000 A 
ATOM     16  C   UNL     1       4.896   6.022  16.720  0.00  0.00    +0.000 A 
ENDROOT
BRANCH   1  17
ATOM     17  N   UNL     1       3.446   7.657  17.784  0.00  0.00    +0.000 N 
ATOM     18  H   UNL     1       4.322   8.157  17.919  0.00  0.00    +0.000 HD
BRANCH  17  22
ATOM     19  C   UNL     1       0.644   9.867  19.963  0.00  0.00    +0.000 A 
ATOM     20  C   UNL     1       0.802  10.126  18.599  0.00  0.00    +0.000 A 
ATOM     21  C   UNL     1       1.689   9.340  17.865  0.00  0.00    +0.000 A 
ATOM     22  C   UNL     1       2.408   8.296  18.479  0.00  0.00    +0.000 A 
ATOM     23  C   UNL     1       2.096   7.964  19.797  0.00  0.00    +0.000 A 
ATOM     24  C   UNL     1       1.295   8.791  20.566  0.00  0.00    +0.000 A 
BRANCH  19  25
ATOM     25  S   UNL     1      -0.441  10.841  20.959  0.00  0.00    +0.000 S 
ATOM     26  O   UNL     1      -0.769  10.104  22.161  0.00  0.00    +0.000 OA
ATOM     27  O   UNL     1      -1.440  11.460  20.125  0.00  0.00    +0.000 OA
BRANCH  25  28
ATOM     28  N   UNL     1       0.607  12.065  21.416  0.00  0.00    +0.000 NA
ATOM     29  H   UNL     1       0.228  12.566  22.216  0.00  0.00    +0.000 HD
ATOM     30  H   UNL     1       0.839  12.648  20.615  0.00  0.00    +0.000 HD
ENDBRANCH  25  28
ENDBRANCH  19  25
ENDBRANCH  17  22
ENDBRANCH   1  17
TORSDOF 4
ENDMDL
MODEL 4
REMARK VINA RESULT:      -8.0      1.776      4.409
REMARK  Name = 
REMARK  4 active torsions:
REMARK  status: ('A' for Active; 'I' for Inactive)
REMARK    1  A    between atoms: N_1  and  S_2
REMARK    2  A    between atoms: S_2  and  C_5
REMARK    3  A    between atoms: C_8  and  N_9
REMARK    4  A    between atoms: N_9  and  C_10
REMARK                            x       y       z     vdW  Elec       q    Type
REMARK                         _______ _______ _______ _____ _____    ______ ____
ROOT
ATOM      1  C   UNL     1       3.245   6.400  18.230  0.00  0.00    +0.000 A 
ATOM      2  C   UNL     1       2.798   5.432  19.221  0.00  0.00    +0.000 A 
ATOM      3  C   UNL     1       2.377   5.657  20.556  0.00  0.00    +0.000 A 
ATOM      4  C   UNL     1       1.936   4.626  21.390  0.00  0.00    +0.000 A 
ATOM      5  C   UNL     1       1.917   3.329  20.908  0.00  0.00    +0.000 A 
ATOM      6 CL   UNL     1       1.388   2.042  21.915  0.00  0.00    +0.000 Cl
ATOM      7  C   UNL     1       2.448   3.055  19.657  0.00  0.00    +0.000 A 
ATOM      8  C   UNL     1       2.982   4.080  18.895  0.00  0.00    +0.000 A 
ATOM      9  N   UNL     1       3.871   3.725  17.968  0.00  0.00    +0.000 NA
ATOM     10  C   UNL     1       4.652   4.712  17.526  0.00  0.00    +0.000 A 
ATOM     11  C   UNL     1       5.934   4.797  18.021  0.00  0.00    +0.000 A 
ATOM     12  C   UNL     1       6.669   5.969  17.829  0.00  0.00    +0.000 A 
ATOM     13 CL   UNL     1       7.973   6.344  18.882  0.00  0.00    +0.000 Cl
ATOM     14  C   UNL     1       6.226   6.910  16.906  0.00  0.00    +0.000 A 
ATOM     15  C   UNL     1       4.920   6.809  16.466  0.00  0.00    +0.000 A 
ATOM     16  C   UNL     1       4.126   5.934  17.215  0.00  0.00    +0.000 A 
ENDROOT
BRANCH   1  17
ATOM     17  N   UNL     1       3.023   7.813  18.291  0.00  0.00    +0.000 N 
ATOM     18  H   UNL     1       3.851   8.290  18.642  0.00  0.00    +0.000 HD
BRANCH  17  22
ATOM     19  C   UNL     1      -0.143  10.492  18.834  0.00  0.00    +0.000 A 
ATOM     20  C   UNL     1       0.031   9.888  17.585  0.00  0.00    +0.000 A 
ATOM     21  C   UNL     1       1.046   8.946  17.431  0.00  0.00    +0.000 A 
ATOM     22  C   UNL     1       1.879   8.598  18.512  0.00  0.00    +0.000 A 
ATOM     23  C   UNL     1       1.566   9.095  19.776  0.00  0.00    +0.000 A 
ATOM     24  C   UNL     1       0.628  10.102  19.928  0.00  0.00    +0.000 A 
BRANCH  19  25
ATOM     25  S   UNL     1      -1.391  11.713  19.093  0.00  0.00    +0.000 S 
ATOM     26  O   UNL     1      -1.075  12.465  20.289  0.00  0.00    +0.000 OA
ATOM     27  O   UNL     1      -2.690  11.138  18.851  0.00  0.00    +0.000 OA
BRANCH  25  28
ATOM     28  N   UNL     1      -1.081  12.724  17.794  0.00  0.00    +0.000 NA
ATOM     29  H   UNL     1      -1.059  12.184  16.931  0.00  0.00    +0.000 HD
ATOM     30  H   UNL     1      -0.250  13.283  17.971  0.00  0.00    +0.000 HD
ENDBRANCH  25  28
ENDBRANCH  19  25
ENDBRANCH  17  22
ENDBRANCH   1  17
TORSDOF 4
ENDMDL
MODEL 5
REMARK VINA RESULT:      -7.9      1.828      4.434
REMARK  Name = 
REMARK  4 active torsions:
REMARK  status: ('A' for Active; 'I' for Inactive)
REMARK    1  A    between atoms: N_1  and  S_2
REMARK    2  A    between atoms: S_2  and  C_5
REMARK    3  A    between atoms: C_8  and  N_9
REMARK    4  A    between atoms: N_9  and  C_10
REMARK                            x       y       z     vdW  Elec       q    Type
REMARK                         _______ _______ _______ _____ _____    ______ ____
ROOT
ATOM      1  C   UNL     1       3.354   6.161  17.987  0.00  0.00    +0.000 A 
ATOM      2  C   UNL     1       2.915   5.240  19.025  0.00  0.00    +0.000 A 
ATOM      3  C   UNL     1       2.418   5.533  20.320  0.00  0.00    +0.000 A 
ATOM      4  C   UNL     1       1.996   4.538  21.207  0.00  0.00    +0.000 A 
ATOM      5  C   UNL     1       2.074   3.212  20.820  0.00  0.00    +0.000 A 
ATOM      6 CL   UNL     1       1.570   1.969  21.894  0.00  0.00    +0.000 Cl
ATOM      7  C   UNL     1       2.679   2.883  19.618  0.00  0.00    +0.000 A 
ATOM      8  C   UNL     1       3.190   3.882  18.807  0.00  0.00    +0.000 A 
ATOM      9  N   UNL     1       4.142   3.516  17.949  0.00  0.00    +0.000 NA
ATOM     10  C   UNL     1       4.886   4.515  17.471  0.00  0.00    +0.000 A 
ATOM     11  C   UNL     1       6.136   4.711  18.014  0.00  0.00    +0.000 A 
ATOM     12  C   UNL     1       6.813   5.908  17.770  0.00  0.00    +0.000 A 
ATOM     13 CL   UNL     1       8.040   6.434  18.850  0.00  0.00    +0.000 Cl
ATOM     14  C   UNL     1       6.362   6.753  16.762  0.00  0.00    +0.000 A 
ATOM     15  C   UNL     1       5.086   6.544  16.274  0.00  0.00    +0.000 A 
ATOM     16  C   UNL     1       4.308   5.678  17.048  0.00  0.00    +0.000 A 
ENDROOT
BRANCH   1  17
ATOM     17  N   UNL     1       3.050   7.559  17.934  0.00  0.00    +0.000 N 
ATOM     18  H   UNL     1       3.889   8.100  17.737  0.00  0.00    +0.000 HD
BRANCH  17  22
ATOM     19  C   UNL     1       0.530  10.228  19.938  0.00  0.00    +0.000 A 
ATOM     20  C   UNL     1       0.674  10.339  18.552  0.00  0.00    +0.000 A 
ATOM     21  C   UNL     1       1.462   9.405  17.883  0.00  0.00    +0.000 A 
ATOM     22  C   UNL     1       2.096   8.360  18.583  0.00  0.00    +0.000 A 
ATOM     23  C   UNL     1       1.791   8.187  19.932  0.00  0.00    +0.000 A 
ATOM     24  C   UNL     1       1.093   9.157  20.631  0.00  0.00    +0.000 A 
BRANCH  19  25
ATOM     25  S   UNL     1      -0.431  11.393  20.853  0.00  0.00    +0.000 S 
ATOM     26  O   UNL     1      -0.916  10.760  22.060  0.00  0.00    +0.000 OA
ATOM     27  O   UNL     1      -1.287  12.127  19.956  0.00  0.00    +0.000 OA
BRANCH  25  28
ATOM     28  N   UNL     1       0.775  12.458  21.320  0.00  0.00    +0.000 NA
ATOM     29  H   UNL     1       1.683  12.105  21.027  0.00  0.00    +0.000 HD
ATOM     30  H   UNL     1       0.696  12.669  22.312  0.00  0.00    +0.000 HD
ENDBRANCH  25  28
ENDBRANCH  19  25
ENDBRANCH  17  22
ENDBRANCH   1  17
TORSDOF 4
ENDMDL
MODEL 6
REMARK VINA RESULT:      -7.6      1.364      1.677
REMARK  Name = 
REMARK  4 active torsions:
REMARK  status: ('A' for Active; 'I' for Inactive)
REMARK    1  A    between atoms: N_1  and  S_2
REMARK    2  A    between atoms: S_2  and  C_5
REMARK    3  A    between atoms: C_8  and  N_9
REMARK    4  A    between atoms: N_9  and  C_10
REMARK                            x       y       z     vdW  Elec       q    Type
REMARK                         _______ _______ _______ _____ _____    ______ ____
ROOT
ATOM      1  C   UNL     1       3.958   5.505  19.392  0.00  0.00    +0.000 A 
ATOM      2  C   UNL     1       4.588   5.477  18.080  0.00  0.00    +0.000 A 
ATOM      3  C   UNL     1       4.487   6.420  17.025  0.00  0.00    +0.000 A 
ATOM      4  C   UNL     1       5.184   6.280  15.822  0.00  0.00    +0.000 A 
ATOM      5  C   UNL     1       5.997   5.177  15.637  0.00  0.00    +0.000 A 
ATOM      6 CL   UNL     1       6.857   4.977  14.163  0.00  0.00    +0.000 Cl
ATOM      7  C   UNL     1       6.014   4.171  16.589  0.00  0.00    +0.000 A 
ATOM      8  C   UNL     1       5.228   4.281  17.723  0.00  0.00    +0.000 A 
ATOM      9  N   UNL     1       4.915   3.140  18.338  0.00  0.00    +0.000 NA
ATOM     10  C   UNL     1       3.869   3.211  19.163  0.00  0.00    +0.000 A 
ATOM     11  C   UNL     1       2.658   2.731  18.718  0.00  0.00    +0.000 A 
ATOM     12  C   UNL     1       1.491   3.059  19.410  0.00  0.00    +0.000 A 
ATOM     13 CL   UNL     1      -0.027   2.998  18.608  0.00  0.00    +0.000 Cl
ATOM     14  C   UNL     1       1.584   3.609  20.684  0.00  0.00    +0.000 A 
ATOM     15  C   UNL     1       2.810   4.114  21.074  0.00  0.00    +0.000 A 
ATOM     16  C   UNL     1       3.733   4.255  20.033  0.00  0.00    +0.000 A 
ENDROOT
BRANCH   1  17
ATOM     17  N   UNL     1       3.383   6.660  20.013  0.00  0.00    +0.000 N 
ATOM     18  H   UNL     1       3.450   6.591  21.026  0.00  0.00    +0.000 HD
BRANCH  17  22
ATOM     19  C   UNL     1       0.541   9.559  19.009  0.00  0.00    +0.000 A 
ATOM     20  C   UNL     1       1.350   9.023  18.004  0.00  0.00    +0.000 A 
ATOM     21  C   UNL     1       2.248   8.010  18.334  0.00  0.00    +0.000 A 
ATOM     22  C   UNL     1       2.336   7.523  19.652  0.00  0.00    +0.000 A 
ATOM     23  C   UNL     1       1.397   7.964  20.584  0.00  0.00    +0.000 A 
ATOM     24  C   UNL     1       0.567   9.036  20.301  0.00  0.00    +0.000 A 
BRANCH  19  25
ATOM     25  S   UNL     1      -0.599  10.864  18.667  0.00  0.00    +0.000 S 
ATOM     26  O   UNL     1      -1.153  11.345  19.915  0.00  0.00    +0.000 OA
ATOM     27  O   UNL     1      -1.415  10.510  17.534  0.00  0.00    +0.000 OA
BRANCH  25  28
ATOM     28  N   UNL     1       0.463  12.040  18.126  0.00  0.00    +0.000 NA
ATOM     29  H   UNL     1       0.248  12.932  18.567  0.00  0.00    +0.000 HD
ATOM     30  H   UNL     1       0.483  12.058  17.110  0.00  0.00    +0.000 HD
ENDBRANCH  25  28
ENDBRANCH  19  25
ENDBRANCH  17  22
ENDBRANCH   1  17
TORSDOF 4
ENDMDL
MODEL 7
REMARK VINA RESULT:      -7.6      1.132      1.608
REMARK  Name = 
REMARK  4 active torsions:
REMARK  status: ('A' for Active; 'I' for Inactive)
REMARK    1  A    between atoms: N_1  and  S_2
REMARK    2  A    between atoms: S_2  and  C_5
REMARK    3  A    between atoms: C_8  and  N_9
REMARK    4  A    between atoms: N_9  and  C_10
REMARK                            x       y       z     vdW  Elec       q    Type
REMARK                         _______ _______ _______ _____ _____    ______ ____
ROOT
ATOM      1  C   UNL     1       2.992   6.449  18.743  0.00  0.00    +0.000 A 
ATOM      2  C   UNL     1       4.086   6.168  17.825  0.00  0.00    +0.000 A 
ATOM      3  C   UNL     1       4.148   6.383  16.424  0.00  0.00    +0.000 A 
ATOM      4  C   UNL     1       5.288   6.096  15.669  0.00  0.00    +0.000 A 
ATOM      5  C   UNL     1       6.401   5.569  16.300  0.00  0.00    +0.000 A 
ATOM      6 CL   UNL     1       7.812   5.199  15.393  0.00  0.00    +0.000 Cl
ATOM      7  C   UNL     1       6.329   5.221  17.639  0.00  0.00    +0.000 A 
ATOM      8  C   UNL     1       5.150   5.412  18.339  0.00  0.00    +0.000 A 
ATOM      9  N   UNL     1       4.978   4.657  19.424  0.00  0.00    +0.000 NA
ATOM     10  C   UNL     1       3.718   4.560  19.851  0.00  0.00    +0.000 A 
ATOM     11  C   UNL     1       3.015   3.415  19.544  0.00  0.00    +0.000 A 
ATOM     12  C   UNL     1       1.627   3.399  19.696  0.00  0.00    +0.000 A 
ATOM     13 CL   UNL     1       0.682   2.273  18.808  0.00  0.00    +0.000 Cl
ATOM     14  C   UNL     1       1.007   4.412  20.420  0.00  0.00    +0.000 A 
ATOM     15  C   UNL     1       1.737   5.558  20.670  0.00  0.00    +0.000 A 
ATOM     16  C   UNL     1       2.917   5.664  19.927  0.00  0.00    +0.000 A 
ENDROOT
BRANCH   1  17
ATOM     17  N   UNL     1       1.885   7.317  18.476  0.00  0.00    +0.000 N 
ATOM     18  H   UNL     1       1.445   7.073  17.592  0.00  0.00    +0.000 HD
BRANCH  17  22
ATOM     19  C   UNL     1       1.488  11.327  19.598  0.00  0.00    +0.000 A 
ATOM     20  C   UNL     1       1.949  11.022  18.315  0.00  0.00    +0.000 A 
ATOM     21  C   UNL     1       2.015   9.686  17.925  0.00  0.00    +0.000 A 
ATOM     22  C   UNL     1       1.616   8.657  18.800  0.00  0.00    +0.000 A 
ATOM     23  C   UNL     1       1.006   9.011  20.003  0.00  0.00    +0.000 A 
ATOM     24  C   UNL     1       1.023  10.322  20.446  0.00  0.00    +0.000 A 
BRANCH  19  25
ATOM     25  S   UNL     1       1.405  12.996  20.168  0.00  0.00    +0.000 S 
ATOM     26  O   UNL     1       0.514  13.745  19.307  0.00  0.00    +0.000 OA
ATOM     27  O   UNL     1       2.725  13.455  20.517  0.00  0.00    +0.000 OA
BRANCH  25  28
ATOM     28  N   UNL     1       0.594  12.767  21.616  0.00  0.00    +0.000 NA
ATOM     29  H   UNL     1       1.200  12.290  22.281  0.00  0.00    +0.000 HD
ATOM     30  H   UNL     1      -0.302  12.315  21.452  0.00  0.00    +0.000 HD
ENDBRANCH  25  28
ENDBRANCH  19  25
ENDBRANCH  17  22
ENDBRANCH   1  17
TORSDOF 4
ENDMDL
MODEL 8
REMARK VINA RESULT:      -7.6      0.432      1.025
REMARK  Name = 
REMARK  4 active torsions:
REMARK  status: ('A' for Active; 'I' for Inactive)
REMARK    1  A    between atoms: N_1  and  S_2
REMARK    2  A    between atoms: S_2  and  C_5
REMARK    3  A    between atoms: C_8  and  N_9
REMARK    4  A    between atoms: N_9  and  C_10
REMARK                            x       y       z     vdW  Elec       q    Type
REMARK                         _______ _______ _______ _____ _____    ______ ____
ROOT
ATOM      1  C   UNL     1       3.007   5.993  19.195  0.00  0.00    +0.000 A 
ATOM      2  C   UNL     1       4.055   5.900  18.189  0.00  0.00    +0.000 A 
ATOM      3  C   UNL     1       4.022   6.309  16.832  0.00  0.00    +0.000 A 
ATOM      4  C   UNL     1       5.126   6.189  15.983  0.00  0.00    +0.000 A 
ATOM      5  C   UNL     1       6.297   5.640  16.472  0.00  0.00    +0.000 A 
ATOM      6 CL   UNL     1       7.665   5.473  15.447  0.00  0.00    +0.000 Cl
ATOM      7  C   UNL     1       6.322   5.106  17.750  0.00  0.00    +0.000 A 
ATOM      8  C   UNL     1       5.180   5.137  18.533  0.00  0.00    +0.000 A 
ATOM      9  N   UNL     1       5.108   4.231  19.508  0.00  0.00    +0.000 NA
ATOM     10  C   UNL     1       3.882   4.009  19.984  0.00  0.00    +0.000 A 
ATOM     11  C   UNL     1       3.213   2.883  19.558  0.00  0.00    +0.000 A 
ATOM     12  C   UNL     1       1.839   2.773  19.781  0.00  0.00    +0.000 A 
ATOM     13 CL   UNL     1       0.893   1.733  18.795  0.00  0.00    +0.000 Cl
ATOM     14  C   UNL     1       1.220   3.643  20.672  0.00  0.00    +0.000 A 
ATOM     15  C   UNL     1       1.913   4.780  21.042  0.00  0.00    +0.000 A 
ATOM     16  C   UNL     1       3.039   5.049  20.259  0.00  0.00    +0.000 A 
ENDROOT
BRANCH   1  17
ATOM     17  N   UNL     1       1.849   6.831  19.114  0.00  0.00    +0.000 N 
ATOM     18  H   UNL     1       1.082   6.338  18.663  0.00  0.00    +0.000 HD
BRANCH  17  22
ATOM     19  C   UNL     1       1.734  11.006  18.895  0.00  0.00    +0.000 A 
ATOM     20  C   UNL     1       2.176  10.279  17.787  0.00  0.00    +0.000 A 
ATOM     21  C   UNL     1       2.148   8.887  17.842  0.00  0.00    +0.000 A 
ATOM     22  C   UNL     1       1.675   8.219  18.989  0.00  0.00    +0.000 A 
ATOM     23  C   UNL     1       1.088   8.977  20.001  0.00  0.00    +0.000 A 
ATOM     24  C   UNL     1       1.197  10.357  20.006  0.00  0.00    +0.000 A 
BRANCH  19  25
ATOM     25  S   UNL     1       1.768  12.771  18.903  0.00  0.00    +0.000 S 
ATOM     26  O   UNL     1       2.622  13.222  19.982  0.00  0.00    +0.000 OA
ATOM     27  O   UNL     1       0.438  13.283  18.693  0.00  0.00    +0.000 OA
BRANCH  25  28
ATOM     28  N   UNL     1       2.605  13.051  17.479  0.00  0.00    +0.000 NA
ATOM     29  H   UNL     1       2.802  14.044  17.381  0.00  0.00    +0.000 HD
ATOM     30  H   UNL     1       2.114  12.631  16.693  0.00  0.00    +0.000 HD
ENDBRANCH  25  28
ENDBRANCH  19  25
ENDBRANCH  17  22
ENDBRANCH   1  17
TORSDOF 4
ENDMDL
