MODEL 1
REMARK VINA RESULT:      -8.7      0.000      0.000
REMARK  Name = 
REMARK  8 active torsions:
REMARK  status: ('A' for Active; 'I' for Inactive)
REMARK    1  A    between atoms: C_1  and  S_2
REMARK    2  A    between atoms: S_2  and  C_3
REMARK    3  A    between atoms: C_6  and  C_7
REMARK    4  A    between atoms: C_7  and  O_8
REMARK    5  A    between atoms: O_8  and  C_9
REMARK    6  A    between atoms: N_16  and  C_17
REMARK    7  A    between atoms: C_17  and  C_18
REMARK    8  A    between atoms: C_21  and  C_22
REMARK                            x       y       z     vdW  Elec       q    Type
REMARK                         _______ _______ _______ _____ _____    ______ ____
ROOT
ATOM      1  C   UNL     1       1.789   3.611  18.945  0.00  0.00    +0.000 A 
ATOM      2  N   UNL     1       1.540   2.765  17.973  0.00  0.00    +0.000 NA
ATOM      3  N   UNL     1       2.453   2.991  16.974  0.00  0.00    +0.000 NA
ATOM      4  C   UNL     1       3.247   3.973  17.355  0.00  0.00    +0.000 A 
ATOM      5  N   UNL     1       2.829   4.429  18.588  0.00  0.00    +0.000 N 
ENDROOT
BRANCH   1   7
ATOM      6  C   UNL     1       2.012   2.667  21.495  0.00  0.00    +0.000 C 
ATOM      7  S   UNL     1       0.950   3.699  20.454  0.00  0.00    +0.000 S 
ENDBRANCH   1   7
BRANCH   4   8
ATOM      8  C   UNL     1       4.432   4.481  16.610  0.00  0.00    +0.000 C 
BRANCH   8   9
ATOM      9  O   UNL     1       5.535   4.316  17.499  0.00  0.00    +0.000 OA
BRANCH   9  10
ATOM     10  C   UNL     1       6.319   5.402  17.761  0.00  0.00    +0.000 A 
ATOM     11  C   UNL     1       7.409   5.448  18.627  0.00  0.00    +0.000 A 
ATOM     12  C   UNL     1       8.145   6.636  18.759  0.00  0.00    +0.000 A 
ATOM     13  C   UNL     1       7.781   7.768  18.040  0.00  0.00    +0.000 A 
ATOM     14 CL   UNL     1       8.698   9.214  18.199  0.00  0.00    +0.000 Cl
ATOM     15  C   UNL     1       6.687   7.732  17.183  0.00  0.00    +0.000 A 
ATOM     16  C   UNL     1       5.958   6.550  17.046  0.00  0.00    +0.000 A 
ENDBRANCH   9  10
ENDBRANCH   8   9
ENDBRANCH   4   8
BRANCH   5  17
ATOM     17  C   UNL     1       3.425   5.510  19.353  0.00  0.00    +0.000 C 
BRANCH  17  18
ATOM     18  C   UNL     1       2.696   6.836  19.260  0.00  0.00    +0.000 A 
ATOM     19  C   UNL     1       2.559   7.578  18.083  0.00  0.00    +0.000 A 
ATOM     20  C   UNL     1       1.741   8.718  18.044  0.00  0.00    +0.000 A 
ATOM     21  C   UNL     1       1.009   9.151  19.164  0.00  0.00    +0.000 A 
ATOM     22  C   UNL     1       1.222   8.448  20.360  0.00  0.00    +0.000 A 
ATOM     23  C   UNL     1       2.052   7.317  20.409  0.00  0.00    +0.000 A 
BRANCH  21  24
ATOM     24  C   UNL     1       0.016  10.252  19.060  0.00  0.00    +0.000 A 
ATOM     25  C   UNL     1      -0.892  10.307  17.982  0.00  0.00    +0.000 A 
ATOM     26  C   UNL     1      -1.850  11.320  17.872  0.00  0.00    +0.000 A 
ATOM     27  C   UNL     1      -1.938  12.301  18.852  0.00  0.00    +0.000 A 
ATOM     28  C   UNL     1      -1.070  12.266  19.938  0.00  0.00    +0.000 A 
ATOM     29  C   UNL     1      -0.102  11.257  20.038  0.00  0.00    +0.000 A 
ENDBRANCH  21  24
ENDBRANCH  17  18
ENDBRANCH   5  17
TORSDOF 7
ENDMDL
MODEL 2
REMARK VINA RESULT:      -8.4      0.948      1.701
REMARK  Name = 
REMARK  8 active torsions:
REMARK  status: ('A' for Active; 'I' for Inactive)
REMARK    1  A    between atoms: C_1  and  S_2
REMARK    2  A    between atoms: S_2  and  C_3
REMARK    3  A    between atoms: C_6  and  C_7
REMARK    4  A    between atoms: C_7  and  O_8
REMARK    5  A    between atoms: O_8  and  C_9
REMARK    6  A    between atoms: N_16  and  C_17
REMARK    7  A    between atoms: C_17  and  C_18
REMARK    8  A    between atoms: C_21  and  C_22
REMARK                            x       y       z     vdW  Elec       q    Type
REMARK                         _______ _______ _______ _____ _____    ______ ____
ROOT
ATOM      1  C   UNL     1       2.420   3.580  19.714  0.00  0.00    +0.000 A 
ATOM      2  N   UNL     1       2.095   2.520  19.013  0.00  0.00    +0.000 NA
ATOM      3  N   UNL     1       2.682   2.635  17.778  0.00  0.00    +0.000 NA
ATOM      4  C   UNL     1       3.358   3.767  17.747  0.00  0.00    +0.000 A 
ATOM      5  N   UNL     1       3.180   4.424  18.947  0.00  0.00    +0.000 N 
ENDROOT
BRANCH   1   7
ATOM      6  C   UNL     1       1.547   2.218  21.911  0.00  0.00    +0.000 C 
ATOM      7  S   UNL     1       1.973   3.887  21.356  0.00  0.00    +0.000 S 
ENDBRANCH   1   7
BRANCH   4   8
ATOM      8  C   UNL     1       4.216   4.246  16.628  0.00  0.00    +0.000 C 
BRANCH   8   9
ATOM      9  O   UNL     1       5.557   4.093  17.089  0.00  0.00    +0.000 OA
BRANCH   9  10
ATOM     10  C   UNL     1       6.276   5.219  17.364  0.00  0.00    +0.000 A 
ATOM     11  C   UNL     1       6.176   6.446  16.712  0.00  0.00    +0.000 A 
ATOM     12  C   UNL     1       6.959   7.530  17.141  0.00  0.00    +0.000 A 
ATOM     13  C   UNL     1       7.842   7.378  18.204  0.00  0.00    +0.000 A 
ATOM     14 CL   UNL     1       8.787   8.715  18.729  0.00  0.00    +0.000 Cl
ATOM     15  C   UNL     1       7.954   6.152  18.851  0.00  0.00    +0.000 A 
ATOM     16  C   UNL     1       7.172   5.076  18.429  0.00  0.00    +0.000 A 
ENDBRANCH   9  10
ENDBRANCH   8   9
ENDBRANCH   4   8
BRANCH   5  17
ATOM     17  C   UNL     1       3.744   5.710  19.317  0.00  0.00    +0.000 C 
BRANCH  17  18
ATOM     18  C   UNL     1       2.805   6.889  19.153  0.00  0.00    +0.000 A 
ATOM     19  C   UNL     1       2.009   7.412  20.177  0.00  0.00    +0.000 A 
ATOM     20  C   UNL     1       1.282   8.597  19.988  0.00  0.00    +0.000 A 
ATOM     21  C   UNL     1       1.337   9.324  18.786  0.00  0.00    +0.000 A 
ATOM     22  C   UNL     1       2.071   8.745  17.738  0.00  0.00    +0.000 A 
ATOM     23  C   UNL     1       2.786   7.550  17.915  0.00  0.00    +0.000 A 
BRANCH  21  24
ATOM     24  C   UNL     1       0.704  10.663  18.662  0.00  0.00    +0.000 A 
ATOM     25  C   UNL     1       1.488  11.835  18.665  0.00  0.00    +0.000 A 
ATOM     26  C   UNL     1       0.919  13.106  18.528  0.00  0.00    +0.000 A 
ATOM     27  C   UNL     1      -0.455  13.238  18.366  0.00  0.00    +0.000 A 
ATOM     28  C   UNL     1      -1.255  12.100  18.340  0.00  0.00    +0.000 A 
ATOM     29  C   UNL     1      -0.682  10.829  18.491  0.00  0.00    +0.000 A 
ENDBRANCH  21  24
ENDBRANCH  17  18
ENDBRANCH   5  17
TORSDOF 7
ENDMDL
MODEL 3
REMARK VINA RESULT:      -8.4      0.797      1.214
REMARK  Name = 
REMARK  8 active torsions:
REMARK  status: ('A' for Active; 'I' for Inactive)
REMARK    1  A    between atoms: C_1  and  S_2
REMARK    2  A    between atoms: S_2  and  C_3
REMARK    3  A    between atoms: C_6  and  C_7
REMARK    4  A    between atoms: C_7  and  O_8
REMARK    5  A    between atoms: O_8  and  C_9
REMARK    6  A    between atoms: N_16  and  C_17
REMARK    7  A    between atoms: C_17  and  C_18
REMARK    8  A    between atoms: C_21  and  C_22
REMARK                            x       y       z     vdW  Elec       q    Type
REMARK                         _______ _______ _______ _____ _____    ______ ____
ROOT
ATOM      1  C   UNL     1       1.849   3.309  19.142  0.00  0.00    +0.000 A 
ATOM      2  N   UNL     1       1.587   2.484  18.157  0.00  0.00    +0.000 NA
ATOM      3  N   UNL     1       2.400   2.814  17.102  0.00  0.00    +0.000 NA
ATOM      4  C   UNL     1       3.148   3.838  17.464  0.00  0.00    +0.000 A 
ATOM      5  N   UNL     1       2.796   4.215  18.744  0.00  0.00    +0.000 N 
ENDROOT
BRANCH   1   7
ATOM      6  C   UNL     1       2.492   2.621  21.704  0.00  0.00    +0.000 C 
ATOM      7  S   UNL     1       1.126   3.277  20.713  0.00  0.00    +0.000 S 
ENDBRANCH   1   7
BRANCH   4   8
ATOM      8  C   UNL     1       4.232   4.462  16.655  0.00  0.00    +0.000 C 
BRANCH   8   9
ATOM      9  O   UNL     1       5.438   4.192  17.368  0.00  0.00    +0.000 OA
BRANCH   9  10
ATOM     10  C   UNL     1       6.238   5.245  17.701  0.00  0.00    +0.000 A 
ATOM     11  C   UNL     1       7.270   5.238  18.637  0.00  0.00    +0.000 A 
ATOM     12  C   UNL     1       8.035   6.398  18.840  0.00  0.00    +0.000 A 
ATOM     13  C   UNL     1       7.757   7.554  18.120  0.00  0.00    +0.000 A 
ATOM     14 CL   UNL     1       8.709   8.965  18.368  0.00  0.00    +0.000 Cl
ATOM     15  C   UNL     1       6.721   7.570  17.194  0.00  0.00    +0.000 A 
ATOM     16  C   UNL     1       5.964   6.417  16.987  0.00  0.00    +0.000 A 
ENDBRANCH   9  10
ENDBRANCH   8   9
ENDBRANCH   4   8
BRANCH   5  17
ATOM     17  C   UNL     1       3.371   5.308  19.508  0.00  0.00    +0.000 C 
BRANCH  17  18
ATOM     18  C   UNL     1       2.519   6.560  19.571  0.00  0.00    +0.000 A 
ATOM     19  C   UNL     1       1.788   6.962  20.694  0.00  0.00    +0.000 A 
ATOM     20  C   UNL     1       1.147   8.210  20.725  0.00  0.00    +0.000 A 
ATOM     21  C   UNL     1       1.227   9.118  19.655  0.00  0.00    +0.000 A 
ATOM     22  C   UNL     1       1.891   8.669  18.502  0.00  0.00    +0.000 A 
ATOM     23  C   UNL     1       2.519   7.415  18.458  0.00  0.00    +0.000 A 
BRANCH  21  24
ATOM     24  C   UNL     1       0.692  10.500  19.772  0.00  0.00    +0.000 A 
ATOM     25  C   UNL     1       0.450  11.280  18.623  0.00  0.00    +0.000 A 
ATOM     26  C   UNL     1      -0.073  12.575  18.705  0.00  0.00    +0.000 A 
ATOM     27  C   UNL     1      -0.386  13.120  19.944  0.00  0.00    +0.000 A 
ATOM     28  C   UNL     1      -0.177  12.370  21.096  0.00  0.00    +0.000 A 
ATOM     29  C   UNL     1       0.360  11.078  21.011  0.00  0.00    +0.000 A 
ENDBRANCH  21  24
ENDBRANCH  17  18
ENDBRANCH   5  17
TORSDOF 7
ENDMDL
MODEL 4
REMARK VINA RESULT:      -8.3      1.053      1.453
REMARK  Name = 
REMARK  8 active torsions:
REMARK  status: ('A' for Active; 'I' for Inactive)
REMARK    1  A    between atoms: C_1  and  S_2
REMARK    2  A    between atoms: S_2  and  C_3
REMARK    3  A    between atoms: C_6  and  C_7
REMARK    4  A    between atoms: C_7  and  O_8
REMARK    5  A    between atoms: O_8  and  C_9
REMARK    6  A    between atoms: N_16  and  C_17
REMARK    7  A    between atoms: C_17  and  C_18
REMARK    8  A    between atoms: C_21  and  C_22
REMARK                            x       y       z     vdW  Elec       q    Type
REMARK                         _______ _______ _______ _____ _____    ______ ____
ROOT
ATOM      1  C   UNL     1       3.089   2.829  19.604  0.00  0.00    +0.000 A 
ATOM      2  N   UNL     1       2.809   1.863  18.761  0.00  0.00    +0.000 NA
ATOM      3  N   UNL     1       3.235   2.253  17.517  0.00  0.00    +0.000 NA
ATOM      4  C   UNL     1       3.772   3.453  17.622  0.00  0.00    +0.000 A 
ATOM      5  N   UNL     1       3.657   3.877  18.930  0.00  0.00    +0.000 N 
ENDROOT
BRANCH   1   7
ATOM      6  C   UNL     1       0.989   2.850  21.346  0.00  0.00    +0.000 C 
ATOM      7  S   UNL     1       2.799   2.805  21.309  0.00  0.00    +0.000 S 
ENDBRANCH   1   7
BRANCH   4   8
ATOM      8  C   UNL     1       4.438   4.215  16.530  0.00  0.00    +0.000 C 
BRANCH   8   9
ATOM      9  O   UNL     1       5.837   4.054  16.757  0.00  0.00    +0.000 OA
BRANCH   9  10
ATOM     10  C   UNL     1       6.526   5.101  17.296  0.00  0.00    +0.000 A 
ATOM     11  C   UNL     1       7.395   5.049  18.384  0.00  0.00    +0.000 A 
ATOM     12  C   UNL     1       8.066   6.212  18.796  0.00  0.00    +0.000 A 
ATOM     13  C   UNL     1       7.855   7.415  18.132  0.00  0.00    +0.000 A 
ATOM     14 CL   UNL     1       8.691   8.829  18.638  0.00  0.00    +0.000 Cl
ATOM     15  C   UNL     1       6.980   7.475  17.053  0.00  0.00    +0.000 A 
ATOM     16  C   UNL     1       6.318   6.319  16.638  0.00  0.00    +0.000 A 
ENDBRANCH   9  10
ENDBRANCH   8   9
ENDBRANCH   4   8
BRANCH   5  17
ATOM     17  C   UNL     1       4.111   5.149  19.465  0.00  0.00    +0.000 C 
BRANCH  17  18
ATOM     18  C   UNL     1       3.109   6.281  19.357  0.00  0.00    +0.000 A 
ATOM     19  C   UNL     1       2.199   6.628  20.361  0.00  0.00    +0.000 A 
ATOM     20  C   UNL     1       1.409   7.782  20.248  0.00  0.00    +0.000 A 
ATOM     21  C   UNL     1       1.508   8.650  19.146  0.00  0.00    +0.000 A 
ATOM     22  C   UNL     1       2.362   8.247  18.107  0.00  0.00    +0.000 A 
ATOM     23  C   UNL     1       3.142   7.084  18.207  0.00  0.00    +0.000 A 
BRANCH  21  24
ATOM     24  C   UNL     1       0.795   9.954  19.123  0.00  0.00    +0.000 A 
ATOM     25  C   UNL     1      -0.537  10.057  19.572  0.00  0.00    +0.000 A 
ATOM     26  C   UNL     1      -1.223  11.276  19.580  0.00  0.00    +0.000 A 
ATOM     27  C   UNL     1      -0.586  12.434  19.154  0.00  0.00    +0.000 A 
ATOM     28  C   UNL     1       0.735  12.371  18.721  0.00  0.00    +0.000 A 
ATOM     29  C   UNL     1       1.415  11.145  18.701  0.00  0.00    +0.000 A 
ENDBRANCH  21  24
ENDBRANCH  17  18
ENDBRANCH   5  17
TORSDOF 7
ENDMDL
MODEL 5
REMARK VINA RESULT:      -8.2      2.484      3.255
REMARK  Name = 
REMARK  8 active torsions:
REMARK  status: ('A' for Active; 'I' for Inactive)
REMARK    1  A    between atoms: C_1  and  S_2
REMARK    2  A    between atoms: S_2  and  C_3
REMARK    3  A    between atoms: C_6  and  C_7
REMARK    4  A    between atoms: C_7  and  O_8
REMARK    5  A    between atoms: O_8  and  C_9
REMARK    6  A    between atoms: N_16  and  C_17
REMARK    7  A    between atoms: C_17  and  C_18
REMARK    8  A    between atoms: C_21  and  C_22
REMARK                            x       y       z     vdW  Elec       q    Type
REMARK                         _______ _______ _______ _____ _____    ______ ____
ROOT
ATOM      1  C   UNL     1       3.126   3.434  19.464  0.00  0.00    +0.000 A 
ATOM      2  N   UNL     1       4.163   2.822  19.986  0.00  0.00    +0.000 NA
ATOM      3  N   UNL     1       5.287   3.527  19.638  0.00  0.00    +0.000 NA
ATOM      4  C   UNL     1       4.916   4.561  18.908  0.00  0.00    +0.000 A 
ATOM      5  N   UNL     1       3.548   4.513  18.734  0.00  0.00    +0.000 N 
ENDROOT
BRANCH   1   7
ATOM      6  C   UNL     1       1.390   2.733  21.449  0.00  0.00    +0.000 C 
ATOM      7  S   UNL     1       1.472   2.969  19.656  0.00  0.00    +0.000 S 
ENDBRANCH   1   7
BRANCH   4   8
ATOM      8  C   UNL     1       5.808   5.637  18.392  0.00  0.00    +0.000 C 
BRANCH   8   9
ATOM      9  O   UNL     1       6.848   4.960  17.689  0.00  0.00    +0.000 OA
BRANCH   9  10
ATOM     10  C   UNL     1       6.607   4.567  16.405  0.00  0.00    +0.000 A 
ATOM     11  C   UNL     1       5.626   3.672  15.983  0.00  0.00    +0.000 A 
ATOM     12  C   UNL     1       5.475   3.399  14.614  0.00  0.00    +0.000 A 
ATOM     13  C   UNL     1       6.309   4.006  13.682  0.00  0.00    +0.000 A 
ATOM     14 CL   UNL     1       6.107   3.674  12.007  0.00  0.00    +0.000 Cl
ATOM     15  C   UNL     1       7.298   4.890  14.099  0.00  0.00    +0.000 A 
ATOM     16  C   UNL     1       7.445   5.168  15.459  0.00  0.00    +0.000 A 
ENDBRANCH   9  10
ENDBRANCH   8   9
ENDBRANCH   4   8
BRANCH   5  17
ATOM     17  C   UNL     1       2.742   5.460  17.983  0.00  0.00    +0.000 C 
BRANCH  17  18
ATOM     18  C   UNL     1       2.327   6.697  18.753  0.00  0.00    +0.000 A 
ATOM     19  C   UNL     1       2.070   7.941  18.168  0.00  0.00    +0.000 A 
ATOM     20  C   UNL     1       1.543   8.997  18.927  0.00  0.00    +0.000 A 
ATOM     21  C   UNL     1       1.227   8.853  20.290  0.00  0.00    +0.000 A 
ATOM     22  C   UNL     1       1.569   7.628  20.885  0.00  0.00    +0.000 A 
ATOM     23  C   UNL     1       2.112   6.574  20.134  0.00  0.00    +0.000 A 
BRANCH  21  24
ATOM     24  C   UNL     1       0.510   9.921  21.035  0.00  0.00    +0.000 A 
ATOM     25  C   UNL     1      -0.224   9.620  22.200  0.00  0.00    +0.000 A 
ATOM     26  C   UNL     1      -0.890  10.609  22.931  0.00  0.00    +0.000 A 
ATOM     27  C   UNL     1      -0.824  11.936  22.524  0.00  0.00    +0.000 A 
ATOM     28  C   UNL     1      -0.093  12.270  21.389  0.00  0.00    +0.000 A 
ATOM     29  C   UNL     1       0.562  11.274  20.651  0.00  0.00    +0.000 A 
ENDBRANCH  21  24
ENDBRANCH  17  18
ENDBRANCH   5  17
TORSDOF 7
ENDMDL
MODEL 6
REMARK VINA RESULT:      -8.0      3.560      7.894
REMARK  Name = 
REMARK  8 active torsions:
REMARK  status: ('A' for Active; 'I' for Inactive)
REMARK    1  A    between atoms: C_1  and  S_2
REMARK    2  A    between atoms: S_2  and  C_3
REMARK    3  A    between atoms: C_6  and  C_7
REMARK    4  A    between atoms: C_7  and  O_8
REMARK    5  A    between atoms: O_8  and  C_9
REMARK    6  A    between atoms: N_16  and  C_17
REMARK    7  A    between atoms: C_17  and  C_18
REMARK    8  A    between atoms: C_21  and  C_22
REMARK                            x       y       z     vdW  Elec       q    Type
REMARK                         _______ _______ _______ _____ _____    ______ ____
ROOT
ATOM      1  C   UNL     1       3.005   3.741  19.958  0.00  0.00    +0.000 A 
ATOM      2  N   UNL     1       1.704   3.668  20.110  0.00  0.00    +0.000 NA
ATOM      3  N   UNL     1       1.205   4.946  20.083  0.00  0.00    +0.000 NA
ATOM      4  C   UNL     1       2.213   5.779  19.913  0.00  0.00    +0.000 A 
ATOM      5  N   UNL     1       3.386   5.054  19.875  0.00  0.00    +0.000 N 
ENDROOT
BRANCH   1   7
ATOM      6  C   UNL     1       3.630   1.689  18.272  0.00  0.00    +0.000 C 
ATOM      7  S   UNL     1       4.094   2.400  19.871  0.00  0.00    +0.000 S 
ENDBRANCH   1   7
BRANCH   4   8
ATOM      8  C   UNL     1       2.112   7.255  19.740  0.00  0.00    +0.000 C 
BRANCH   8   9
ATOM      9  O   UNL     1       1.881   7.774  21.048  0.00  0.00    +0.000 OA
BRANCH   9  10
ATOM     10  C   UNL     1       1.035   8.836  21.179  0.00  0.00    +0.000 A 
ATOM     11  C   UNL     1       0.587   9.670  20.157  0.00  0.00    +0.000 A 
ATOM     12  C   UNL     1      -0.320  10.701  20.446  0.00  0.00    +0.000 A 
ATOM     13  C   UNL     1      -0.760  10.902  21.750  0.00  0.00    +0.000 A 
ATOM     14 CL   UNL     1      -1.881  12.161  22.091  0.00  0.00    +0.000 Cl
ATOM     15  C   UNL     1      -0.306  10.081  22.776  0.00  0.00    +0.000 A 
ATOM     16  C   UNL     1       0.590   9.051  22.489  0.00  0.00    +0.000 A 
ENDBRANCH   9  10
ENDBRANCH   8   9
ENDBRANCH   4   8
BRANCH   5  17
ATOM     17  C   UNL     1       4.726   5.592  19.714  0.00  0.00    +0.000 C 
BRANCH  17  18
ATOM     18  C   UNL     1       5.317   5.429  18.328  0.00  0.00    +0.000 A 
ATOM     19  C   UNL     1       6.405   4.603  18.027  0.00  0.00    +0.000 A 
ATOM     20  C   UNL     1       6.797   4.388  16.697  0.00  0.00    +0.000 A 
ATOM     21  C   UNL     1       6.110   4.963  15.613  0.00  0.00    +0.000 A 
ATOM     22  C   UNL     1       5.074   5.856  15.931  0.00  0.00    +0.000 A 
ATOM     23  C   UNL     1       4.689   6.089  17.261  0.00  0.00    +0.000 A 
BRANCH  21  24
ATOM     24  C   UNL     1       6.427   4.588  14.210  0.00  0.00    +0.000 A 
ATOM     25  C   UNL     1       5.668   3.610  13.535  0.00  0.00    +0.000 A 
ATOM     26  C   UNL     1       5.931   3.254  12.208  0.00  0.00    +0.000 A 
ATOM     27  C   UNL     1       6.956   3.883  11.511  0.00  0.00    +0.000 A 
ATOM     28  C   UNL     1       7.713   4.865  12.142  0.00  0.00    +0.000 A 
ATOM     29  C   UNL     1       7.454   5.209  13.476  0.00  0.00    +0.000 A 
ENDBRANCH  21  24
ENDBRANCH  17  18
ENDBRANCH   5  17
TORSDOF 7
ENDMDL
MODEL 7
REMARK VINA RESULT:      -7.9      2.664      3.455
REMARK  Name = 
REMARK  8 active torsions:
REMARK  status: ('A' for Active; 'I' for Inactive)
REMARK    1  A    between atoms: C_1  and  S_2
REMARK    2  A    between atoms: S_2  and  C_3
REMARK    3  A    between atoms: C_6  and  C_7
REMARK    4  A    between atoms: C_7  and  O_8
REMARK    5  A    between atoms: O_8  and  C_9
REMARK    6  A    between atoms: N_16  and  C_17
REMARK    7  A    between atoms: C_17  and  C_18
REMARK    8  A    between atoms: C_21  and  C_22
REMARK                            x       y       z     vdW  Elec       q    Type
REMARK                         _______ _______ _______ _____ _____    ______ ____
ROOT
ATOM      1  C   UNL     1       3.683   3.783  19.445  0.00  0.00    +0.000 A 
ATOM      2  N   UNL     1       4.842   3.294  19.817  0.00  0.00    +0.000 NA
ATOM      3  N   UNL     1       5.826   4.052  19.234  0.00  0.00    +0.000 NA
ATOM      4  C   UNL     1       5.248   4.995  18.516  0.00  0.00    +0.000 A 
ATOM      5  N   UNL     1       3.879   4.831  18.586  0.00  0.00    +0.000 N 
ENDROOT
BRANCH   1   7
ATOM      6  C   UNL     1       2.490   2.712  21.654  0.00  0.00    +0.000 C 
ATOM      7  S   UNL     1       2.131   3.211  19.951  0.00  0.00    +0.000 S 
ENDBRANCH   1   7
BRANCH   4   8
ATOM      8  C   UNL     1       5.942   6.092  17.786  0.00  0.00    +0.000 C 
BRANCH   8   9
ATOM      9  O   UNL     1       7.032   5.466  17.113  0.00  0.00    +0.000 OA
BRANCH   9  10
ATOM     10  C   UNL     1       6.834   5.027  15.836  0.00  0.00    +0.000 A 
ATOM     11  C   UNL     1       7.588   5.368  14.715  0.00  0.00    +0.000 A 
ATOM     12  C   UNL     1       7.283   4.797  13.470  0.00  0.00    +0.000 A 
ATOM     13  C   UNL     1       6.223   3.905  13.349  0.00  0.00    +0.000 A 
ATOM     14 CL   UNL     1       5.866   3.203  11.821  0.00  0.00    +0.000 Cl
ATOM     15  C   UNL     1       5.460   3.571  14.461  0.00  0.00    +0.000 A 
ATOM     16  C   UNL     1       5.766   4.132  15.702  0.00  0.00    +0.000 A 
ENDBRANCH   9  10
ENDBRANCH   8   9
ENDBRANCH   4   8
BRANCH   5  17
ATOM     17  C   UNL     1       2.879   5.652  17.928  0.00  0.00    +0.000 C 
BRANCH  17  18
ATOM     18  C   UNL     1       2.403   6.846  18.732  0.00  0.00    +0.000 A 
ATOM     19  C   UNL     1       2.039   8.077  18.177  0.00  0.00    +0.000 A 
ATOM     20  C   UNL     1       1.465   9.082  18.970  0.00  0.00    +0.000 A 
ATOM     21  C   UNL     1       1.206   8.896  20.340  0.00  0.00    +0.000 A 
ATOM     22  C   UNL     1       1.654   7.690  20.903  0.00  0.00    +0.000 A 
ATOM     23  C   UNL     1       2.245   6.688  20.117  0.00  0.00    +0.000 A 
BRANCH  21  24
ATOM     24  C   UNL     1       0.441   9.899  21.126  0.00  0.00    +0.000 A 
ATOM     25  C   UNL     1      -0.181   9.543  22.340  0.00  0.00    +0.000 A 
ATOM     26  C   UNL     1      -0.889  10.473  23.109  0.00  0.00    +0.000 A 
ATOM     27  C   UNL     1      -0.978  11.795  22.691  0.00  0.00    +0.000 A 
ATOM     28  C   UNL     1      -0.360  12.183  21.507  0.00  0.00    +0.000 A 
ATOM     29  C   UNL     1       0.337  11.246  20.732  0.00  0.00    +0.000 A 
ENDBRANCH  21  24
ENDBRANCH  17  18
ENDBRANCH   5  17
TORSDOF 7
ENDMDL
MODEL 8
REMARK VINA RESULT:      -7.8      3.395      7.773
REMARK  Name = 
REMARK  8 active torsions:
REMARK  status: ('A' for Active; 'I' for Inactive)
REMARK    1  A    between atoms: C_1  and  S_2
REMARK    2  A    between atoms: S_2  and  C_3
REMARK    3  A    between atoms: C_6  and  C_7
REMARK    4  A    between atoms: C_7  and  O_8
REMARK    5  A    between atoms: O_8  and  C_9
REMARK    6  A    between atoms: N_16  and  C_17
REMARK    7  A    between atoms: C_17  and  C_18
REMARK    8  A    between atoms: C_21  and  C_22
REMARK                            x       y       z     vdW  Elec       q    Type
REMARK                         _______ _______ _______ _____ _____    ______ ____
ROOT
ATOM      1  C   UNL     1       2.912   3.823  19.869  0.00  0.00    +0.000 A 
ATOM      2  N   UNL     1       1.612   3.796  20.044  0.00  0.00    +0.000 NA
ATOM      3  N   UNL     1       1.171   5.092  20.131  0.00  0.00    +0.000 NA
ATOM      4  C   UNL     1       2.213   5.891  20.006  0.00  0.00    +0.000 A 
ATOM      5  N   UNL     1       3.351   5.120  19.883  0.00  0.00    +0.000 N 
ENDROOT
BRANCH   1   7
ATOM      6  C   UNL     1       3.568   2.018  17.930  0.00  0.00    +0.000 C 
ATOM      7  S   UNL     1       3.935   2.446  19.650  0.00  0.00    +0.000 S 
ENDBRANCH   1   7
BRANCH   4   8
ATOM      8  C   UNL     1       2.177   7.378  19.954  0.00  0.00    +0.000 C 
BRANCH   8   9
ATOM      9  O   UNL     1       1.319   7.773  21.022  0.00  0.00    +0.000 OA
BRANCH   9  10
ATOM     10  C   UNL     1       0.762   9.017  20.974  0.00  0.00    +0.000 A 
ATOM     11  C   UNL     1       0.281   9.753  22.056  0.00  0.00    +0.000 A 
ATOM     12  C   UNL     1      -0.229  11.044  21.849  0.00  0.00    +0.000 A 
ATOM     13  C   UNL     1      -0.269  11.584  20.569  0.00  0.00    +0.000 A 
ATOM     14 CL   UNL     1      -0.885  13.172  20.328  0.00  0.00    +0.000 Cl
ATOM     15  C   UNL     1       0.197  10.850  19.484  0.00  0.00    +0.000 A 
ATOM     16  C   UNL     1       0.711   9.569  19.689  0.00  0.00    +0.000 A 
ENDBRANCH   9  10
ENDBRANCH   8   9
ENDBRANCH   4   8
BRANCH   5  17
ATOM     17  C   UNL     1       4.711   5.609  19.736  0.00  0.00    +0.000 C 
BRANCH  17  18
ATOM     18  C   UNL     1       5.292   5.468  18.343  0.00  0.00    +0.000 A 
ATOM     19  C   UNL     1       6.474   4.780  18.048  0.00  0.00    +0.000 A 
ATOM     20  C   UNL     1       6.867   4.564  16.718  0.00  0.00    +0.000 A 
ATOM     21  C   UNL     1       6.089   4.998  15.630  0.00  0.00    +0.000 A 
ATOM     22  C   UNL     1       4.951   5.760  15.938  0.00  0.00    +0.000 A 
ATOM     23  C   UNL     1       4.563   5.995  17.267  0.00  0.00    +0.000 A 
BRANCH  21  24
ATOM     24  C   UNL     1       6.427   4.610  14.235  0.00  0.00    +0.000 A 
ATOM     25  C   UNL     1       5.674   3.631  13.555  0.00  0.00    +0.000 A 
ATOM     26  C   UNL     1       5.957   3.263  12.236  0.00  0.00    +0.000 A 
ATOM     27  C   UNL     1       6.996   3.881  11.551  0.00  0.00    +0.000 A 
ATOM     28  C   UNL     1       7.747   4.865  12.186  0.00  0.00    +0.000 A 
ATOM     29  C   UNL     1       7.469   5.221  13.513  0.00  0.00    +0.000 A 
ENDBRANCH  21  24
ENDBRANCH  17  18
ENDBRANCH   5  17
TORSDOF 7
ENDMDL
MODEL 9
REMARK VINA RESULT:      -7.8      2.378      3.051
REMARK  Name = 
REMARK  8 active torsions:
REMARK  status: ('A' for Active; 'I' for Inactive)
REMARK    1  A    between atoms: C_1  and  S_2
REMARK    2  A    between atoms: S_2  and  C_3
REMARK    3  A    between atoms: C_6  and  C_7
REMARK    4  A    between atoms: C_7  and  O_8
REMARK    5  A    between atoms: O_8  and  C_9
REMARK    6  A    between atoms: N_16  and  C_17
REMARK    7  A    between atoms: C_17  and  C_18
REMARK    8  A    between atoms: C_21  and  C_22
REMARK                            x       y       z     vdW  Elec       q    Type
REMARK                         _______ _______ _______ _____ _____    ______ ____
ROOT
ATOM      1  C   UNL     1       2.220   3.592  19.126  0.00  0.00    +0.000 A 
ATOM      2  N   UNL     1       2.352   2.648  18.225  0.00  0.00    +0.000 NA
ATOM      3  N   UNL     1       3.551   2.839  17.587  0.00  0.00    +0.000 NA
ATOM      4  C   UNL     1       4.132   3.901  18.111  0.00  0.00    +0.000 A 
ATOM      5  N   UNL     1       3.294   4.439  19.066  0.00  0.00    +0.000 N 
ENDROOT
BRANCH   1   7
ATOM      6  C   UNL     1       1.465   2.718  21.598  0.00  0.00    +0.000 C 
ATOM      7  S   UNL     1       0.901   3.763  20.232  0.00  0.00    +0.000 S 
ENDBRANCH   1   7
BRANCH   4   8
ATOM      8  C   UNL     1       5.488   4.415  17.774  0.00  0.00    +0.000 C 
BRANCH   8   9
ATOM      9  O   UNL     1       5.296   5.284  16.659  0.00  0.00    +0.000 OA
BRANCH   9  10
ATOM     10  C   UNL     1       5.675   4.842  15.425  0.00  0.00    +0.000 A 
ATOM     11  C   UNL     1       4.886   4.138  14.518  0.00  0.00    +0.000 A 
ATOM     12  C   UNL     1       5.410   3.787  13.264  0.00  0.00    +0.000 A 
ATOM     13  C   UNL     1       6.716   4.126  12.931  0.00  0.00    +0.000 A 
ATOM     14 CL   UNL     1       7.343   3.702  11.387  0.00  0.00    +0.000 Cl
ATOM     15  C   UNL     1       7.512   4.817  13.837  0.00  0.00    +0.000 A 
ATOM     16  C   UNL     1       6.991   5.173  15.082  0.00  0.00    +0.000 A 
ENDBRANCH   9  10
ENDBRANCH   8   9
ENDBRANCH   4   8
BRANCH   5  17
ATOM     17  C   UNL     1       3.553   5.621  19.870  0.00  0.00    +0.000 C 
BRANCH  17  18
ATOM     18  C   UNL     1       2.649   6.802  19.576  0.00  0.00    +0.000 A 
ATOM     19  C   UNL     1       1.841   7.432  20.528  0.00  0.00    +0.000 A 
ATOM     20  C   UNL     1       1.150   8.613  20.214  0.00  0.00    +0.000 A 
ATOM     21  C   UNL     1       1.255   9.228  18.954  0.00  0.00    +0.000 A 
ATOM     22  C   UNL     1       2.000   8.541  17.983  0.00  0.00    +0.000 A 
ATOM     23  C   UNL     1       2.679   7.351  18.285  0.00  0.00    +0.000 A 
BRANCH  21  24
ATOM     24  C   UNL     1       0.660  10.565  18.695  0.00  0.00    +0.000 A 
ATOM     25  C   UNL     1      -0.703  10.697  18.360  0.00  0.00    +0.000 A 
ATOM     26  C   UNL     1      -1.293  11.945  18.132  0.00  0.00    +0.000 A 
ATOM     27  C   UNL     1      -0.534  13.103  18.251  0.00  0.00    +0.000 A 
ATOM     28  C   UNL     1       0.810  13.010  18.598  0.00  0.00    +0.000 A 
ATOM     29  C   UNL     1       1.400  11.756  18.812  0.00  0.00    +0.000 A 
ENDBRANCH  21  24
ENDBRANCH  17  18
ENDBRANCH   5  17
TORSDOF 7
ENDMDL
