MODEL 1
REMARK VINA RESULT:      -7.0      0.000      0.000
REMARK  Name = 
REMARK  5 active torsions:
REMARK  status: ('A' for Active; 'I' for Inactive)
REMARK    1  A    between atoms: C_1  and  C_2
REMARK    2  A    between atoms: N_4  and  C_5
REMARK    3  A    between atoms: C_5  and  C_6
REMARK    4  A    between atoms: N_8  and  C_9
REMARK    5  A    between atoms: C_14  and  C_15
REMARK                            x       y       z     vdW  Elec       q    Type
REMARK                         _______ _______ _______ _____ _____    ______ ____
ROOT
ATOM      1  C   UNL     1       4.549   7.103  17.393  0.00  0.00    +0.000 C 
ENDROOT
BRANCH   1   5
ATOM      2  C   UNL     1       5.837   3.434  15.359  0.00  0.00    +0.000 C 
ATOM      3  C   UNL     1       6.655   4.725  15.290  0.00  0.00    +0.000 C 
ATOM      4  C   UNL     1       5.808   5.967  15.634  0.00  0.00    +0.000 C 
ATOM      5  N   UNL     1       5.462   5.991  17.072  0.00  0.00    +0.000 NA
ATOM      6  C   UNL     1       6.708   5.974  17.885  0.00  0.00    +0.000 C 
ATOM      7  C   UNL     1       7.607   7.219  17.767  0.00  0.00    +0.000 C 
ATOM      8  C   UNL     1       7.523   4.708  17.516  0.00  0.00    +0.000 C 
ATOM      9  O   UNL     1       7.830   4.643  16.116  0.00  0.00    +0.000 OA
ENDBRANCH   1   5
BRANCH   1  10
ATOM     10  C   UNL     1       3.235   6.574  17.996  0.00  0.00    +0.000 C 
ATOM     11  O   UNL     1       2.277   7.323  18.216  0.00  0.00    +0.000 OA
ATOM     12  N   UNL     1       3.212   5.224  18.286  0.00  0.00    +0.000 N 
ATOM     13  H   UNL     1       3.939   4.652  17.867  0.00  0.00    +0.000 HD
BRANCH  12  14
ATOM     14  C   UNL     1       2.010   4.604  18.800  0.00  0.00    +0.000 C 
ATOM     15  C   UNL     1       1.734   3.221  18.217  0.00  0.00    +0.000 C 
ATOM     16  C   UNL     1       0.709   2.632  19.180  0.00  0.00    +0.000 C 
ATOM     17  C   UNL     1       0.998   3.271  20.540  0.00  0.00    +0.000 C 
ATOM     18  C   UNL     1       2.069   4.333  20.297  0.00  0.00    +0.000 C 
ENDBRANCH  12  14
ENDBRANCH   1  10
TORSDOF 3
ENDMDL
MODEL 2
REMARK VINA RESULT:      -6.6      2.121      6.006
REMARK  Name = 
REMARK  5 active torsions:
REMARK  status: ('A' for Active; 'I' for Inactive)
REMARK    1  A    between atoms: C_1  and  C_2
REMARK    2  A    between atoms: N_4  and  C_5
REMARK    3  A    between atoms: C_5  and  C_6
REMARK    4  A    between atoms: N_8  and  C_9
REMARK    5  A    between atoms: C_14  and  C_15
REMARK                            x       y       z     vdW  Elec       q    Type
REMARK                         _______ _______ _______ _____ _____    ______ ____
ROOT
ATOM      1  C   UNL     1       5.875   5.042  18.033  0.00  0.00    +0.000 C 
ENDROOT
BRANCH   1   5
ATOM      2  C   UNL     1       3.286   1.518  18.398  0.00  0.00    +0.000 C 
ATOM      3  C   UNL     1       3.202   2.686  19.381  0.00  0.00    +0.000 C 
ATOM      4  C   UNL     1       4.483   3.546  19.372  0.00  0.00    +0.000 C 
ATOM      5  N   UNL     1       4.597   4.313  18.113  0.00  0.00    +0.000 NA
ATOM      6  C   UNL     1       3.395   5.174  17.944  0.00  0.00    +0.000 C 
ATOM      7  C   UNL     1       3.225   6.305  18.975  0.00  0.00    +0.000 C 
ATOM      8  C   UNL     1       2.133   4.273  17.949  0.00  0.00    +0.000 C 
ATOM      9  O   UNL     1       2.030   3.485  19.144  0.00  0.00    +0.000 OA
ENDBRANCH   1   5
BRANCH   1  10
ATOM     10  C   UNL     1       6.671   4.614  16.787  0.00  0.00    +0.000 C 
ATOM     11  O   UNL     1       7.890   4.412  16.836  0.00  0.00    +0.000 OA
ATOM     12  N   UNL     1       5.938   4.491  15.623  0.00  0.00    +0.000 N 
ATOM     13  H   UNL     1       4.928   4.448  15.720  0.00  0.00    +0.000 HD
BRANCH  12  14
ATOM     14  C   UNL     1       6.569   4.036  14.403  0.00  0.00    +0.000 C 
ATOM     15  C   UNL     1       5.583   3.545  13.348  0.00  0.00    +0.000 C 
ATOM     16  C   UNL     1       6.415   3.526  12.070  0.00  0.00    +0.000 C 
ATOM     17  C   UNL     1       7.465   4.626  12.240  0.00  0.00    +0.000 C 
ATOM     18  C   UNL     1       7.322   5.139  13.672  0.00  0.00    +0.000 C 
ENDBRANCH  12  14
ENDBRANCH   1  10
TORSDOF 3
ENDMDL
MODEL 3
REMARK VINA RESULT:      -6.4      2.120      6.199
REMARK  Name = 
REMARK  5 active torsions:
REMARK  status: ('A' for Active; 'I' for Inactive)
REMARK    1  A    between atoms: C_1  and  C_2
REMARK    2  A    between atoms: N_4  and  C_5
REMARK    3  A    between atoms: C_5  and  C_6
REMARK    4  A    between atoms: N_8  and  C_9
REMARK    5  A    between atoms: C_14  and  C_15
REMARK                            x       y       z     vdW  Elec       q    Type
REMARK                         _______ _______ _______ _____ _____    ______ ____
ROOT
ATOM      1  C   UNL     1       4.085   5.198  19.339  0.00  0.00    +0.000 C 
ENDROOT
BRANCH   1   5
ATOM      2  C   UNL     1       1.911   2.428  21.958  0.00  0.00    +0.000 C 
ATOM      3  C   UNL     1       1.185   3.459  21.093  0.00  0.00    +0.000 C 
ATOM      4  C   UNL     1       2.114   4.610  20.658  0.00  0.00    +0.000 C 
ATOM      5  N   UNL     1       3.111   4.143  19.670  0.00  0.00    +0.000 NA
ATOM      6  C   UNL     1       2.410   3.569  18.489  0.00  0.00    +0.000 C 
ATOM      7  C   UNL     1       1.587   4.562  17.646  0.00  0.00    +0.000 C 
ATOM      8  C   UNL     1       1.496   2.412  18.967  0.00  0.00    +0.000 C 
ATOM      9  O   UNL     1       0.552   2.837  19.961  0.00  0.00    +0.000 OA
ENDBRANCH   1   5
BRANCH   1  10
ATOM     10  C   UNL     1       5.166   4.662  18.383  0.00  0.00    +0.000 C 
ATOM     11  O   UNL     1       6.115   3.985  18.794  0.00  0.00    +0.000 OA
ATOM     12  N   UNL     1       5.012   5.004  17.054  0.00  0.00    +0.000 N 
ATOM     13  H   UNL     1       4.101   5.356  16.775  0.00  0.00    +0.000 HD
BRANCH  12  14
ATOM     14  C   UNL     1       5.933   4.507  16.056  0.00  0.00    +0.000 C 
ATOM     15  C   UNL     1       5.255   4.041  14.772  0.00  0.00    +0.000 C 
ATOM     16  C   UNL     1       6.405   3.970  13.772  0.00  0.00    +0.000 C 
ATOM     17  C   UNL     1       7.414   5.029  14.221  0.00  0.00    +0.000 C 
ATOM     18  C   UNL     1       6.905   5.568  15.557  0.00  0.00    +0.000 C 
ENDBRANCH  12  14
ENDBRANCH   1  10
TORSDOF 3
ENDMDL
MODEL 4
REMARK VINA RESULT:      -6.3      2.062      6.014
REMARK  Name = 
REMARK  5 active torsions:
REMARK  status: ('A' for Active; 'I' for Inactive)
REMARK    1  A    between atoms: C_1  and  C_2
REMARK    2  A    between atoms: N_4  and  C_5
REMARK    3  A    between atoms: C_5  and  C_6
REMARK    4  A    between atoms: N_8  and  C_9
REMARK    5  A    between atoms: C_14  and  C_15
REMARK                            x       y       z     vdW  Elec       q    Type
REMARK                         _______ _______ _______ _____ _____    ______ ____
ROOT
ATOM      1  C   UNL     1       3.499   3.565  16.811  0.00  0.00    +0.000 C 
ENDROOT
BRANCH   1   5
ATOM      2  C   UNL     1       1.339   4.873  20.400  0.00  0.00    +0.000 C 
ATOM      3  C   UNL     1       1.212   3.450  19.856  0.00  0.00    +0.000 C 
ATOM      4  C   UNL     1       1.634   3.354  18.375  0.00  0.00    +0.000 C 
ATOM      5  N   UNL     1       3.095   3.526  18.228  0.00  0.00    +0.000 NA
ATOM      6  C   UNL     1       3.802   2.495  19.034  0.00  0.00    +0.000 C 
ATOM      7  C   UNL     1       3.619   1.037  18.572  0.00  0.00    +0.000 C 
ATOM      8  C   UNL     1       3.358   2.630  20.514  0.00  0.00    +0.000 C 
ATOM      9  O   UNL     1       1.937   2.512  20.671  0.00  0.00    +0.000 OA
ENDBRANCH   1   5
BRANCH   1  10
ATOM     10  C   UNL     1       4.897   4.189  16.658  0.00  0.00    +0.000 C 
ATOM     11  O   UNL     1       5.690   3.797  15.795  0.00  0.00    +0.000 OA
ATOM     12  N   UNL     1       5.205   5.194  17.554  0.00  0.00    +0.000 N 
ATOM     13  H   UNL     1       4.429   5.605  18.066  0.00  0.00    +0.000 HD
BRANCH  12  14
ATOM     14  C   UNL     1       6.467   5.895  17.467  0.00  0.00    +0.000 C 
ATOM     15  C   UNL     1       6.322   7.389  17.196  0.00  0.00    +0.000 C 
ATOM     16  C   UNL     1       7.695   7.947  17.557  0.00  0.00    +0.000 C 
ATOM     17  C   UNL     1       8.247   7.024  18.644  0.00  0.00    +0.000 C 
ATOM     18  C   UNL     1       7.260   5.865  18.767  0.00  0.00    +0.000 C 
ENDBRANCH  12  14
ENDBRANCH   1  10
TORSDOF 3
ENDMDL
MODEL 5
REMARK VINA RESULT:      -6.2      2.258      5.857
REMARK  Name = 
REMARK  5 active torsions:
REMARK  status: ('A' for Active; 'I' for Inactive)
REMARK    1  A    between atoms: C_1  and  C_2
REMARK    2  A    between atoms: N_4  and  C_5
REMARK    3  A    between atoms: C_5  and  C_6
REMARK    4  A    between atoms: N_8  and  C_9
REMARK    5  A    between atoms: C_14  and  C_15
REMARK                            x       y       z     vdW  Elec       q    Type
REMARK                         _______ _______ _______ _____ _____    ______ ____
ROOT
ATOM      1  C   UNL     1       5.044   5.722  17.833  0.00  0.00    +0.000 C 
ENDROOT
BRANCH   1   5
ATOM      2  C   UNL     1       3.467   1.649  18.262  0.00  0.00    +0.000 C 
ATOM      3  C   UNL     1       3.362   2.678  19.388  0.00  0.00    +0.000 C 
ATOM      4  C   UNL     1       4.379   3.825  19.223  0.00  0.00    +0.000 C 
ATOM      5  N   UNL     1       4.016   4.696  18.084  0.00  0.00    +0.000 NA
ATOM      6  C   UNL     1       2.648   5.243  18.291  0.00  0.00    +0.000 C 
ATOM      7  C   UNL     1       2.482   6.210  19.478  0.00  0.00    +0.000 C 
ATOM      8  C   UNL     1       1.657   4.060  18.443  0.00  0.00    +0.000 C 
ATOM      9  O   UNL     1       2.019   3.179  19.515  0.00  0.00    +0.000 OA
ENDBRANCH   1   5
BRANCH   1  10
ATOM     10  C   UNL     1       5.287   5.895  16.323  0.00  0.00    +0.000 C 
ATOM     11  O   UNL     1       5.225   7.003  15.781  0.00  0.00    +0.000 OA
ATOM     12  N   UNL     1       5.559   4.735  15.625  0.00  0.00    +0.000 N 
ATOM     13  H   UNL     1       5.817   3.919  16.173  0.00  0.00    +0.000 HD
BRANCH  12  14
ATOM     14  C   UNL     1       5.864   4.782  14.212  0.00  0.00    +0.000 C 
ATOM     15  C   UNL     1       7.343   5.001  13.910  0.00  0.00    +0.000 C 
ATOM     16  C   UNL     1       7.465   4.604  12.442  0.00  0.00    +0.000 C 
ATOM     17  C   UNL     1       6.386   3.545  12.206  0.00  0.00    +0.000 C 
ATOM     18  C   UNL     1       5.563   3.476  13.490  0.00  0.00    +0.000 C 
ENDBRANCH  12  14
ENDBRANCH   1  10
TORSDOF 3
ENDMDL
MODEL 6
REMARK VINA RESULT:      -6.2      1.319      1.520
REMARK  Name = 
REMARK  5 active torsions:
REMARK  status: ('A' for Active; 'I' for Inactive)
REMARK    1  A    between atoms: C_1  and  C_2
REMARK    2  A    between atoms: N_4  and  C_5
REMARK    3  A    between atoms: C_5  and  C_6
REMARK    4  A    between atoms: N_8  and  C_9
REMARK    5  A    between atoms: C_14  and  C_15
REMARK                            x       y       z     vdW  Elec       q    Type
REMARK                         _______ _______ _______ _____ _____    ______ ____
ROOT
ATOM      1  C   UNL     1       4.044   6.028  17.370  0.00  0.00    +0.000 C 
ENDROOT
BRANCH   1   5
ATOM      2  C   UNL     1       6.001   3.780  14.150  0.00  0.00    +0.000 C 
ATOM      3  C   UNL     1       6.526   5.137  14.621  0.00  0.00    +0.000 C 
ATOM      4  C   UNL     1       5.450   5.946  15.374  0.00  0.00    +0.000 C 
ATOM      5  N   UNL     1       5.158   5.342  16.692  0.00  0.00    +0.000 NA
ATOM      6  C   UNL     1       6.408   5.272  17.496  0.00  0.00    +0.000 C 
ATOM      7  C   UNL     1       7.021   6.623  17.909  0.00  0.00    +0.000 C 
ATOM      8  C   UNL     1       7.458   4.444  16.710  0.00  0.00    +0.000 C 
ATOM      9  O   UNL     1       7.721   4.989  15.409  0.00  0.00    +0.000 OA
ENDBRANCH   1   5
BRANCH   1  10
ATOM     10  C   UNL     1       3.546   5.205  18.572  0.00  0.00    +0.000 C 
ATOM     11  O   UNL     1       3.672   5.613  19.732  0.00  0.00    +0.000 OA
ATOM     12  N   UNL     1       2.971   3.988  18.265  0.00  0.00    +0.000 N 
ATOM     13  H   UNL     1       2.700   3.839  17.297  0.00  0.00    +0.000 HD
BRANCH  12  14
ATOM     14  C   UNL     1       2.411   3.156  19.308  0.00  0.00    +0.000 C 
ATOM     15  C   UNL     1       3.406   2.797  20.407  0.00  0.00    +0.000 C 
ATOM     16  C   UNL     1       2.514   2.304  21.542  0.00  0.00    +0.000 C 
ATOM     17  C   UNL     1       1.191   3.057  21.389  0.00  0.00    +0.000 C 
ATOM     18  C   UNL     1       1.289   3.838  20.080  0.00  0.00    +0.000 C 
ENDBRANCH  12  14
ENDBRANCH   1  10
TORSDOF 3
ENDMDL
MODEL 7
REMARK VINA RESULT:      -6.1      3.316      6.952
REMARK  Name = 
REMARK  5 active torsions:
REMARK  status: ('A' for Active; 'I' for Inactive)
REMARK    1  A    between atoms: C_1  and  C_2
REMARK    2  A    between atoms: N_4  and  C_5
REMARK    3  A    between atoms: C_5  and  C_6
REMARK    4  A    between atoms: N_8  and  C_9
REMARK    5  A    between atoms: C_14  and  C_15
REMARK                            x       y       z     vdW  Elec       q    Type
REMARK                         _______ _______ _______ _____ _____    ______ ____
ROOT
ATOM      1  C   UNL     1       7.935   6.652  18.378  0.00  0.00    +0.000 C 
ENDROOT
BRANCH   1   5
ATOM      2  C   UNL     1       6.653   4.842  14.592  0.00  0.00    +0.000 C 
ATOM      3  C   UNL     1       6.477   4.123  15.931  0.00  0.00    +0.000 C 
ATOM      4  C   UNL     1       7.409   4.690  17.021  0.00  0.00    +0.000 C 
ATOM      5  N   UNL     1       6.983   6.046  17.430  0.00  0.00    +0.000 NA
ATOM      6  C   UNL     1       5.580   6.000  17.923  0.00  0.00    +0.000 C 
ATOM      7  C   UNL     1       5.347   5.202  19.221  0.00  0.00    +0.000 C 
ATOM      8  C   UNL     1       4.677   5.434  16.797  0.00  0.00    +0.000 C 
ATOM      9  O   UNL     1       5.102   4.138  16.354  0.00  0.00    +0.000 OA
ENDBRANCH   1   5
BRANCH   1  10
ATOM     10  C   UNL     1       8.042   8.171  18.150  0.00  0.00    +0.000 C 
ATOM     11  O   UNL     1       7.430   8.731  17.233  0.00  0.00    +0.000 OA
ATOM     12  N   UNL     1       8.872   8.849  19.020  0.00  0.00    +0.000 N 
ATOM     13  H   UNL     1       9.145   8.361  19.868  0.00  0.00    +0.000 HD
BRANCH  12  14
ATOM     14  C   UNL     1       9.002  10.288  18.939  0.00  0.00    +0.000 C 
ATOM     15  C   UNL     1       9.424  10.941  20.251  0.00  0.00    +0.000 C 
ATOM     16  C   UNL     1       9.885  12.330  19.821  0.00  0.00    +0.000 C 
ATOM     17  C   UNL     1      10.413  12.170  18.394  0.00  0.00    +0.000 C 
ATOM     18  C   UNL     1      10.092  10.737  17.975  0.00  0.00    +0.000 C 
ENDBRANCH  12  14
ENDBRANCH   1  10
TORSDOF 3
ENDMDL
MODEL 8
REMARK VINA RESULT:      -6.0      2.024      5.719
REMARK  Name = 
REMARK  5 active torsions:
REMARK  status: ('A' for Active; 'I' for Inactive)
REMARK    1  A    between atoms: C_1  and  C_2
REMARK    2  A    between atoms: N_4  and  C_5
REMARK    3  A    between atoms: C_5  and  C_6
REMARK    4  A    between atoms: N_8  and  C_9
REMARK    5  A    between atoms: C_14  and  C_15
REMARK                            x       y       z     vdW  Elec       q    Type
REMARK                         _______ _______ _______ _____ _____    ______ ____
ROOT
ATOM      1  C   UNL     1       3.994   5.782  18.771  0.00  0.00    +0.000 C 
ENDROOT
BRANCH   1   5
ATOM      2  C   UNL     1       3.513   1.441  18.349  0.00  0.00    +0.000 C 
ATOM      3  C   UNL     1       3.301   2.150  19.687  0.00  0.00    +0.000 C 
ATOM      4  C   UNL     1       3.983   3.533  19.726  0.00  0.00    +0.000 C 
ATOM      5  N   UNL     1       3.283   4.493  18.844  0.00  0.00    +0.000 NA
ATOM      6  C   UNL     1       1.859   4.606  19.262  0.00  0.00    +0.000 C 
ATOM      7  C   UNL     1       1.611   5.229  20.648  0.00  0.00    +0.000 C 
ATOM      8  C   UNL     1       1.211   3.200  19.201  0.00  0.00    +0.000 C 
ATOM      9  O   UNL     1       1.903   2.242  20.015  0.00  0.00    +0.000 OA
ENDBRANCH   1   5
BRANCH   1  10
ATOM     10  C   UNL     1       4.499   6.047  17.341  0.00  0.00    +0.000 C 
ATOM     11  O   UNL     1       4.446   7.173  16.835  0.00  0.00    +0.000 OA
ATOM     12  N   UNL     1       4.994   4.946  16.669  0.00  0.00    +0.000 N 
ATOM     13  H   UNL     1       5.213   4.128  17.229  0.00  0.00    +0.000 HD
BRANCH  12  14
ATOM     14  C   UNL     1       5.553   5.087  15.342  0.00  0.00    +0.000 C 
ATOM     15  C   UNL     1       7.076   5.150  15.320  0.00  0.00    +0.000 C 
ATOM     16  C   UNL     1       7.419   4.878  13.859  0.00  0.00    +0.000 C 
ATOM     17  C   UNL     1       6.297   3.985  13.327  0.00  0.00    +0.000 C 
ATOM     18  C   UNL     1       5.253   3.899  14.438  0.00  0.00    +0.000 C 
ENDBRANCH  12  14
ENDBRANCH   1  10
TORSDOF 3
ENDMDL
MODEL 9
REMARK VINA RESULT:      -6.0      0.790      1.250
REMARK  Name = 
REMARK  5 active torsions:
REMARK  status: ('A' for Active; 'I' for Inactive)
REMARK    1  A    between atoms: C_1  and  C_2
REMARK    2  A    between atoms: N_4  and  C_5
REMARK    3  A    between atoms: C_5  and  C_6
REMARK    4  A    between atoms: N_8  and  C_9
REMARK    5  A    between atoms: C_14  and  C_15
REMARK                            x       y       z     vdW  Elec       q    Type
REMARK                         _______ _______ _______ _____ _____    ______ ____
ROOT
ATOM      1  C   UNL     1       4.401   6.508  17.660  0.00  0.00    +0.000 C 
ENDROOT
BRANCH   1   5
ATOM      2  C   UNL     1       5.787   3.757  14.534  0.00  0.00    +0.000 C 
ATOM      3  C   UNL     1       6.381   5.157  14.699  0.00  0.00    +0.000 C 
ATOM      4  C   UNL     1       5.446   6.095  15.490  0.00  0.00    +0.000 C 
ATOM      5  N   UNL     1       5.386   5.703  16.915  0.00  0.00    +0.000 NA
ATOM      6  C   UNL     1       6.755   5.725  17.497  0.00  0.00    +0.000 C 
ATOM      7  C   UNL     1       7.425   7.109  17.590  0.00  0.00    +0.000 C 
ATOM      8  C   UNL     1       7.658   4.765  16.680  0.00  0.00    +0.000 C 
ATOM      9  O   UNL     1       7.693   5.102  15.286  0.00  0.00    +0.000 OA
ENDBRANCH   1   5
BRANCH   1  10
ATOM     10  C   UNL     1       3.299   5.613  18.253  0.00  0.00    +0.000 C 
ATOM     11  O   UNL     1       2.112   5.958  18.246  0.00  0.00    +0.000 OA
ATOM     12  N   UNL     1       3.728   4.420  18.801  0.00  0.00    +0.000 N 
ATOM     13  H   UNL     1       4.666   4.116  18.560  0.00  0.00    +0.000 HD
BRANCH  12  14
ATOM     14  C   UNL     1       2.774   3.471  19.332  0.00  0.00    +0.000 C 
ATOM     15  C   UNL     1       1.991   3.993  20.533  0.00  0.00    +0.000 C 
ATOM     16  C   UNL     1       0.816   3.026  20.634  0.00  0.00    +0.000 C 
ATOM     17  C   UNL     1       0.548   2.544  19.207  0.00  0.00    +0.000 C 
ATOM     18  C   UNL     1       1.673   3.111  18.344  0.00  0.00    +0.000 C 
ENDBRANCH  12  14
ENDBRANCH   1  10
TORSDOF 3
ENDMDL
