MODEL 1
REMARK VINA RESULT:      -9.1      0.000      0.000
REMARK  Name = 
REMARK  12 active torsions:
REMARK  status: ('A' for Active; 'I' for Inactive)
REMARK    1  A    between atoms: C_1  and  C_2
REMARK    2  A    between atoms: C_7  and  C_8
REMARK    3  A    between atoms: C_10  and  C_11
REMARK    4  A    between atoms: C_11  and  N_12
REMARK    5  A    between atoms: C_15  and  C_16
REMARK    6  A    between atoms: N_18  and  C_19
REMARK    7  A    between atoms: C_19  and  C_20
REMARK    8  A    between atoms: C_20  and  C_21
REMARK    9  A    between atoms: C_21  and  N_22
REMARK   10  A    between atoms: C_24  and  C_25
REMARK   11  A    between atoms: C_27  and  C_28
REMARK   12  A    between atoms: C_32  and  C_33
REMARK                            x       y       z     vdW  Elec       q    Type
REMARK                         _______ _______ _______ _____ _____    ______ ____
ROOT
ATOM      1  N   UNL     1       5.225   4.241  18.088  0.00  0.00    +0.000 NA
ATOM      2  C   UNL     1       6.067   4.479  16.901  0.00  0.00    +0.000 C 
ATOM      3  C   UNL     1       7.554   4.693  17.213  0.00  0.00    +0.000 C 
ATOM      4  C   UNL     1       7.820   5.731  18.306  0.00  0.00    +0.000 C 
ATOM      5  C   UNL     1       6.945   5.421  19.517  0.00  0.00    +0.000 C 
ATOM      6  C   UNL     1       5.474   5.230  19.153  0.00  0.00    +0.000 C 
ENDROOT
BRANCH   4   7
ATOM      7  C   UNL     1       7.693   7.185  17.823  0.00  0.00    +0.000 C 
ATOM      8  O   UNL     1       6.997   7.518  16.876  0.00  0.00    +0.000 OA
ATOM      9  N   UNL     1       8.474   8.070  18.539  0.00  0.00    +0.000 N 
ATOM     10  H   UNL     1       9.036   7.744  19.310  0.00  0.00    +0.000 HD
BRANCH   9  11
ATOM     11  C   UNL     1       8.529   9.497  18.248  0.00  0.00    +0.000 C 
BRANCH  11  12
ATOM     12  C   UNL     1       9.237  10.296  19.339  0.00  0.00    +0.000 C 
BRANCH  12  13
ATOM     13  C   UNL     1      10.391  11.171  18.818  0.00  0.00    +0.000 C 
BRANCH  13  14
ATOM     14  N   UNL     1      10.177  12.628  18.949  0.00  0.00    +0.000 NA
ATOM     15  C   UNL     1       8.901  13.035  18.337  0.00  0.00    +0.000 C 
ATOM     16  C   UNL     1       8.659  14.548  18.446  0.00  0.00    +0.000 C 
ATOM     17  C   UNL     1       7.305  14.904  17.832  0.00  0.00    +0.000 C 
ATOM     18  C   UNL     1       8.730  15.008  19.903  0.00  0.00    +0.000 C 
ATOM     19  C   UNL     1      10.026  14.527  20.563  0.00  0.00    +0.000 C 
ATOM     20  C   UNL     1      10.030  14.898  22.047  0.00  0.00    +0.000 C 
ATOM     21  C   UNL     1      10.205  13.011  20.376  0.00  0.00    +0.000 C 
ENDBRANCH  13  14
ENDBRANCH  12  13
ENDBRANCH  11  12
ENDBRANCH   9  11
ENDBRANCH   4   7
BRANCH   1  22
ATOM     22  C   UNL     1       3.780   4.318  17.720  0.00  0.00    +0.000 C 
BRANCH  22  25
ATOM     23  C   UNL     1       2.024   6.686  19.854  0.00  0.00    +0.000 A 
ATOM     24  N   UNL     1       2.765   6.303  18.831  0.00  0.00    +0.000 NA
ATOM     25  C   UNL     1       2.899   4.909  18.798  0.00  0.00    +0.000 A 
ATOM     26  C   UNL     1       2.270   4.264  19.847  0.00  0.00    +0.000 A 
ATOM     27  C   UNL     1       2.214   2.835  20.242  0.00  0.00    +0.000 C 
ATOM     28  S   UNL     1       1.433   5.391  20.821  0.00  0.00    +0.000 S 
BRANCH  23  35
ATOM     29  C   UNL     1       1.801   8.770  17.729  0.00  0.00    +0.000 C 
ATOM     30  C   UNL     1       1.455   9.048  19.173  0.00  0.00    +0.000 A 
ATOM     31  C   UNL     1       0.929  10.309  19.507  0.00  0.00    +0.000 A 
ATOM     32  C   UNL     1       0.544  10.602  20.815  0.00  0.00    +0.000 A 
ATOM     33  C   UNL     1       0.716   9.654  21.816  0.00  0.00    +0.000 A 
ATOM     34  C   UNL     1       1.253   8.411  21.503  0.00  0.00    +0.000 A 
ATOM     35  C   UNL     1       1.604   8.066  20.176  0.00  0.00    +0.000 A 
ENDBRANCH  23  35
ENDBRANCH  22  25
ENDBRANCH   1  22
TORSDOF 8
ENDMDL
MODEL 2
REMARK VINA RESULT:      -8.6      4.607      9.200
REMARK  Name = 
REMARK  12 active torsions:
REMARK  status: ('A' for Active; 'I' for Inactive)
REMARK    1  A    between atoms: C_1  and  C_2
REMARK    2  A    between atoms: C_7  and  C_8
REMARK    3  A    between atoms: C_10  and  C_11
REMARK    4  A    between atoms: C_11  and  N_12
REMARK    5  A    between atoms: C_15  and  C_16
REMARK    6  A    between atoms: N_18  and  C_19
REMARK    7  A    between atoms: C_19  and  C_20
REMARK    8  A    between atoms: C_20  and  C_21
REMARK    9  A    between atoms: C_21  and  N_22
REMARK   10  A    between atoms: C_24  and  C_25
REMARK   11  A    between atoms: C_27  and  C_28
REMARK   12  A    between atoms: C_32  and  C_33
REMARK                            x       y       z     vdW  Elec       q    Type
REMARK                         _______ _______ _______ _____ _____    ______ ____
ROOT
ATOM      1  N   UNL     1      -0.284  11.449  18.655  0.00  0.00    +0.000 NA
ATOM      2  C   UNL     1       1.101  11.482  19.162  0.00  0.00    +0.000 C 
ATOM      3  C   UNL     1       2.100  10.670  18.326  0.00  0.00    +0.000 C 
ATOM      4  C   UNL     1       1.646   9.239  18.028  0.00  0.00    +0.000 C 
ATOM      5  C   UNL     1       0.221   9.267  17.480  0.00  0.00    +0.000 C 
ATOM      6  C   UNL     1      -0.733  10.077  18.356  0.00  0.00    +0.000 C 
ENDROOT
BRANCH   4   7
ATOM      7  C   UNL     1       1.822   8.273  19.211  0.00  0.00    +0.000 C 
ATOM      8  O   UNL     1       1.612   8.591  20.371  0.00  0.00    +0.000 OA
ATOM      9  N   UNL     1       2.278   7.026  18.836  0.00  0.00    +0.000 N 
ATOM     10  H   UNL     1       2.440   6.813  17.864  0.00  0.00    +0.000 HD
BRANCH   9  11
ATOM     11  C   UNL     1       2.535   5.953  19.790  0.00  0.00    +0.000 C 
BRANCH  11  12
ATOM     12  C   UNL     1       2.220   4.571  19.224  0.00  0.00    +0.000 C 
BRANCH  12  13
ATOM     13  C   UNL     1       3.438   3.861  18.605  0.00  0.00    +0.000 C 
BRANCH  13  14
ATOM     14  N   UNL     1       4.395   4.752  17.916  0.00  0.00    +0.000 NA
ATOM     15  C   UNL     1       5.608   4.958  18.727  0.00  0.00    +0.000 C 
ATOM     16  C   UNL     1       6.615   5.892  18.041  0.00  0.00    +0.000 C 
ATOM     17  C   UNL     1       7.867   6.034  18.907  0.00  0.00    +0.000 C 
ATOM     18  C   UNL     1       6.978   5.377  16.647  0.00  0.00    +0.000 C 
ATOM     19  C   UNL     1       5.716   5.098  15.825  0.00  0.00    +0.000 C 
ATOM     20  C   UNL     1       6.091   4.477  14.479  0.00  0.00    +0.000 C 
ATOM     21  C   UNL     1       4.750   4.183  16.600  0.00  0.00    +0.000 C 
ENDBRANCH  13  14
ENDBRANCH  12  13
ENDBRANCH  11  12
ENDBRANCH   9  11
ENDBRANCH   4   7
BRANCH   1  22
ATOM     22  C   UNL     1      -1.218  12.028  19.665  0.00  0.00    +0.000 C 
BRANCH  22  25
ATOM     23  C   UNL     1      -0.318  15.528  19.226  0.00  0.00    +0.000 A 
ATOM     24  N   UNL     1      -0.492  14.271  18.860  0.00  0.00    +0.000 NA
ATOM     25  C   UNL     1      -1.025  13.509  19.907  0.00  0.00    +0.000 A 
ATOM     26  C   UNL     1      -1.208  14.221  21.078  0.00  0.00    +0.000 A 
ATOM     27  C   UNL     1      -1.667  13.811  22.427  0.00  0.00    +0.000 C 
ATOM     28  S   UNL     1      -0.803  15.864  20.842  0.00  0.00    +0.000 S 
BRANCH  23  35
ATOM     29  C   UNL     1       2.571  15.829  18.539  0.00  0.00    +0.000 C 
ATOM     30  C   UNL     1       1.512  16.769  18.011  0.00  0.00    +0.000 A 
ATOM     31  C   UNL     1       1.896  17.767  17.097  0.00  0.00    +0.000 A 
ATOM     32  C   UNL     1       0.951  18.628  16.538  0.00  0.00    +0.000 A 
ATOM     33  C   UNL     1      -0.383  18.532  16.915  0.00  0.00    +0.000 A 
ATOM     34  C   UNL     1      -0.772  17.563  17.833  0.00  0.00    +0.000 A 
ATOM     35  C   UNL     1       0.154  16.641  18.376  0.00  0.00    +0.000 A 
ENDBRANCH  23  35
ENDBRANCH  22  25
ENDBRANCH   1  22
TORSDOF 8
ENDMDL
MODEL 3
REMARK VINA RESULT:      -8.5      1.141      1.757
REMARK  Name = 
REMARK  12 active torsions:
REMARK  status: ('A' for Active; 'I' for Inactive)
REMARK    1  A    between atoms: C_1  and  C_2
REMARK    2  A    between atoms: C_7  and  C_8
REMARK    3  A    between atoms: C_10  and  C_11
REMARK    4  A    between atoms: C_11  and  N_12
REMARK    5  A    between atoms: C_15  and  C_16
REMARK    6  A    between atoms: N_18  and  C_19
REMARK    7  A    between atoms: C_19  and  C_20
REMARK    8  A    between atoms: C_20  and  C_21
REMARK    9  A    between atoms: C_21  and  N_22
REMARK   10  A    between atoms: C_24  and  C_25
REMARK   11  A    between atoms: C_27  and  C_28
REMARK   12  A    between atoms: C_32  and  C_33
REMARK                            x       y       z     vdW  Elec       q    Type
REMARK                         _______ _______ _______ _____ _____    ______ ____
ROOT
ATOM      1  N   UNL     1       5.107   4.043  18.032  0.00  0.00    +0.000 NA
ATOM      2  C   UNL     1       5.817   4.345  16.775  0.00  0.00    +0.000 C 
ATOM      3  C   UNL     1       7.317   4.624  16.948  0.00  0.00    +0.000 C 
ATOM      4  C   UNL     1       7.640   5.651  18.036  0.00  0.00    +0.000 C 
ATOM      5  C   UNL     1       6.904   5.273  19.318  0.00  0.00    +0.000 C 
ATOM      6  C   UNL     1       5.414   5.020  19.093  0.00  0.00    +0.000 C 
ENDROOT
BRANCH   4   7
ATOM      7  C   UNL     1       7.401   7.107  17.605  0.00  0.00    +0.000 C 
ATOM      8  O   UNL     1       6.564   7.431  16.777  0.00  0.00    +0.000 OA
ATOM      9  N   UNL     1       8.251   8.006  18.216  0.00  0.00    +0.000 N 
ATOM     10  H   UNL     1       8.930   7.687  18.890  0.00  0.00    +0.000 HD
BRANCH   9  11
ATOM     11  C   UNL     1       8.220   9.438  17.948  0.00  0.00    +0.000 C 
BRANCH  11  12
ATOM     12  C   UNL     1       9.172  10.227  18.843  0.00  0.00    +0.000 C 
BRANCH  12  13
ATOM     13  C   UNL     1      10.010  11.275  18.087  0.00  0.00    +0.000 C 
BRANCH  13  14
ATOM     14  N   UNL     1      10.666  12.285  18.944  0.00  0.00    +0.000 NA
ATOM     15  C   UNL     1      11.063  13.469  18.163  0.00  0.00    +0.000 C 
ATOM     16  C   UNL     1      11.762  14.529  19.027  0.00  0.00    +0.000 C 
ATOM     17  C   UNL     1      12.113  15.747  18.172  0.00  0.00    +0.000 C 
ATOM     18  C   UNL     1      10.882  14.935  20.211  0.00  0.00    +0.000 C 
ATOM     19  C   UNL     1      10.411  13.700  20.986  0.00  0.00    +0.000 C 
ATOM     20  C   UNL     1       9.443  14.113  22.096  0.00  0.00    +0.000 C 
ATOM     21  C   UNL     1       9.756  12.678  20.040  0.00  0.00    +0.000 C 
ENDBRANCH  13  14
ENDBRANCH  12  13
ENDBRANCH  11  12
ENDBRANCH   9  11
ENDBRANCH   4   7
BRANCH   1  22
ATOM     22  C   UNL     1       3.631   4.058  17.808  0.00  0.00    +0.000 C 
BRANCH  22  25
ATOM     23  C   UNL     1       2.117   7.053  19.217  0.00  0.00    +0.000 A 
ATOM     24  N   UNL     1       2.736   6.329  18.303  0.00  0.00    +0.000 NA
ATOM     25  C   UNL     1       2.878   5.000  18.720  0.00  0.00    +0.000 A 
ATOM     26  C   UNL     1       2.382   4.758  19.988  0.00  0.00    +0.000 A 
ATOM     27  C   UNL     1       2.385   3.543  20.840  0.00  0.00    +0.000 C 
ATOM     28  S   UNL     1       1.655   6.170  20.620  0.00  0.00    +0.000 S 
BRANCH  23  35
ATOM     29  C   UNL     1       0.629   8.420  21.414  0.00  0.00    +0.000 C 
ATOM     30  C   UNL     1       1.058   9.141  20.157  0.00  0.00    +0.000 A 
ATOM     31  C   UNL     1       0.821  10.524  20.063  0.00  0.00    +0.000 A 
ATOM     32  C   UNL     1       1.243  11.249  18.948  0.00  0.00    +0.000 A 
ATOM     33  C   UNL     1       1.871  10.595  17.894  0.00  0.00    +0.000 A 
ATOM     34  C   UNL     1       2.094   9.226  17.967  0.00  0.00    +0.000 A 
ATOM     35  C   UNL     1       1.725   8.473  19.107  0.00  0.00    +0.000 A 
ENDBRANCH  23  35
ENDBRANCH  22  25
ENDBRANCH   1  22
TORSDOF 8
ENDMDL
MODEL 4
REMARK VINA RESULT:      -8.5      1.167      1.751
REMARK  Name = 
REMARK  12 active torsions:
REMARK  status: ('A' for Active; 'I' for Inactive)
REMARK    1  A    between atoms: C_1  and  C_2
REMARK    2  A    between atoms: C_7  and  C_8
REMARK    3  A    between atoms: C_10  and  C_11
REMARK    4  A    between atoms: C_11  and  N_12
REMARK    5  A    between atoms: C_15  and  C_16
REMARK    6  A    between atoms: N_18  and  C_19
REMARK    7  A    between atoms: C_19  and  C_20
REMARK    8  A    between atoms: C_20  and  C_21
REMARK    9  A    between atoms: C_21  and  N_22
REMARK   10  A    between atoms: C_24  and  C_25
REMARK   11  A    between atoms: C_27  and  C_28
REMARK   12  A    between atoms: C_32  and  C_33
REMARK                            x       y       z     vdW  Elec       q    Type
REMARK                         _______ _______ _______ _____ _____    ______ ____
ROOT
ATOM      1  N   UNL     1       5.273   4.400  17.891  0.00  0.00    +0.000 NA
ATOM      2  C   UNL     1       6.042   4.747  16.681  0.00  0.00    +0.000 C 
ATOM      3  C   UNL     1       7.537   4.990  16.930  0.00  0.00    +0.000 C 
ATOM      4  C   UNL     1       7.829   5.960  18.078  0.00  0.00    +0.000 C 
ATOM      5  C   UNL     1       7.032   5.537  19.309  0.00  0.00    +0.000 C 
ATOM      6  C   UNL     1       5.549   5.322  19.008  0.00  0.00    +0.000 C 
ENDROOT
BRANCH   4   7
ATOM      7  C   UNL     1       7.632   7.438  17.706  0.00  0.00    +0.000 C 
ATOM      8  O   UNL     1       6.921   7.807  16.785  0.00  0.00    +0.000 OA
ATOM      9  N   UNL     1       8.370   8.303  18.489  0.00  0.00    +0.000 N 
ATOM     10  H   UNL     1       8.947   7.948  19.235  0.00  0.00    +0.000 HD
BRANCH   9  11
ATOM     11  C   UNL     1       8.355   9.749  18.307  0.00  0.00    +0.000 C 
BRANCH  11  12
ATOM     12  C   UNL     1       9.754  10.338  18.147  0.00  0.00    +0.000 C 
BRANCH  12  13
ATOM     13  C   UNL     1      10.229  11.151  19.365  0.00  0.00    +0.000 C 
BRANCH  13  14
ATOM     14  N   UNL     1       9.154  11.837  20.114  0.00  0.00    +0.000 NA
ATOM     15  C   UNL     1       9.155  11.436  21.532  0.00  0.00    +0.000 C 
ATOM     16  C   UNL     1       8.038  12.123  22.331  0.00  0.00    +0.000 C 
ATOM     17  C   UNL     1       8.114  11.701  23.799  0.00  0.00    +0.000 C 
ATOM     18  C   UNL     1       8.129  13.644  22.201  0.00  0.00    +0.000 C 
ATOM     19  C   UNL     1       8.198  14.060  20.727  0.00  0.00    +0.000 C 
ATOM     20  C   UNL     1       8.402  15.572  20.616  0.00  0.00    +0.000 C 
ATOM     21  C   UNL     1       9.319  13.300  19.997  0.00  0.00    +0.000 C 
ENDBRANCH  13  14
ENDBRANCH  12  13
ENDBRANCH  11  12
ENDBRANCH   9  11
ENDBRANCH   4   7
BRANCH   1  22
ATOM     22  C   UNL     1       3.809   4.451  17.605  0.00  0.00    +0.000 C 
BRANCH  22  25
ATOM     23  C   UNL     1       2.083   6.739  19.849  0.00  0.00    +0.000 A 
ATOM     24  N   UNL     1       2.768   6.387  18.777  0.00  0.00    +0.000 NA
ATOM     25  C   UNL     1       2.977   5.003  18.741  0.00  0.00    +0.000 A 
ATOM     26  C   UNL     1       2.463   4.333  19.836  0.00  0.00    +0.000 A 
ATOM     27  C   UNL     1       2.515   2.908  20.241  0.00  0.00    +0.000 C 
ATOM     28  S   UNL     1       1.637   5.422  20.863  0.00  0.00    +0.000 S 
BRANCH  23  35
ATOM     29  C   UNL     1       1.719   8.829  17.749  0.00  0.00    +0.000 C 
ATOM     30  C   UNL     1       1.396   9.079  19.204  0.00  0.00    +0.000 A 
ATOM     31  C   UNL     1       0.824  10.313  19.562  0.00  0.00    +0.000 A 
ATOM     32  C   UNL     1       0.458  10.578  20.882  0.00  0.00    +0.000 A 
ATOM     33  C   UNL     1       0.695   9.629  21.870  0.00  0.00    +0.000 A 
ATOM     34  C   UNL     1       1.278   8.414  21.532  0.00  0.00    +0.000 A 
ATOM     35  C   UNL     1       1.611   8.096  20.194  0.00  0.00    +0.000 A 
ENDBRANCH  23  35
ENDBRANCH  22  25
ENDBRANCH   1  22
TORSDOF 8
ENDMDL
MODEL 5
REMARK VINA RESULT:      -8.5      5.063      8.068
REMARK  Name = 
REMARK  12 active torsions:
REMARK  status: ('A' for Active; 'I' for Inactive)
REMARK    1  A    between atoms: C_1  and  C_2
REMARK    2  A    between atoms: C_7  and  C_8
REMARK    3  A    between atoms: C_10  and  C_11
REMARK    4  A    between atoms: C_11  and  N_12
REMARK    5  A    between atoms: C_15  and  C_16
REMARK    6  A    between atoms: N_18  and  C_19
REMARK    7  A    between atoms: C_19  and  C_20
REMARK    8  A    between atoms: C_20  and  C_21
REMARK    9  A    between atoms: C_21  and  N_22
REMARK   10  A    between atoms: C_24  and  C_25
REMARK   11  A    between atoms: C_27  and  C_28
REMARK   12  A    between atoms: C_32  and  C_33
REMARK                            x       y       z     vdW  Elec       q    Type
REMARK                         _______ _______ _______ _____ _____    ______ ____
ROOT
ATOM      1  N   UNL     1       1.161   9.264  18.637  0.00  0.00    +0.000 NA
ATOM      2  C   UNL     1       0.648   8.718  19.907  0.00  0.00    +0.000 C 
ATOM      3  C   UNL     1       1.698   7.979  20.747  0.00  0.00    +0.000 C 
ATOM      4  C   UNL     1       2.498   6.932  19.968  0.00  0.00    +0.000 C 
ATOM      5  C   UNL     1       3.028   7.559  18.682  0.00  0.00    +0.000 C 
ATOM      6  C   UNL     1       1.940   8.269  17.877  0.00  0.00    +0.000 C 
ENDROOT
BRANCH   4   7
ATOM      7  C   UNL     1       1.735   5.618  19.733  0.00  0.00    +0.000 C 
ATOM      8  O   UNL     1       0.933   5.158  20.531  0.00  0.00    +0.000 OA
ATOM      9  N   UNL     1       2.076   4.990  18.553  0.00  0.00    +0.000 N 
ATOM     10  H   UNL     1       2.749   5.409  17.929  0.00  0.00    +0.000 HD
BRANCH   9  11
ATOM     11  C   UNL     1       1.495   3.722  18.130  0.00  0.00    +0.000 C 
BRANCH  11  12
ATOM     12  C   UNL     1       2.509   2.804  17.452  0.00  0.00    +0.000 C 
BRANCH  12  13
ATOM     13  C   UNL     1       3.932   2.918  18.030  0.00  0.00    +0.000 C 
BRANCH  13  14
ATOM     14  N   UNL     1       4.700   4.093  17.568  0.00  0.00    +0.000 NA
ATOM     15  C   UNL     1       5.777   4.431  18.515  0.00  0.00    +0.000 C 
ATOM     16  C   UNL     1       6.582   5.659  18.066  0.00  0.00    +0.000 C 
ATOM     17  C   UNL     1       7.708   5.935  19.063  0.00  0.00    +0.000 C 
ATOM     18  C   UNL     1       7.145   5.458  16.658  0.00  0.00    +0.000 C 
ATOM     19  C   UNL     1       6.038   5.040  15.684  0.00  0.00    +0.000 C 
ATOM     20  C   UNL     1       6.634   4.734  14.310  0.00  0.00    +0.000 C 
ATOM     21  C   UNL     1       5.262   3.828  16.227  0.00  0.00    +0.000 C 
ENDBRANCH  13  14
ENDBRANCH  12  13
ENDBRANCH  11  12
ENDBRANCH   9  11
ENDBRANCH   4   7
BRANCH   1  22
ATOM     22  C   UNL     1       0.030   9.717  17.774  0.00  0.00    +0.000 C 
BRANCH  22  25
ATOM     23  C   UNL     1      -1.354  12.247  19.996  0.00  0.00    +0.000 A 
ATOM     24  N   UNL     1      -0.403  11.521  19.436  0.00  0.00    +0.000 NA
ATOM     25  C   UNL     1      -0.928  10.665  18.459  0.00  0.00    +0.000 A 
ATOM     26  C   UNL     1      -2.302  10.744  18.331  0.00  0.00    +0.000 A 
ATOM     27  C   UNL     1      -3.265   9.987  17.494  0.00  0.00    +0.000 C 
ATOM     28  S   UNL     1      -2.927  11.953  19.364  0.00  0.00    +0.000 S 
BRANCH  23  35
ATOM     29  C   UNL     1      -1.624  11.654  22.909  0.00  0.00    +0.000 C 
ATOM     30  C   UNL     1      -1.264  13.028  22.392  0.00  0.00    +0.000 A 
ATOM     31  C   UNL     1      -0.962  14.037  23.325  0.00  0.00    +0.000 A 
ATOM     32  C   UNL     1      -0.572  15.309  22.904  0.00  0.00    +0.000 A 
ATOM     33  C   UNL     1      -0.517  15.602  21.546  0.00  0.00    +0.000 A 
ATOM     34  C   UNL     1      -0.832  14.619  20.615  0.00  0.00    +0.000 A 
ATOM     35  C   UNL     1      -1.179  13.306  21.011  0.00  0.00    +0.000 A 
ENDBRANCH  23  35
ENDBRANCH  22  25
ENDBRANCH   1  22
TORSDOF 8
ENDMDL
MODEL 6
REMARK VINA RESULT:      -8.5      4.903      8.412
REMARK  Name = 
REMARK  12 active torsions:
REMARK  status: ('A' for Active; 'I' for Inactive)
REMARK    1  A    between atoms: C_1  and  C_2
REMARK    2  A    between atoms: C_7  and  C_8
REMARK    3  A    between atoms: C_10  and  C_11
REMARK    4  A    between atoms: C_11  and  N_12
REMARK    5  A    between atoms: C_15  and  C_16
REMARK    6  A    between atoms: N_18  and  C_19
REMARK    7  A    between atoms: C_19  and  C_20
REMARK    8  A    between atoms: C_20  and  C_21
REMARK    9  A    between atoms: C_21  and  N_22
REMARK   10  A    between atoms: C_24  and  C_25
REMARK   11  A    between atoms: C_27  and  C_28
REMARK   12  A    between atoms: C_32  and  C_33
REMARK                            x       y       z     vdW  Elec       q    Type
REMARK                         _______ _______ _______ _____ _____    ______ ____
ROOT
ATOM      1  N   UNL     1       1.095   9.522  18.994  0.00  0.00    +0.000 NA
ATOM      2  C   UNL     1       0.898   8.544  20.081  0.00  0.00    +0.000 C 
ATOM      3  C   UNL     1       2.135   7.692  20.396  0.00  0.00    +0.000 C 
ATOM      4  C   UNL     1       2.777   7.043  19.167  0.00  0.00    +0.000 C 
ATOM      5  C   UNL     1       2.983   8.104  18.089  0.00  0.00    +0.000 C 
ATOM      6  C   UNL     1       1.719   8.913  17.805  0.00  0.00    +0.000 C 
ENDROOT
BRANCH   4   7
ATOM      7  C   UNL     1       2.027   5.801  18.660  0.00  0.00    +0.000 C 
ATOM      8  O   UNL     1       1.455   5.759  17.582  0.00  0.00    +0.000 OA
ATOM      9  N   UNL     1       2.031   4.754  19.559  0.00  0.00    +0.000 N 
ATOM     10  H   UNL     1       2.515   4.840  20.439  0.00  0.00    +0.000 HD
BRANCH   9  11
ATOM     11  C   UNL     1       1.368   3.481  19.300  0.00  0.00    +0.000 C 
BRANCH  11  12
ATOM     12  C   UNL     1       2.226   2.526  18.474  0.00  0.00    +0.000 C 
BRANCH  12  13
ATOM     13  C   UNL     1       3.736   2.655  18.745  0.00  0.00    +0.000 C 
BRANCH  13  14
ATOM     14  N   UNL     1       4.379   3.838  18.135  0.00  0.00    +0.000 NA
ATOM     15  C   UNL     1       5.609   4.206  18.858  0.00  0.00    +0.000 C 
ATOM     16  C   UNL     1       6.292   5.442  18.253  0.00  0.00    +0.000 C 
ATOM     17  C   UNL     1       7.580   5.750  19.017  0.00  0.00    +0.000 C 
ATOM     18  C   UNL     1       6.582   5.233  16.766  0.00  0.00    +0.000 C 
ATOM     19  C   UNL     1       5.318   4.784  16.024  0.00  0.00    +0.000 C 
ATOM     20  C   UNL     1       5.649   4.471  14.564  0.00  0.00    +0.000 C 
ATOM     21  C   UNL     1       4.683   3.565  16.715  0.00  0.00    +0.000 C 
ENDBRANCH  13  14
ENDBRANCH  12  13
ENDBRANCH  11  12
ENDBRANCH   9  11
ENDBRANCH   4   7
BRANCH   1  22
ATOM     22  C   UNL     1      -0.215  10.103  18.578  0.00  0.00    +0.000 C 
BRANCH  22  25
ATOM     23  C   UNL     1      -2.011  12.375  20.784  0.00  0.00    +0.000 A 
ATOM     24  N   UNL     1      -1.727  11.218  20.214  0.00  0.00    +0.000 NA
ATOM     25  C   UNL     1      -0.623  11.331  19.360  0.00  0.00    +0.000 A 
ATOM     26  C   UNL     1      -0.112  12.614  19.278  0.00  0.00    +0.000 A 
ATOM     27  C   UNL     1       0.980  13.196  18.460  0.00  0.00    +0.000 C 
ATOM     28  S   UNL     1      -0.953  13.657  20.338  0.00  0.00    +0.000 S 
BRANCH  23  35
ATOM     29  C   UNL     1      -4.821  12.976  19.978  0.00  0.00    +0.000 C 
ATOM     30  C   UNL     1      -4.398  12.876  21.425  0.00  0.00    +0.000 A 
ATOM     31  C   UNL     1      -5.385  12.987  22.422  0.00  0.00    +0.000 A 
ATOM     32  C   UNL     1      -5.059  12.850  23.771  0.00  0.00    +0.000 A 
ATOM     33  C   UNL     1      -3.737  12.642  24.147  0.00  0.00    +0.000 A 
ATOM     34  C   UNL     1      -2.750  12.551  23.173  0.00  0.00    +0.000 A 
ATOM     35  C   UNL     1      -3.058  12.632  21.794  0.00  0.00    +0.000 A 
ENDBRANCH  23  35
ENDBRANCH  22  25
ENDBRANCH   1  22
TORSDOF 8
ENDMDL
MODEL 7
REMARK VINA RESULT:      -8.5      4.825      8.327
REMARK  Name = 
REMARK  12 active torsions:
REMARK  status: ('A' for Active; 'I' for Inactive)
REMARK    1  A    between atoms: C_1  and  C_2
REMARK    2  A    between atoms: C_7  and  C_8
REMARK    3  A    between atoms: C_10  and  C_11
REMARK    4  A    between atoms: C_11  and  N_12
REMARK    5  A    between atoms: C_15  and  C_16
REMARK    6  A    between atoms: N_18  and  C_19
REMARK    7  A    between atoms: C_19  and  C_20
REMARK    8  A    between atoms: C_20  and  C_21
REMARK    9  A    between atoms: C_21  and  N_22
REMARK   10  A    between atoms: C_24  and  C_25
REMARK   11  A    between atoms: C_27  and  C_28
REMARK   12  A    between atoms: C_32  and  C_33
REMARK                            x       y       z     vdW  Elec       q    Type
REMARK                         _______ _______ _______ _____ _____    ______ ____
ROOT
ATOM      1  N   UNL     1       1.150   9.461  18.700  0.00  0.00    +0.000 NA
ATOM      2  C   UNL     1       0.807   8.807  19.977  0.00  0.00    +0.000 C 
ATOM      3  C   UNL     1       1.970   8.046  20.629  0.00  0.00    +0.000 C 
ATOM      4  C   UNL     1       2.697   7.086  19.683  0.00  0.00    +0.000 C 
ATOM      5  C   UNL     1       3.051   7.823  18.395  0.00  0.00    +0.000 C 
ATOM      6  C   UNL     1       1.856   8.551  17.781  0.00  0.00    +0.000 C 
ENDROOT
BRANCH   4   7
ATOM      7  C   UNL     1       1.945   5.767  19.441  0.00  0.00    +0.000 C 
ATOM      8  O   UNL     1       1.290   5.202  20.303  0.00  0.00    +0.000 OA
ATOM      9  N   UNL     1       2.118   5.264  18.168  0.00  0.00    +0.000 N 
ATOM     10  H   UNL     1       2.673   5.767  17.493  0.00  0.00    +0.000 HD
BRANCH   9  11
ATOM     11  C   UNL     1       1.515   4.016  17.717  0.00  0.00    +0.000 C 
BRANCH  11  12
ATOM     12  C   UNL     1       2.537   2.894  17.547  0.00  0.00    +0.000 C 
BRANCH  12  13
ATOM     13  C   UNL     1       3.743   3.004  18.498  0.00  0.00    +0.000 C 
BRANCH  13  14
ATOM     14  N   UNL     1       5.016   3.380  17.848  0.00  0.00    +0.000 NA
ATOM     15  C   UNL     1       4.828   3.619  16.407  0.00  0.00    +0.000 C 
ATOM     16  C   UNL     1       6.139   3.997  15.703  0.00  0.00    +0.000 C 
ATOM     17  C   UNL     1       5.874   4.273  14.223  0.00  0.00    +0.000 C 
ATOM     18  C   UNL     1       6.787   5.211  16.371  0.00  0.00    +0.000 C 
ATOM     19  C   UNL     1       6.923   4.993  17.882  0.00  0.00    +0.000 C 
ATOM     20  C   UNL     1       7.466   6.256  18.550  0.00  0.00    +0.000 C 
ATOM     21  C   UNL     1       5.573   4.585  18.498  0.00  0.00    +0.000 C 
ENDBRANCH  13  14
ENDBRANCH  12  13
ENDBRANCH  11  12
ENDBRANCH   9  11
ENDBRANCH   4   7
BRANCH   1  22
ATOM     22  C   UNL     1      -0.089   9.935  18.015  0.00  0.00    +0.000 C 
BRANCH  22  25
ATOM     23  C   UNL     1      -2.531  12.184  19.508  0.00  0.00    +0.000 A 
ATOM     24  N   UNL     1      -2.084  11.045  19.011  0.00  0.00    +0.000 NA
ATOM     25  C   UNL     1      -0.731  11.141  18.663  0.00  0.00    +0.000 A 
ATOM     26  C   UNL     1      -0.188  12.395  18.877  0.00  0.00    +0.000 A 
ATOM     27  C   UNL     1       1.154  12.957  18.591  0.00  0.00    +0.000 C 
ATOM     28  S   UNL     1      -1.344  13.426  19.600  0.00  0.00    +0.000 S 
BRANCH  23  35
ATOM     29  C   UNL     1      -4.954  11.992  17.774  0.00  0.00    +0.000 C 
ATOM     30  C   UNL     1      -5.037  12.317  19.247  0.00  0.00    +0.000 A 
ATOM     31  C   UNL     1      -6.308  12.449  19.835  0.00  0.00    +0.000 A 
ATOM     32  C   UNL     1      -6.444  12.696  21.201  0.00  0.00    +0.000 A 
ATOM     33  C   UNL     1      -5.313  12.857  21.992  0.00  0.00    +0.000 A 
ATOM     34  C   UNL     1      -4.051  12.749  21.420  0.00  0.00    +0.000 A 
ATOM     35  C   UNL     1      -3.881  12.446  20.048  0.00  0.00    +0.000 A 
ENDBRANCH  23  35
ENDBRANCH  22  25
ENDBRANCH   1  22
TORSDOF 8
ENDMDL
MODEL 8
REMARK VINA RESULT:      -8.4      4.998      8.428
REMARK  Name = 
REMARK  12 active torsions:
REMARK  status: ('A' for Active; 'I' for Inactive)
REMARK    1  A    between atoms: C_1  and  C_2
REMARK    2  A    between atoms: C_7  and  C_8
REMARK    3  A    between atoms: C_10  and  C_11
REMARK    4  A    between atoms: C_11  and  N_12
REMARK    5  A    between atoms: C_15  and  C_16
REMARK    6  A    between atoms: N_18  and  C_19
REMARK    7  A    between atoms: C_19  and  C_20
REMARK    8  A    between atoms: C_20  and  C_21
REMARK    9  A    between atoms: C_21  and  N_22
REMARK   10  A    between atoms: C_24  and  C_25
REMARK   11  A    between atoms: C_27  and  C_28
REMARK   12  A    between atoms: C_32  and  C_33
REMARK                            x       y       z     vdW  Elec       q    Type
REMARK                         _______ _______ _______ _____ _____    ______ ____
ROOT
ATOM      1  N   UNL     1       1.123   9.491  18.720  0.00  0.00    +0.000 NA
ATOM      2  C   UNL     1       0.821   8.852  20.015  0.00  0.00    +0.000 C 
ATOM      3  C   UNL     1       2.000   8.088  20.633  0.00  0.00    +0.000 C 
ATOM      4  C   UNL     1       2.685   7.112  19.673  0.00  0.00    +0.000 C 
ATOM      5  C   UNL     1       3.000   7.833  18.365  0.00  0.00    +0.000 C 
ATOM      6  C   UNL     1       1.790   8.565  17.786  0.00  0.00    +0.000 C 
ENDROOT
BRANCH   4   7
ATOM      7  C   UNL     1       1.915   5.797  19.471  0.00  0.00    +0.000 C 
ATOM      8  O   UNL     1       1.179   5.316  20.318  0.00  0.00    +0.000 OA
ATOM      9  N   UNL     1       2.170   5.195  18.256  0.00  0.00    +0.000 N 
ATOM     10  H   UNL     1       2.791   5.630  17.592  0.00  0.00    +0.000 HD
BRANCH   9  11
ATOM     11  C   UNL     1       1.566   3.930  17.854  0.00  0.00    +0.000 C 
BRANCH  11  12
ATOM     12  C   UNL     1       2.365   2.718  18.326  0.00  0.00    +0.000 C 
BRANCH  12  13
ATOM     13  C   UNL     1       3.704   2.531  17.589  0.00  0.00    +0.000 C 
BRANCH  13  14
ATOM     14  N   UNL     1       4.455   3.778  17.336  0.00  0.00    +0.000 NA
ATOM     15  C   UNL     1       5.376   4.079  18.446  0.00  0.00    +0.000 C 
ATOM     16  C   UNL     1       6.160   5.379  18.216  0.00  0.00    +0.000 C 
ATOM     17  C   UNL     1       7.127   5.616  19.376  0.00  0.00    +0.000 C 
ATOM     18  C   UNL     1       6.915   5.334  16.886  0.00  0.00    +0.000 C 
ATOM     19  C   UNL     1       5.972   4.955  15.739  0.00  0.00    +0.000 C 
ATOM     20  C   UNL     1       6.761   4.804  14.437  0.00  0.00    +0.000 C 
ATOM     21  C   UNL     1       5.204   3.663  16.067  0.00  0.00    +0.000 C 
ENDBRANCH  13  14
ENDBRANCH  12  13
ENDBRANCH  11  12
ENDBRANCH   9  11
ENDBRANCH   4   7
BRANCH   1  22
ATOM     22  C   UNL     1      -0.134   9.968  18.073  0.00  0.00    +0.000 C 
BRANCH  22  25
ATOM     23  C   UNL     1      -2.492  12.247  19.653  0.00  0.00    +0.000 A 
ATOM     24  N   UNL     1      -2.070  11.097  19.160  0.00  0.00    +0.000 NA
ATOM     25  C   UNL     1      -0.741  11.188  18.729  0.00  0.00    +0.000 A 
ATOM     26  C   UNL     1      -0.193  12.449  18.877  0.00  0.00    +0.000 A 
ATOM     27  C   UNL     1       1.128  13.007  18.496  0.00  0.00    +0.000 C 
ATOM     28  S   UNL     1      -1.307  13.494  19.642  0.00  0.00    +0.000 S 
BRANCH  23  35
ATOM     29  C   UNL     1      -5.015  11.990  18.079  0.00  0.00    +0.000 C 
ATOM     30  C   UNL     1      -5.010  12.360  19.544  0.00  0.00    +0.000 A 
ATOM     31  C   UNL     1      -6.243  12.503  20.205  0.00  0.00    +0.000 A 
ATOM     32  C   UNL     1      -6.297  12.792  21.568  0.00  0.00    +0.000 A 
ATOM     33  C   UNL     1      -5.120  12.982  22.283  0.00  0.00    +0.000 A 
ATOM     34  C   UNL     1      -3.895  12.863  21.638  0.00  0.00    +0.000 A 
ATOM     35  C   UNL     1      -3.808  12.518  20.268  0.00  0.00    +0.000 A 
ENDBRANCH  23  35
ENDBRANCH  22  25
ENDBRANCH   1  22
TORSDOF 8
ENDMDL
MODEL 9
REMARK VINA RESULT:      -8.3      1.323      2.253
REMARK  Name = 
REMARK  12 active torsions:
REMARK  status: ('A' for Active; 'I' for Inactive)
REMARK    1  A    between atoms: C_1  and  C_2
REMARK    2  A    between atoms: C_7  and  C_8
REMARK    3  A    between atoms: C_10  and  C_11
REMARK    4  A    between atoms: C_11  and  N_12
REMARK    5  A    between atoms: C_15  and  C_16
REMARK    6  A    between atoms: N_18  and  C_19
REMARK    7  A    between atoms: C_19  and  C_20
REMARK    8  A    between atoms: C_20  and  C_21
REMARK    9  A    between atoms: C_21  and  N_22
REMARK   10  A    between atoms: C_24  and  C_25
REMARK   11  A    between atoms: C_27  and  C_28
REMARK   12  A    between atoms: C_32  and  C_33
REMARK                            x       y       z     vdW  Elec       q    Type
REMARK                         _______ _______ _______ _____ _____    ______ ____
ROOT
ATOM      1  N   UNL     1       5.560   3.763  18.695  0.00  0.00    +0.000 NA
ATOM      2  C   UNL     1       4.734   4.387  17.644  0.00  0.00    +0.000 C 
ATOM      3  C   UNL     1       5.497   4.718  16.354  0.00  0.00    +0.000 C 
ATOM      4  C   UNL     1       6.798   5.493  16.579  0.00  0.00    +0.000 C 
ATOM      5  C   UNL     1       7.623   4.789  17.652  0.00  0.00    +0.000 C 
ATOM      6  C   UNL     1       6.820   4.495  18.919  0.00  0.00    +0.000 C 
ENDROOT
BRANCH   4   7
ATOM      7  C   UNL     1       6.587   6.990  16.860  0.00  0.00    +0.000 C 
ATOM      8  O   UNL     1       5.526   7.563  16.673  0.00  0.00    +0.000 OA
ATOM      9  N   UNL     1       7.727   7.628  17.306  0.00  0.00    +0.000 N 
ATOM     10  H   UNL     1       8.581   7.111  17.440  0.00  0.00    +0.000 HD
BRANCH   9  11
ATOM     11  C   UNL     1       7.769   9.052  17.619  0.00  0.00    +0.000 C 
BRANCH  11  12
ATOM     12  C   UNL     1       8.768   9.383  18.725  0.00  0.00    +0.000 C 
BRANCH  12  13
ATOM     13  C   UNL     1       9.615  10.637  18.441  0.00  0.00    +0.000 C 
BRANCH  13  14
ATOM     14  N   UNL     1       9.334  11.792  19.319  0.00  0.00    +0.000 NA
ATOM     15  C   UNL     1       9.122  11.362  20.712  0.00  0.00    +0.000 C 
ATOM     16  C   UNL     1       8.813  12.542  21.645  0.00  0.00    +0.000 C 
ATOM     17  C   UNL     1       8.644  12.040  23.079  0.00  0.00    +0.000 C 
ATOM     18  C   UNL     1       9.914  13.601  21.569  0.00  0.00    +0.000 C 
ATOM     19  C   UNL     1      10.184  14.001  20.115  0.00  0.00    +0.000 C 
ATOM     20  C   UNL     1      11.362  14.974  20.047  0.00  0.00    +0.000 C 
ATOM     21  C   UNL     1      10.449  12.758  19.247  0.00  0.00    +0.000 C 
ENDBRANCH  13  14
ENDBRANCH  12  13
ENDBRANCH  11  12
ENDBRANCH   9  11
ENDBRANCH   4   7
BRANCH   1  22
ATOM     22  C   UNL     1       4.813   3.731  19.987  0.00  0.00    +0.000 C 
BRANCH  22  25
ATOM     23  C   UNL     1       2.288   6.334  19.681  0.00  0.00    +0.000 A 
ATOM     24  N   UNL     1       3.499   5.813  19.612  0.00  0.00    +0.000 NA
ATOM     25  C   UNL     1       3.487   4.455  19.952  0.00  0.00    +0.000 A 
ATOM     26  C   UNL     1       2.238   3.984  20.316  0.00  0.00    +0.000 A 
ATOM     27  C   UNL     1       1.782   2.661  20.810  0.00  0.00    +0.000 C 
ATOM     28  S   UNL     1       1.066   5.214  20.142  0.00  0.00    +0.000 S 
BRANCH  23  35
ATOM     29  C   UNL     1       1.042   8.150  21.696  0.00  0.00    +0.000 C 
ATOM     30  C   UNL     1       1.344   8.594  20.284  0.00  0.00    +0.000 A 
ATOM     31  C   UNL     1       1.105   9.937  19.937  0.00  0.00    +0.000 A 
ATOM     32  C   UNL     1       1.414  10.414  18.663  0.00  0.00    +0.000 A 
ATOM     33  C   UNL     1       1.927   9.547  17.705  0.00  0.00    +0.000 A 
ATOM     34  C   UNL     1       2.148   8.214  18.029  0.00  0.00    +0.000 A 
ATOM     35  C   UNL     1       1.895   7.714  19.328  0.00  0.00    +0.000 A 
ENDBRANCH  23  35
ENDBRANCH  22  25
ENDBRANCH   1  22
TORSDOF 8
ENDMDL
