MODEL 1
REMARK VINA RESULT:      -8.3      0.000      0.000
REMARK  Name = 
REMARK  8 active torsions:
REMARK  status: ('A' for Active; 'I' for Inactive)
REMARK    1  A    between atoms: C_1  and  C_2
REMARK    2  A    between atoms: C_2  and  C_3
REMARK    3  A    between atoms: C_2  and  C_4
REMARK    4  A    between atoms: C_8  and  N_9
REMARK    5  A    between atoms: N_9  and  C_10
REMARK    6  A    between atoms: C_13  and  N_14
REMARK    7  A    between atoms: N_24  and  C_25
REMARK    8  A    between atoms: C_30  and  C_31
REMARK                            x       y       z     vdW  Elec       q    Type
REMARK                         _______ _______ _______ _____ _____    ______ ____
ROOT
ATOM      1  C   UNL     1      -2.429  11.348  17.397  0.00  0.00    +0.000 A 
ATOM      2  N   UNL     1      -3.274  11.769  18.351  0.00  0.00    +0.000 NA
ATOM      3  C   UNL     1      -2.755  12.007  19.567  0.00  0.00    +0.000 A 
ATOM      4  C   UNL     1      -1.411  11.841  19.864  0.00  0.00    +0.000 A 
ATOM      5  C   UNL     1      -0.620  11.351  18.828  0.00  0.00    +0.000 A 
ATOM      6  N   UNL     1      -1.123  11.117  17.599  0.00  0.00    +0.000 NA
ATOM      7  C   UNL     1      -0.875  12.284  21.206  0.00  0.00    +0.000 C 
ATOM      8  C   UNL     1      -1.016  13.807  21.410  0.00  0.00    +0.000 C 
ATOM      9  N   UNL     1      -2.376  14.238  21.805  0.00  0.00    +0.000 N 
ATOM     10  C   UNL     1      -3.495  13.993  20.892  0.00  0.00    +0.000 C 
ATOM     11  C   UNL     1      -3.724  12.518  20.595  0.00  0.00    +0.000 C 
ENDROOT
BRANCH   9  12
ATOM     12  C   UNL     1      -2.526  14.856  23.032  0.00  0.00    +0.000 A 
ATOM     13  N   UNL     1      -2.051  16.129  23.081  0.00  0.00    +0.000 NA
ATOM     14  C   UNL     1      -2.098  16.838  24.234  0.00  0.00    +0.000 A 
ATOM     15  C   UNL     1      -2.602  16.344  25.409  0.00  0.00    +0.000 A 
ATOM     16  C   UNL     1      -3.106  15.058  25.377  0.00  0.00    +0.000 A 
ATOM     17  C   UNL     1      -3.100  14.296  24.181  0.00  0.00    +0.000 A 
BRANCH  17  18
ATOM     18  C   UNL     1      -3.749  12.945  24.294  0.00  0.00    +0.000 C 
ATOM     19  F   UNL     1      -3.055  11.881  23.812  0.00  0.00    +0.000 F 
ATOM     20  F   UNL     1      -4.050  12.638  25.592  0.00  0.00    +0.000 F 
ATOM     21  F   UNL     1      -4.948  12.891  23.637  0.00  0.00    +0.000 F 
ENDBRANCH  17  18
ENDBRANCH   9  12
BRANCH   1  23
ATOM     22  C   UNL     1      -2.663   9.697  15.518  0.00  0.00    +0.000 C 
ATOM     23  C   UNL     1      -3.016  11.093  16.027  0.00  0.00    +0.000 C 
ATOM     24  C   UNL     1      -4.525  11.322  16.036  0.00  0.00    +0.000 C 
ENDBRANCH   1  23
BRANCH   5  25
ATOM     25  N   UNL     1       0.732  11.024  19.079  0.00  0.00    +0.000 N 
ATOM     26  H   UNL     1       1.156  11.743  19.655  0.00  0.00    +0.000 HD
BRANCH  25  27
ATOM     27  C   UNL     1       1.305   9.752  19.277  0.00  0.00    +0.000 A 
ATOM     28  C   UNL     1       1.186   9.061  20.481  0.00  0.00    +0.000 A 
ATOM     29  C   UNL     1       1.546   7.708  20.584  0.00  0.00    +0.000 A 
ATOM     30  C   UNL     1       1.998   6.971  19.482  0.00  0.00    +0.000 A 
ATOM     31  C   UNL     1       2.207   7.703  18.304  0.00  0.00    +0.000 A 
ATOM     32  C   UNL     1       1.853   9.060  18.195  0.00  0.00    +0.000 A 
BRANCH  30  33
ATOM     33  N   UNL     1       2.231   5.603  19.541  0.00  0.00    +0.000 N 
ATOM     34  C   UNL     1       2.561   4.850  18.324  0.00  0.00    +0.000 C 
ATOM     35  C   UNL     1       1.669   3.615  18.395  0.00  0.00    +0.000 C 
ATOM     36  C   UNL     1       1.586   3.340  19.884  0.00  0.00    +0.000 C 
ATOM     37  C   UNL     1       1.526   4.738  20.496  0.00  0.00    +0.000 C 
ENDBRANCH  30  33
ENDBRANCH  25  27
ENDBRANCH   5  25
TORSDOF 6
ENDMDL
MODEL 2
REMARK VINA RESULT:      -8.1      2.285      3.789
REMARK  Name = 
REMARK  8 active torsions:
REMARK  status: ('A' for Active; 'I' for Inactive)
REMARK    1  A    between atoms: C_1  and  C_2
REMARK    2  A    between atoms: C_2  and  C_3
REMARK    3  A    between atoms: C_2  and  C_4
REMARK    4  A    between atoms: C_8  and  N_9
REMARK    5  A    between atoms: N_9  and  C_10
REMARK    6  A    between atoms: C_13  and  N_14
REMARK    7  A    between atoms: N_24  and  C_25
REMARK    8  A    between atoms: C_30  and  C_31
REMARK                            x       y       z     vdW  Elec       q    Type
REMARK                         _______ _______ _______ _____ _____    ______ ____
ROOT
ATOM      1  C   UNL     1       2.120  14.180  19.266  0.00  0.00    +0.000 A 
ATOM      2  N   UNL     1       1.028  14.884  19.604  0.00  0.00    +0.000 NA
ATOM      3  C   UNL     1      -0.157  14.257  19.515  0.00  0.00    +0.000 A 
ATOM      4  C   UNL     1      -0.289  12.942  19.100  0.00  0.00    +0.000 A 
ATOM      5  C   UNL     1       0.890  12.307  18.719  0.00  0.00    +0.000 A 
ATOM      6  N   UNL     1       2.088  12.918  18.812  0.00  0.00    +0.000 NA
ATOM      7  C   UNL     1      -1.635  12.258  19.181  0.00  0.00    +0.000 C 
ATOM      8  C   UNL     1      -2.136  12.139  20.636  0.00  0.00    +0.000 C 
ATOM      9  N   UNL     1      -2.731  13.384  21.172  0.00  0.00    +0.000 N 
ATOM     10  C   UNL     1      -1.897  14.584  21.280  0.00  0.00    +0.000 C 
ATOM     11  C   UNL     1      -1.349  15.065  19.944  0.00  0.00    +0.000 C 
ENDROOT
BRANCH   9  12
ATOM     12  C   UNL     1      -4.061  13.354  21.545  0.00  0.00    +0.000 A 
ATOM     13  N   UNL     1      -4.930  13.679  20.552  0.00  0.00    +0.000 NA
ATOM     14  C   UNL     1      -6.262  13.728  20.790  0.00  0.00    +0.000 A 
ATOM     15  C   UNL     1      -6.824  13.471  22.015  0.00  0.00    +0.000 A 
ATOM     16  C   UNL     1      -5.960  13.121  23.034  0.00  0.00    +0.000 A 
ATOM     17  C   UNL     1      -4.561  13.032  22.814  0.00  0.00    +0.000 A 
BRANCH  17  18
ATOM     18  C   UNL     1      -3.767  12.570  24.003  0.00  0.00    +0.000 C 
ATOM     19  F   UNL     1      -2.901  11.541  23.809  0.00  0.00    +0.000 F 
ATOM     20  F   UNL     1      -3.027  13.587  24.540  0.00  0.00    +0.000 F 
ATOM     21  F   UNL     1      -4.570  12.146  25.027  0.00  0.00    +0.000 F 
ENDBRANCH  17  18
ENDBRANCH   9  12
BRANCH   1  23
ATOM     22  C   UNL     1       4.132  14.589  20.713  0.00  0.00    +0.000 C 
ATOM     23  C   UNL     1       3.452  14.886  19.379  0.00  0.00    +0.000 C 
ATOM     24  C   UNL     1       4.352  14.531  18.200  0.00  0.00    +0.000 C 
ENDBRANCH   1  23
BRANCH   5  25
ATOM     25  N   UNL     1       0.833  11.012  18.156  0.00  0.00    +0.000 N 
ATOM     26  H   UNL     1       0.829  11.079  17.144  0.00  0.00    +0.000 HD
BRANCH  25  27
ATOM     27  C   UNL     1       1.427   9.823  18.626  0.00  0.00    +0.000 A 
ATOM     28  C   UNL     1       1.175   9.320  19.900  0.00  0.00    +0.000 A 
ATOM     29  C   UNL     1       1.575   8.024  20.264  0.00  0.00    +0.000 A 
ATOM     30  C   UNL     1       2.202   7.156  19.360  0.00  0.00    +0.000 A 
ATOM     31  C   UNL     1       2.537   7.710  18.116  0.00  0.00    +0.000 A 
ATOM     32  C   UNL     1       2.144   9.009  17.747  0.00  0.00    +0.000 A 
BRANCH  30  33
ATOM     33  N   UNL     1       2.482   5.831  19.667  0.00  0.00    +0.000 N 
ATOM     34  C   UNL     1       2.724   4.854  18.597  0.00  0.00    +0.000 C 
ATOM     35  C   UNL     1       1.882   3.647  18.996  0.00  0.00    +0.000 C 
ATOM     36  C   UNL     1       1.942   3.674  20.510  0.00  0.00    +0.000 C 
ATOM     37  C   UNL     1       1.893   5.165  20.837  0.00  0.00    +0.000 C 
ENDBRANCH  30  33
ENDBRANCH  25  27
ENDBRANCH   5  25
TORSDOF 6
ENDMDL
MODEL 3
REMARK VINA RESULT:      -8.1      2.533      3.824
REMARK  Name = 
REMARK  8 active torsions:
REMARK  status: ('A' for Active; 'I' for Inactive)
REMARK    1  A    between atoms: C_1  and  C_2
REMARK    2  A    between atoms: C_2  and  C_3
REMARK    3  A    between atoms: C_2  and  C_4
REMARK    4  A    between atoms: C_8  and  N_9
REMARK    5  A    between atoms: N_9  and  C_10
REMARK    6  A    between atoms: C_13  and  N_14
REMARK    7  A    between atoms: N_24  and  C_25
REMARK    8  A    between atoms: C_30  and  C_31
REMARK                            x       y       z     vdW  Elec       q    Type
REMARK                         _______ _______ _______ _____ _____    ______ ____
ROOT
ATOM      1  C   UNL     1       1.797  14.236  18.659  0.00  0.00    +0.000 A 
ATOM      2  N   UNL     1       0.755  14.860  19.230  0.00  0.00    +0.000 NA
ATOM      3  C   UNL     1      -0.330  14.117  19.503  0.00  0.00    +0.000 A 
ATOM      4  C   UNL     1      -0.410  12.761  19.225  0.00  0.00    +0.000 A 
ATOM      5  C   UNL     1       0.697  12.210  18.585  0.00  0.00    +0.000 A 
ATOM      6  N   UNL     1       1.798  12.939  18.314  0.00  0.00    +0.000 NA
ATOM      7  C   UNL     1      -1.599  11.961  19.708  0.00  0.00    +0.000 C 
ATOM      8  C   UNL     1      -1.688  11.933  21.249  0.00  0.00    +0.000 C 
ATOM      9  N   UNL     1      -2.266  13.160  21.841  0.00  0.00    +0.000 N 
ATOM     10  C   UNL     1      -1.580  14.439  21.643  0.00  0.00    +0.000 C 
ATOM     11  C   UNL     1      -1.457  14.842  20.181  0.00  0.00    +0.000 C 
ENDROOT
BRANCH   9  12
ATOM     12  C   UNL     1      -3.442  13.038  22.558  0.00  0.00    +0.000 A 
ATOM     13  N   UNL     1      -3.271  12.680  23.858  0.00  0.00    +0.000 NA
ATOM     14  C   UNL     1      -4.340  12.486  24.666  0.00  0.00    +0.000 A 
ATOM     15  C   UNL     1      -5.640  12.621  24.249  0.00  0.00    +0.000 A 
ATOM     16  C   UNL     1      -5.836  13.001  22.936  0.00  0.00    +0.000 A 
ATOM     17  C   UNL     1      -4.738  13.241  22.069  0.00  0.00    +0.000 A 
BRANCH  17  18
ATOM     18  C   UNL     1      -5.117  13.717  20.695  0.00  0.00    +0.000 C 
ATOM     19  F   UNL     1      -4.621  13.020  19.638  0.00  0.00    +0.000 F 
ATOM     20  F   UNL     1      -6.474  13.738  20.525  0.00  0.00    +0.000 F 
ATOM     21  F   UNL     1      -4.718  15.005  20.466  0.00  0.00    +0.000 F 
ENDBRANCH  17  18
ENDBRANCH   9  12
BRANCH   1  23
ATOM     22  C   UNL     1       2.653  16.538  18.133  0.00  0.00    +0.000 C 
ATOM     23  C   UNL     1       3.020  15.074  18.365  0.00  0.00    +0.000 C 
ATOM     24  C   UNL     1       4.056  14.925  19.476  0.00  0.00    +0.000 C 
ENDBRANCH   1  23
BRANCH   5  25
ATOM     25  N   UNL     1       0.649  10.868  18.144  0.00  0.00    +0.000 N 
ATOM     26  H   UNL     1       0.572  10.843  17.133  0.00  0.00    +0.000 HD
BRANCH  25  27
ATOM     27  C   UNL     1       1.318   9.746  18.673  0.00  0.00    +0.000 A 
ATOM     28  C   UNL     1       1.096   9.292  19.971  0.00  0.00    +0.000 A 
ATOM     29  C   UNL     1       1.579   8.044  20.399  0.00  0.00    +0.000 A 
ATOM     30  C   UNL     1       2.263   7.175  19.540  0.00  0.00    +0.000 A 
ATOM     31  C   UNL     1       2.565   7.686  18.269  0.00  0.00    +0.000 A 
ATOM     32  C   UNL     1       2.089   8.937  17.835  0.00  0.00    +0.000 A 
BRANCH  30  33
ATOM     33  N   UNL     1       2.628   5.888  19.913  0.00  0.00    +0.000 N 
ATOM     34  C   UNL     1       3.482   5.073  19.039  0.00  0.00    +0.000 C 
ATOM     35  C   UNL     1       2.792   3.713  19.005  0.00  0.00    +0.000 C 
ATOM     36  C   UNL     1       2.194   3.599  20.393  0.00  0.00    +0.000 C 
ATOM     37  C   UNL     1       1.732   5.024  20.694  0.00  0.00    +0.000 C 
ENDBRANCH  30  33
ENDBRANCH  25  27
ENDBRANCH   5  25
TORSDOF 6
ENDMDL
MODEL 4
REMARK VINA RESULT:      -8.0      0.620      1.066
REMARK  Name = 
REMARK  8 active torsions:
REMARK  status: ('A' for Active; 'I' for Inactive)
REMARK    1  A    between atoms: C_1  and  C_2
REMARK    2  A    between atoms: C_2  and  C_3
REMARK    3  A    between atoms: C_2  and  C_4
REMARK    4  A    between atoms: C_8  and  N_9
REMARK    5  A    between atoms: N_9  and  C_10
REMARK    6  A    between atoms: C_13  and  N_14
REMARK    7  A    between atoms: N_24  and  C_25
REMARK    8  A    between atoms: C_30  and  C_31
REMARK                            x       y       z     vdW  Elec       q    Type
REMARK                         _______ _______ _______ _____ _____    ______ ____
ROOT
ATOM      1  C   UNL     1      -2.126  11.168  17.516  0.00  0.00    +0.000 A 
ATOM      2  N   UNL     1      -2.986  11.652  18.425  0.00  0.00    +0.000 NA
ATOM      3  C   UNL     1      -2.510  11.869  19.663  0.00  0.00    +0.000 A 
ATOM      4  C   UNL     1      -1.196  11.620  20.025  0.00  0.00    +0.000 A 
ATOM      5  C   UNL     1      -0.390  11.069  19.031  0.00  0.00    +0.000 A 
ATOM      6  N   UNL     1      -0.848  10.855  17.782  0.00  0.00    +0.000 NA
ATOM      7  C   UNL     1      -0.696  12.042  21.388  0.00  0.00    +0.000 C 
ATOM      8  C   UNL     1      -0.748  13.572  21.574  0.00  0.00    +0.000 C 
ATOM      9  N   UNL     1      -2.094  14.095  21.900  0.00  0.00    +0.000 N 
ATOM     10  C   UNL     1      -3.182  13.912  20.937  0.00  0.00    +0.000 C 
ATOM     11  C   UNL     1      -3.492  12.452  20.640  0.00  0.00    +0.000 C 
ENDROOT
BRANCH   9  12
ATOM     12  C   UNL     1      -2.261  14.734  23.115  0.00  0.00    +0.000 A 
ATOM     13  N   UNL     1      -1.683  15.962  23.186  0.00  0.00    +0.000 NA
ATOM     14  C   UNL     1      -1.736  16.682  24.331  0.00  0.00    +0.000 A 
ATOM     15  C   UNL     1      -2.347  16.242  25.477  0.00  0.00    +0.000 A 
ATOM     16  C   UNL     1      -2.956  15.004  25.421  0.00  0.00    +0.000 A 
ATOM     17  C   UNL     1      -2.946  14.234  24.229  0.00  0.00    +0.000 A 
BRANCH  17  18
ATOM     18  C   UNL     1      -3.713  12.944  24.310  0.00  0.00    +0.000 C 
ATOM     19  F   UNL     1      -4.138  12.551  25.539  0.00  0.00    +0.000 F 
ATOM     20  F   UNL     1      -4.828  12.970  23.518  0.00  0.00    +0.000 F 
ATOM     21  F   UNL     1      -2.984  11.880  23.850  0.00  0.00    +0.000 F 
ENDBRANCH  17  18
ENDBRANCH   9  12
BRANCH   1  23
ATOM     22  C   UNL     1      -2.521   9.476  15.702  0.00  0.00    +0.000 C 
ATOM     23  C   UNL     1      -2.663  10.937  16.122  0.00  0.00    +0.000 C 
ATOM     24  C   UNL     1      -4.109  11.413  16.015  0.00  0.00    +0.000 C 
ENDBRANCH   1  23
BRANCH   5  25
ATOM     25  N   UNL     1       0.925  10.659  19.349  0.00  0.00    +0.000 N 
ATOM     26  H   UNL     1       1.352  11.335  19.973  0.00  0.00    +0.000 HD
BRANCH  25  27
ATOM     27  C   UNL     1       1.415   9.351  19.537  0.00  0.00    +0.000 A 
ATOM     28  C   UNL     1       1.181   8.630  20.706  0.00  0.00    +0.000 A 
ATOM     29  C   UNL     1       1.461   7.255  20.783  0.00  0.00    +0.000 A 
ATOM     30  C   UNL     1       1.942   6.530  19.685  0.00  0.00    +0.000 A 
ATOM     31  C   UNL     1       2.265   7.287  18.549  0.00  0.00    +0.000 A 
ATOM     32  C   UNL     1       1.993   8.664  18.467  0.00  0.00    +0.000 A 
BRANCH  30  33
ATOM     33  N   UNL     1       2.096   5.151  19.710  0.00  0.00    +0.000 N 
ATOM     34  C   UNL     1       1.133   4.306  20.427  0.00  0.00    +0.000 C 
ATOM     35  C   UNL     1       2.002   3.341  21.225  0.00  0.00    +0.000 C 
ATOM     36  C   UNL     1       3.203   3.136  20.322  0.00  0.00    +0.000 C 
ATOM     37  C   UNL     1       3.423   4.520  19.713  0.00  0.00    +0.000 C 
ENDBRANCH  30  33
ENDBRANCH  25  27
ENDBRANCH   5  25
TORSDOF 6
ENDMDL
MODEL 5
REMARK VINA RESULT:      -7.9      1.761      2.113
REMARK  Name = 
REMARK  8 active torsions:
REMARK  status: ('A' for Active; 'I' for Inactive)
REMARK    1  A    between atoms: C_1  and  C_2
REMARK    2  A    between atoms: C_2  and  C_3
REMARK    3  A    between atoms: C_2  and  C_4
REMARK    4  A    between atoms: C_8  and  N_9
REMARK    5  A    between atoms: N_9  and  C_10
REMARK    6  A    between atoms: C_13  and  N_14
REMARK    7  A    between atoms: N_24  and  C_25
REMARK    8  A    between atoms: C_30  and  C_31
REMARK                            x       y       z     vdW  Elec       q    Type
REMARK                         _______ _______ _______ _____ _____    ______ ____
ROOT
ATOM      1  C   UNL     1      -2.218  10.577  17.842  0.00  0.00    +0.000 A 
ATOM      2  N   UNL     1      -2.664  11.434  18.774  0.00  0.00    +0.000 NA
ATOM      3  C   UNL     1      -1.760  11.921  19.640  0.00  0.00    +0.000 A 
ATOM      4  C   UNL     1      -0.417  11.583  19.604  0.00  0.00    +0.000 A 
ATOM      5  C   UNL     1      -0.055  10.648  18.638  0.00  0.00    +0.000 A 
ATOM      6  N   UNL     1      -0.947  10.157  17.755  0.00  0.00    +0.000 NA
ATOM      7  C   UNL     1       0.565  12.296  20.507  0.00  0.00    +0.000 C 
ATOM      8  C   UNL     1       0.652  13.803  20.188  0.00  0.00    +0.000 C 
ATOM      9  N   UNL     1      -0.458  14.603  20.753  0.00  0.00    +0.000 N 
ATOM     10  C   UNL     1      -1.830  14.325  20.322  0.00  0.00    +0.000 C 
ATOM     11  C   UNL     1      -2.290  12.909  20.639  0.00  0.00    +0.000 C 
ENDROOT
BRANCH   9  12
ATOM     12  C   UNL     1      -0.141  15.585  21.674  0.00  0.00    +0.000 A 
ATOM     13  N   UNL     1       0.529  16.647  21.154  0.00  0.00    +0.000 NA
ATOM     14  C   UNL     1       0.936  17.662  21.952  0.00  0.00    +0.000 A 
ATOM     15  C   UNL     1       0.721  17.697  23.306  0.00  0.00    +0.000 A 
ATOM     16  C   UNL     1       0.026  16.635  23.852  0.00  0.00    +0.000 A 
ATOM     17  C   UNL     1      -0.440  15.568  23.043  0.00  0.00    +0.000 A 
BRANCH  17  18
ATOM     18  C   UNL     1      -1.240  14.528  23.776  0.00  0.00    +0.000 C 
ATOM     19  F   UNL     1      -0.898  13.228  23.576  0.00  0.00    +0.000 F 
ATOM     20  F   UNL     1      -1.199  14.722  25.129  0.00  0.00    +0.000 F 
ATOM     21  F   UNL     1      -2.570  14.579  23.457  0.00  0.00    +0.000 F 
ENDBRANCH  17  18
ENDBRANCH   9  12
BRANCH   1  23
ATOM     22  C   UNL     1      -4.575  10.765  16.992  0.00  0.00    +0.000 C 
ATOM     23  C   UNL     1      -3.237  10.041  16.862  0.00  0.00    +0.000 C 
ATOM     24  C   UNL     1      -2.700  10.106  15.435  0.00  0.00    +0.000 C 
ENDBRANCH   1  23
BRANCH   5  25
ATOM     25  N   UNL     1       1.266  10.144  18.616  0.00  0.00    +0.000 N 
ATOM     26  H   UNL     1       1.920  10.892  18.817  0.00  0.00    +0.000 HD
BRANCH  25  27
ATOM     27  C   UNL     1       1.730   8.880  19.034  0.00  0.00    +0.000 A 
ATOM     28  C   UNL     1       1.445   8.364  20.296  0.00  0.00    +0.000 A 
ATOM     29  C   UNL     1       1.702   7.018  20.608  0.00  0.00    +0.000 A 
ATOM     30  C   UNL     1       2.211   6.118  19.663  0.00  0.00    +0.000 A 
ATOM     31  C   UNL     1       2.586   6.675  18.431  0.00  0.00    +0.000 A 
ATOM     32  C   UNL     1       2.336   8.022  18.114  0.00  0.00    +0.000 A 
BRANCH  30  33
ATOM     33  N   UNL     1       2.346   4.761  19.920  0.00  0.00    +0.000 N 
ATOM     34  C   UNL     1       2.786   3.842  18.861  0.00  0.00    +0.000 C 
ATOM     35  C   UNL     1       1.815   2.670  18.955  0.00  0.00    +0.000 C 
ATOM     36  C   UNL     1       1.516   2.593  20.439  0.00  0.00    +0.000 C 
ATOM     37  C   UNL     1       1.464   4.060  20.863  0.00  0.00    +0.000 C 
ENDBRANCH  30  33
ENDBRANCH  25  27
ENDBRANCH   5  25
TORSDOF 6
ENDMDL
MODEL 6
REMARK VINA RESULT:      -7.9      4.293      5.257
REMARK  Name = 
REMARK  8 active torsions:
REMARK  status: ('A' for Active; 'I' for Inactive)
REMARK    1  A    between atoms: C_1  and  C_2
REMARK    2  A    between atoms: C_2  and  C_3
REMARK    3  A    between atoms: C_2  and  C_4
REMARK    4  A    between atoms: C_8  and  N_9
REMARK    5  A    between atoms: N_9  and  C_10
REMARK    6  A    between atoms: C_13  and  N_14
REMARK    7  A    between atoms: N_24  and  C_25
REMARK    8  A    between atoms: C_30  and  C_31
REMARK                            x       y       z     vdW  Elec       q    Type
REMARK                         _______ _______ _______ _____ _____    ______ ____
ROOT
ATOM      1  C   UNL     1      -2.140  10.861  17.988  0.00  0.00    +0.000 A 
ATOM      2  N   UNL     1      -1.993  12.172  18.238  0.00  0.00    +0.000 NA
ATOM      3  C   UNL     1      -1.022  12.526  19.096  0.00  0.00    +0.000 A 
ATOM      4  C   UNL     1      -0.185  11.611  19.714  0.00  0.00    +0.000 A 
ATOM      5  C   UNL     1      -0.445  10.271  19.437  0.00  0.00    +0.000 A 
ATOM      6  N   UNL     1      -1.409   9.899  18.571  0.00  0.00    +0.000 NA
ATOM      7  C   UNL     1       0.986  12.097  20.539  0.00  0.00    +0.000 C 
ATOM      8  C   UNL     1       2.010  12.873  19.685  0.00  0.00    +0.000 C 
ATOM      9  N   UNL     1       1.621  14.273  19.403  0.00  0.00    +0.000 N 
ATOM     10  C   UNL     1       0.396  14.534  18.642  0.00  0.00    +0.000 C 
ATOM     11  C   UNL     1      -0.861  14.004  19.316  0.00  0.00    +0.000 C 
ENDROOT
BRANCH   9  12
ATOM     12  C   UNL     1       2.441  15.279  19.881  0.00  0.00    +0.000 A 
ATOM     13  N   UNL     1       2.037  15.819  21.061  0.00  0.00    +0.000 NA
ATOM     14  C   UNL     1       2.726  16.840  21.623  0.00  0.00    +0.000 A 
ATOM     15  C   UNL     1       3.845  17.400  21.062  0.00  0.00    +0.000 A 
ATOM     16  C   UNL     1       4.283  16.853  19.871  0.00  0.00    +0.000 A 
ATOM     17  C   UNL     1       3.603  15.764  19.268  0.00  0.00    +0.000 A 
BRANCH  17  18
ATOM     18  C   UNL     1       4.246  15.239  18.015  0.00  0.00    +0.000 C 
ATOM     19  F   UNL     1       4.418  13.895  17.923  0.00  0.00    +0.000 F 
ATOM     20  F   UNL     1       3.547  15.605  16.898  0.00  0.00    +0.000 F 
ATOM     21  F   UNL     1       5.500  15.753  17.824  0.00  0.00    +0.000 F 
ENDBRANCH  17  18
ENDBRANCH   9  12
BRANCH   1  23
ATOM     22  C   UNL     1      -4.560  11.121  17.367  0.00  0.00    +0.000 C 
ATOM     23  C   UNL     1      -3.227  10.468  17.013  0.00  0.00    +0.000 C 
ATOM     24  C   UNL     1      -2.808  10.790  15.581  0.00  0.00    +0.000 C 
ENDBRANCH   1  23
BRANCH   5  25
ATOM     25  N   UNL     1       0.270   9.266  20.127  0.00  0.00    +0.000 N 
ATOM     26  H   UNL     1      -0.370   8.719  20.693  0.00  0.00    +0.000 HD
BRANCH  25  27
ATOM     27  C   UNL     1       1.388   8.527  19.689  0.00  0.00    +0.000 A 
ATOM     28  C   UNL     1       1.840   7.394  20.362  0.00  0.00    +0.000 A 
ATOM     29  C   UNL     1       2.791   6.536  19.787  0.00  0.00    +0.000 A 
ATOM     30  C   UNL     1       3.299   6.743  18.498  0.00  0.00    +0.000 A 
ATOM     31  C   UNL     1       2.911   7.938  17.875  0.00  0.00    +0.000 A 
ATOM     32  C   UNL     1       1.962   8.805  18.447  0.00  0.00    +0.000 A 
BRANCH  30  33
ATOM     33  N   UNL     1       4.138   5.832  17.869  0.00  0.00    +0.000 N 
ATOM     34  C   UNL     1       5.299   6.297  17.100  0.00  0.00    +0.000 C 
ATOM     35  C   UNL     1       5.231   5.500  15.802  0.00  0.00    +0.000 C 
ATOM     36  C   UNL     1       4.654   4.171  16.247  0.00  0.00    +0.000 C 
ATOM     37  C   UNL     1       3.632   4.572  17.310  0.00  0.00    +0.000 C 
ENDBRANCH  30  33
ENDBRANCH  25  27
ENDBRANCH   5  25
TORSDOF 6
ENDMDL
MODEL 7
REMARK VINA RESULT:      -7.9      4.246      5.266
REMARK  Name = 
REMARK  8 active torsions:
REMARK  status: ('A' for Active; 'I' for Inactive)
REMARK    1  A    between atoms: C_1  and  C_2
REMARK    2  A    between atoms: C_2  and  C_3
REMARK    3  A    between atoms: C_2  and  C_4
REMARK    4  A    between atoms: C_8  and  N_9
REMARK    5  A    between atoms: N_9  and  C_10
REMARK    6  A    between atoms: C_13  and  N_14
REMARK    7  A    between atoms: N_24  and  C_25
REMARK    8  A    between atoms: C_30  and  C_31
REMARK                            x       y       z     vdW  Elec       q    Type
REMARK                         _______ _______ _______ _____ _____    ______ ____
ROOT
ATOM      1  C   UNL     1      -1.911  10.874  18.520  0.00  0.00    +0.000 A 
ATOM      2  N   UNL     1      -1.799  12.200  18.694  0.00  0.00    +0.000 NA
ATOM      3  C   UNL     1      -0.781  12.633  19.456  0.00  0.00    +0.000 A 
ATOM      4  C   UNL     1       0.138  11.783  20.050  0.00  0.00    +0.000 A 
ATOM      5  C   UNL     1      -0.088  10.422  19.859  0.00  0.00    +0.000 A 
ATOM      6  N   UNL     1      -1.098   9.970  19.089  0.00  0.00    +0.000 NA
ATOM      7  C   UNL     1       1.347  12.353  20.756  0.00  0.00    +0.000 C 
ATOM      8  C   UNL     1       2.271  13.122  19.789  0.00  0.00    +0.000 C 
ATOM      9  N   UNL     1       1.804  14.491  19.471  0.00  0.00    +0.000 N 
ATOM     10  C   UNL     1       0.516  14.666  18.797  0.00  0.00    +0.000 C 
ATOM     11  C   UNL     1      -0.664  14.125  19.591  0.00  0.00    +0.000 C 
ENDROOT
BRANCH   9  12
ATOM     12  C   UNL     1       2.616  15.549  19.834  0.00  0.00    +0.000 A 
ATOM     13  N   UNL     1       2.213  16.208  20.952  0.00  0.00    +0.000 NA
ATOM     14  C   UNL     1       2.894  17.289  21.399  0.00  0.00    +0.000 A 
ATOM     15  C   UNL     1       4.005  17.797  20.775  0.00  0.00    +0.000 A 
ATOM     16  C   UNL     1       4.443  17.131  19.646  0.00  0.00    +0.000 A 
ATOM     17  C   UNL     1       3.770  15.978  19.166  0.00  0.00    +0.000 A 
BRANCH  17  18
ATOM     18  C   UNL     1       4.413  15.329  17.973  0.00  0.00    +0.000 C 
ATOM     19  F   UNL     1       4.588  13.982  18.018  0.00  0.00    +0.000 F 
ATOM     20  F   UNL     1       3.710  15.576  16.826  0.00  0.00    +0.000 F 
ATOM     21  F   UNL     1       5.665  15.824  17.727  0.00  0.00    +0.000 F 
ENDBRANCH  17  18
ENDBRANCH   9  12
BRANCH   1  23
ATOM     22  C   UNL     1      -4.138  11.455  17.514  0.00  0.00    +0.000 C 
ATOM     23  C   UNL     1      -3.051  10.391  17.653  0.00  0.00    +0.000 C 
ATOM     24  C   UNL     1      -2.537   9.934  16.291  0.00  0.00    +0.000 C 
ENDBRANCH   1  23
BRANCH   5  25
ATOM     25  N   UNL     1       0.718   9.480  20.538  0.00  0.00    +0.000 N 
ATOM     26  H   UNL     1       0.305   9.263  21.439  0.00  0.00    +0.000 HD
BRANCH  25  27
ATOM     27  C   UNL     1       1.459   8.408  20.000  0.00  0.00    +0.000 A 
ATOM     28  C   UNL     1       1.583   7.187  20.657  0.00  0.00    +0.000 A 
ATOM     29  C   UNL     1       2.112   6.059  20.007  0.00  0.00    +0.000 A 
ATOM     30  C   UNL     1       2.496   6.088  18.660  0.00  0.00    +0.000 A 
ATOM     31  C   UNL     1       2.458   7.347  18.042  0.00  0.00    +0.000 A 
ATOM     32  C   UNL     1       1.935   8.481  18.689  0.00  0.00    +0.000 A 
BRANCH  30  33
ATOM     33  N   UNL     1       2.894   4.950  17.971  0.00  0.00    +0.000 N 
ATOM     34  C   UNL     1       1.916   3.915  17.614  0.00  0.00    +0.000 C 
ATOM     35  C   UNL     1       2.593   2.607  18.010  0.00  0.00    +0.000 C 
ATOM     36  C   UNL     1       4.059   2.889  17.746  0.00  0.00    +0.000 C 
ATOM     37  C   UNL     1       4.219   4.347  18.173  0.00  0.00    +0.000 C 
ENDBRANCH  30  33
ENDBRANCH  25  27
ENDBRANCH   5  25
TORSDOF 6
ENDMDL
MODEL 8
REMARK VINA RESULT:      -7.8      2.387      4.137
REMARK  Name = 
REMARK  8 active torsions:
REMARK  status: ('A' for Active; 'I' for Inactive)
REMARK    1  A    between atoms: C_1  and  C_2
REMARK    2  A    between atoms: C_2  and  C_3
REMARK    3  A    between atoms: C_2  and  C_4
REMARK    4  A    between atoms: C_8  and  N_9
REMARK    5  A    between atoms: N_9  and  C_10
REMARK    6  A    between atoms: C_13  and  N_14
REMARK    7  A    between atoms: N_24  and  C_25
REMARK    8  A    between atoms: C_30  and  C_31
REMARK                            x       y       z     vdW  Elec       q    Type
REMARK                         _______ _______ _______ _____ _____    ______ ____
ROOT
ATOM      1  C   UNL     1       2.506  14.222  19.607  0.00  0.00    +0.000 A 
ATOM      2  N   UNL     1       1.393  14.881  19.965  0.00  0.00    +0.000 NA
ATOM      3  C   UNL     1       0.218  14.283  19.706  0.00  0.00    +0.000 A 
ATOM      4  C   UNL     1       0.116  13.041  19.100  0.00  0.00    +0.000 A 
ATOM      5  C   UNL     1       1.320  12.456  18.716  0.00  0.00    +0.000 A 
ATOM      6  N   UNL     1       2.508  13.037  18.978  0.00  0.00    +0.000 NA
ATOM      7  C   UNL     1      -1.231  12.364  18.990  0.00  0.00    +0.000 C 
ATOM      8  C   UNL     1      -1.832  12.045  20.375  0.00  0.00    +0.000 C 
ATOM      9  N   UNL     1      -2.465  13.208  21.039  0.00  0.00    +0.000 N 
ATOM     10  C   UNL     1      -1.642  14.373  21.373  0.00  0.00    +0.000 C 
ATOM     11  C   UNL     1      -1.002  15.032  20.160  0.00  0.00    +0.000 C 
ENDROOT
BRANCH   9  12
ATOM     12  C   UNL     1      -3.818  13.137  21.311  0.00  0.00    +0.000 A 
ATOM     13  N   UNL     1      -4.619  13.351  20.234  0.00  0.00    +0.000 NA
ATOM     14  C   UNL     1      -5.966  13.349  20.366  0.00  0.00    +0.000 A 
ATOM     15  C   UNL     1      -6.612  13.147  21.559  0.00  0.00    +0.000 A 
ATOM     16  C   UNL     1      -5.817  12.909  22.664  0.00  0.00    +0.000 A 
ATOM     17  C   UNL     1      -4.402  12.875  22.557  0.00  0.00    +0.000 A 
BRANCH  17  18
ATOM     18  C   UNL     1      -3.686  12.534  23.833  0.00  0.00    +0.000 C 
ATOM     19  F   UNL     1      -2.952  13.519  24.415  0.00  0.00    +0.000 F 
ATOM     20  F   UNL     1      -4.552  12.094  24.795  0.00  0.00    +0.000 F 
ATOM     21  F   UNL     1      -2.798  11.505  23.668  0.00  0.00    +0.000 F 
ENDBRANCH  17  18
ENDBRANCH   9  12
BRANCH   1  23
ATOM     22  C   UNL     1       4.420  14.392  21.225  0.00  0.00    +0.000 C 
ATOM     23  C   UNL     1       3.826  14.894  19.911  0.00  0.00    +0.000 C 
ATOM     24  C   UNL     1       4.802  14.716  18.751  0.00  0.00    +0.000 C 
ENDBRANCH   1  23
BRANCH   5  25
ATOM     25  N   UNL     1       1.304  11.254  17.973  0.00  0.00    +0.000 N 
ATOM     26  H   UNL     1       1.773  11.395  17.084  0.00  0.00    +0.000 HD
BRANCH  25  27
ATOM     27  C   UNL     1       1.406   9.929  18.444  0.00  0.00    +0.000 A 
ATOM     28  C   UNL     1       1.987   8.914  17.688  0.00  0.00    +0.000 A 
ATOM     29  C   UNL     1       2.300   7.669  18.258  0.00  0.00    +0.000 A 
ATOM     30  C   UNL     1       2.092   7.397  19.616  0.00  0.00    +0.000 A 
ATOM     31  C   UNL     1       1.416   8.391  20.340  0.00  0.00    +0.000 A 
ATOM     32  C   UNL     1       1.095   9.638  19.774  0.00  0.00    +0.000 A 
BRANCH  30  33
ATOM     33  N   UNL     1       2.518   6.220  20.218  0.00  0.00    +0.000 N 
ATOM     34  C   UNL     1       3.640   5.459  19.654  0.00  0.00    +0.000 C 
ATOM     35  C   UNL     1       3.148   4.016  19.648  0.00  0.00    +0.000 C 
ATOM     36  C   UNL     1       2.270   3.950  20.882  0.00  0.00    +0.000 C 
ATOM     37  C   UNL     1       1.581   5.314  20.896  0.00  0.00    +0.000 C 
ENDBRANCH  30  33
ENDBRANCH  25  27
ENDBRANCH   5  25
TORSDOF 6
ENDMDL
MODEL 9
REMARK VINA RESULT:      -7.8      1.800      2.272
REMARK  Name = 
REMARK  8 active torsions:
REMARK  status: ('A' for Active; 'I' for Inactive)
REMARK    1  A    between atoms: C_1  and  C_2
REMARK    2  A    between atoms: C_2  and  C_3
REMARK    3  A    between atoms: C_2  and  C_4
REMARK    4  A    between atoms: C_8  and  N_9
REMARK    5  A    between atoms: N_9  and  C_10
REMARK    6  A    between atoms: C_13  and  N_14
REMARK    7  A    between atoms: N_24  and  C_25
REMARK    8  A    between atoms: C_30  and  C_31
REMARK                            x       y       z     vdW  Elec       q    Type
REMARK                         _______ _______ _______ _____ _____    ______ ____
ROOT
ATOM      1  C   UNL     1      -2.389  11.007  18.036  0.00  0.00    +0.000 A 
ATOM      2  N   UNL     1      -2.840  11.874  18.956  0.00  0.00    +0.000 NA
ATOM      3  C   UNL     1      -1.950  12.332  19.852  0.00  0.00    +0.000 A 
ATOM      4  C   UNL     1      -0.617  11.954  19.860  0.00  0.00    +0.000 A 
ATOM      5  C   UNL     1      -0.252  11.011  18.902  0.00  0.00    +0.000 A 
ATOM      6  N   UNL     1      -1.129  10.549  17.989  0.00  0.00    +0.000 NA
ATOM      7  C   UNL     1       0.355  12.635  20.796  0.00  0.00    +0.000 C 
ATOM      8  C   UNL     1       0.498  14.140  20.486  0.00  0.00    +0.000 C 
ATOM      9  N   UNL     1      -0.606  14.972  21.017  0.00  0.00    +0.000 N 
ATOM     10  C   UNL     1      -1.970  14.735  20.541  0.00  0.00    +0.000 C 
ATOM     11  C   UNL     1      -2.483  13.333  20.838  0.00  0.00    +0.000 C 
ENDROOT
BRANCH   9  12
ATOM     12  C   UNL     1      -0.290  15.940  21.951  0.00  0.00    +0.000 A 
ATOM     13  N   UNL     1       0.331  17.035  21.437  0.00  0.00    +0.000 NA
ATOM     14  C   UNL     1       0.732  18.044  22.246  0.00  0.00    +0.000 A 
ATOM     15  C   UNL     1       0.558  18.040  23.606  0.00  0.00    +0.000 A 
ATOM     16  C   UNL     1      -0.087  16.945  24.148  0.00  0.00    +0.000 A 
ATOM     17  C   UNL     1      -0.546  15.882  23.328  0.00  0.00    +0.000 A 
BRANCH  17  18
ATOM     18  C   UNL     1      -1.291  14.802  24.059  0.00  0.00    +0.000 C 
ATOM     19  F   UNL     1      -0.970  13.516  23.761  0.00  0.00    +0.000 F 
ATOM     20  F   UNL     1      -1.146  14.919  25.414  0.00  0.00    +0.000 F 
ATOM     21  F   UNL     1      -2.641  14.870  23.847  0.00  0.00    +0.000 F 
ENDBRANCH  17  18
ENDBRANCH   9  12
BRANCH   1  23
ATOM     22  C   UNL     1      -4.728  11.230  17.146  0.00  0.00    +0.000 C 
ATOM     23  C   UNL     1      -3.391  10.503  17.022  0.00  0.00    +0.000 C 
ATOM     24  C   UNL     1      -2.826  10.607  15.608  0.00  0.00    +0.000 C 
ENDBRANCH   1  23
BRANCH   5  25
ATOM     25  N   UNL     1       1.053  10.468  18.922  0.00  0.00    +0.000 N 
ATOM     26  H   UNL     1       1.681  11.104  19.403  0.00  0.00    +0.000 HD
BRANCH  25  27
ATOM     27  C   UNL     1       1.440   9.118  19.042  0.00  0.00    +0.000 A 
ATOM     28  C   UNL     1       2.161   8.460  18.047  0.00  0.00    +0.000 A 
ATOM     29  C   UNL     1       2.746   7.205  18.280  0.00  0.00    +0.000 A 
ATOM     30  C   UNL     1       2.677   6.570  19.527  0.00  0.00    +0.000 A 
ATOM     31  C   UNL     1       1.866   7.196  20.485  0.00  0.00    +0.000 A 
ATOM     32  C   UNL     1       1.274   8.451  20.257  0.00  0.00    +0.000 A 
BRANCH  30  33
ATOM     33  N   UNL     1       3.361   5.395  19.806  0.00  0.00    +0.000 N 
ATOM     34  C   UNL     1       4.518   4.995  18.995  0.00  0.00    +0.000 C 
ATOM     35  C   UNL     1       4.275   3.519  18.698  0.00  0.00    +0.000 C 
ATOM     36  C   UNL     1       3.573   3.030  19.950  0.00  0.00    +0.000 C 
ATOM     37  C   UNL     1       2.675   4.205  20.330  0.00  0.00    +0.000 C 
ENDBRANCH  30  33
ENDBRANCH  25  27
ENDBRANCH   5  25
TORSDOF 6
ENDMDL
