MODEL 1
REMARK VINA RESULT:      -8.6      0.000      0.000
REMARK  Name = 
REMARK  6 active torsions:
REMARK  status: ('A' for Active; 'I' for Inactive)
REMARK    1  A    between atoms: C_1  and  N_2
REMARK    2  A    between atoms: C_3  and  C_4
REMARK    3  A    between atoms: C_13  and  N_14
REMARK    4  A    between atoms: C_17  and  O_18
REMARK    5  A    between atoms: O_18  and  C_19
REMARK    6  A    between atoms: C_19  and  C_20
REMARK                            x       y       z     vdW  Elec       q    Type
REMARK                         _______ _______ _______ _____ _____    ______ ____
ROOT
ATOM      1  N   UNL     1       1.846   7.760  19.652  0.00  0.00    +0.000 N 
ATOM      2  C   UNL     1       2.034   6.437  20.022  0.00  0.00    +0.000 A 
ATOM      3  C   UNL     1       2.616   5.551  19.209  0.00  0.00    +0.000 A 
ATOM      4  C   UNL     1       3.081   5.965  17.907  0.00  0.00    +0.000 A 
ATOM      5  C   UNL     1       2.940   7.238  17.521  0.00  0.00    +0.000 A 
ATOM      6  C   UNL     1       2.257   8.233  18.395  0.00  0.00    +0.000 A 
ATOM      7  O   UNL     1       2.131   9.383  17.976  0.00  0.00    +0.000 OA
ENDROOT
BRANCH   1  15
ATOM      8  C   UNL     1      -1.856  11.846  19.785  0.00  0.00    +0.000 C 
ATOM      9  N   UNL     1      -1.197  11.454  21.007  0.00  0.00    +0.000 N 
ATOM     10  C   UNL     1      -1.425  11.926  22.281  0.00  0.00    +0.000 A 
ATOM     11  N   UNL     1      -0.743  11.218  23.161  0.00  0.00    +0.000 NA
ATOM     12  C   UNL     1      -0.017  10.308  22.442  0.00  0.00    +0.000 A 
ATOM     13  C   UNL     1       0.858   9.316  22.895  0.00  0.00    +0.000 A 
ATOM     14  C   UNL     1       1.459   8.478  21.950  0.00  0.00    +0.000 A 
ATOM     15  C   UNL     1       1.244   8.661  20.576  0.00  0.00    +0.000 A 
ATOM     16  C   UNL     1       0.388   9.672  20.111  0.00  0.00    +0.000 A 
ATOM     17  C   UNL     1      -0.251  10.456  21.082  0.00  0.00    +0.000 A 
BRANCH  10  18
ATOM     18  C   UNL     1      -2.337  13.060  22.625  0.00  0.00    +0.000 C 
ATOM     19  C   UNL     1      -3.359  12.675  23.691  0.00  0.00    +0.000 C 
ATOM     20  C   UNL     1      -3.821  14.007  24.264  0.00  0.00    +0.000 C 
ATOM     21  C   UNL     1      -2.644  14.966  24.107  0.00  0.00    +0.000 C 
ATOM     22  C   UNL     1      -1.600  14.241  23.265  0.00  0.00    +0.000 C 
ENDBRANCH  10  18
ENDBRANCH   1  15
BRANCH   4  23
ATOM     23  O   UNL     1       3.692   5.056  17.067  0.00  0.00    +0.000 OA
BRANCH  23  24
ATOM     24  C   UNL     1       4.776   4.307  17.618  0.00  0.00    +0.000 C 
BRANCH  24  25
ATOM     25  C   UNL     1       5.911   5.245  17.936  0.00  0.00    +0.000 A 
ATOM     26  C   UNL     1       6.323   6.211  17.007  0.00  0.00    +0.000 A 
ATOM     27  C   UNL     1       7.363   7.080  17.320  0.00  0.00    +0.000 A 
ATOM     28  C   UNL     1       7.997   6.974  18.553  0.00  0.00    +0.000 A 
ATOM     29  F   UNL     1       8.997   7.813  18.852  0.00  0.00    +0.000 F 
ATOM     30  C   UNL     1       7.612   6.015  19.481  0.00  0.00    +0.000 A 
ATOM     31  C   UNL     1       6.569   5.145  19.172  0.00  0.00    +0.000 A 
ENDBRANCH  24  25
ENDBRANCH  23  24
ENDBRANCH   4  23
TORSDOF 5
ENDMDL
MODEL 2
REMARK VINA RESULT:      -8.5      3.311      4.206
REMARK  Name = 
REMARK  6 active torsions:
REMARK  status: ('A' for Active; 'I' for Inactive)
REMARK    1  A    between atoms: C_1  and  N_2
REMARK    2  A    between atoms: C_3  and  C_4
REMARK    3  A    between atoms: C_13  and  N_14
REMARK    4  A    between atoms: C_17  and  O_18
REMARK    5  A    between atoms: O_18  and  C_19
REMARK    6  A    between atoms: C_19  and  C_20
REMARK                            x       y       z     vdW  Elec       q    Type
REMARK                         _______ _______ _______ _____ _____    ______ ____
ROOT
ATOM      1  N   UNL     1       1.499   9.211  19.032  0.00  0.00    +0.000 N 
ATOM      2  C   UNL     1       2.026   8.667  17.871  0.00  0.00    +0.000 A 
ATOM      3  C   UNL     1       2.547   7.438  17.839  0.00  0.00    +0.000 A 
ATOM      4  C   UNL     1       2.561   6.631  19.035  0.00  0.00    +0.000 A 
ATOM      5  C   UNL     1       2.042   7.109  20.171  0.00  0.00    +0.000 A 
ATOM      6  C   UNL     1       1.493   8.493  20.239  0.00  0.00    +0.000 A 
ATOM      7  O   UNL     1       1.053   8.890  21.317  0.00  0.00    +0.000 OA
ENDROOT
BRANCH   1  15
ATOM      8  C   UNL     1       3.054  14.499  18.801  0.00  0.00    +0.000 C 
ATOM      9  N   UNL     1       1.647  14.180  18.846  0.00  0.00    +0.000 N 
ATOM     10  C   UNL     1       0.580  15.047  18.759  0.00  0.00    +0.000 A 
ATOM     11  N   UNL     1      -0.552  14.373  18.678  0.00  0.00    +0.000 NA
ATOM     12  C   UNL     1      -0.218  13.050  18.771  0.00  0.00    +0.000 A 
ATOM     13  C   UNL     1      -1.045  11.922  18.726  0.00  0.00    +0.000 A 
ATOM     14  C   UNL     1      -0.451  10.659  18.809  0.00  0.00    +0.000 A 
ATOM     15  C   UNL     1       0.933  10.517  18.993  0.00  0.00    +0.000 A 
ATOM     16  C   UNL     1       1.767  11.645  19.064  0.00  0.00    +0.000 A 
ATOM     17  C   UNL     1       1.154  12.896  18.916  0.00  0.00    +0.000 A 
BRANCH  10  18
ATOM     18  C   UNL     1       0.686  16.538  18.730  0.00  0.00    +0.000 C 
ATOM     19  C   UNL     1      -0.499  17.188  18.022  0.00  0.00    +0.000 C 
ATOM     20  C   UNL     1      -0.493  18.624  18.524  0.00  0.00    +0.000 C 
ATOM     21  C   UNL     1       0.113  18.581  19.924  0.00  0.00    +0.000 C 
ATOM     22  C   UNL     1       0.637  17.163  20.129  0.00  0.00    +0.000 C 
ENDBRANCH  10  18
ENDBRANCH   1  15
BRANCH   4  23
ATOM     23  O   UNL     1       3.089   5.355  19.005  0.00  0.00    +0.000 OA
BRANCH  23  24
ATOM     24  C   UNL     1       4.469   5.227  19.349  0.00  0.00    +0.000 C 
BRANCH  24  25
ATOM     25  C   UNL     1       5.285   5.137  18.087  0.00  0.00    +0.000 A 
ATOM     26  C   UNL     1       4.950   4.217  17.082  0.00  0.00    +0.000 A 
ATOM     27  C   UNL     1       5.703   4.153  15.915  0.00  0.00    +0.000 A 
ATOM     28  C   UNL     1       6.796   4.999  15.758  0.00  0.00    +0.000 A 
ATOM     29  F   UNL     1       7.519   4.937  14.633  0.00  0.00    +0.000 F 
ATOM     30  C   UNL     1       7.152   5.907  16.748  0.00  0.00    +0.000 A 
ATOM     31  C   UNL     1       6.397   5.974  17.916  0.00  0.00    +0.000 A 
ENDBRANCH  24  25
ENDBRANCH  23  24
ENDBRANCH   4  23
TORSDOF 5
ENDMDL
MODEL 3
REMARK VINA RESULT:      -8.5      0.914      1.529
REMARK  Name = 
REMARK  6 active torsions:
REMARK  status: ('A' for Active; 'I' for Inactive)
REMARK    1  A    between atoms: C_1  and  N_2
REMARK    2  A    between atoms: C_3  and  C_4
REMARK    3  A    between atoms: C_13  and  N_14
REMARK    4  A    between atoms: C_17  and  O_18
REMARK    5  A    between atoms: O_18  and  C_19
REMARK    6  A    between atoms: C_19  and  C_20
REMARK                            x       y       z     vdW  Elec       q    Type
REMARK                         _______ _______ _______ _____ _____    ______ ____
ROOT
ATOM      1  N   UNL     1       1.973   7.624  19.647  0.00  0.00    +0.000 N 
ATOM      2  C   UNL     1       2.551   8.071  18.469  0.00  0.00    +0.000 A 
ATOM      3  C   UNL     1       3.111   7.232  17.594  0.00  0.00    +0.000 A 
ATOM      4  C   UNL     1       3.113   5.813  17.857  0.00  0.00    +0.000 A 
ATOM      5  C   UNL     1       2.545   5.338  18.971  0.00  0.00    +0.000 A 
ATOM      6  C   UNL     1       1.953   6.260  19.981  0.00  0.00    +0.000 A 
ATOM      7  O   UNL     1       1.468   5.769  21.000  0.00  0.00    +0.000 OA
ENDROOT
BRANCH   1  15
ATOM      8  C   UNL     1      -1.753  11.691  19.588  0.00  0.00    +0.000 C 
ATOM      9  N   UNL     1      -1.087  11.365  20.826  0.00  0.00    +0.000 N 
ATOM     10  C   UNL     1      -1.314  11.899  22.075  0.00  0.00    +0.000 A 
ATOM     11  N   UNL     1      -0.625  11.240  22.987  0.00  0.00    +0.000 NA
ATOM     12  C   UNL     1       0.104  10.300  22.312  0.00  0.00    +0.000 A 
ATOM     13  C   UNL     1       0.986   9.336  22.811  0.00  0.00    +0.000 A 
ATOM     14  C   UNL     1       1.589   8.455  21.908  0.00  0.00    +0.000 A 
ATOM     15  C   UNL     1       1.369   8.567  20.526  0.00  0.00    +0.000 A 
ATOM     16  C   UNL     1       0.505   9.549  20.015  0.00  0.00    +0.000 A 
ATOM     17  C   UNL     1      -0.135  10.377  20.947  0.00  0.00    +0.000 A 
BRANCH  10  18
ATOM     18  C   UNL     1      -2.232  13.044  22.365  0.00  0.00    +0.000 C 
ATOM     19  C   UNL     1      -3.618  12.576  22.799  0.00  0.00    +0.000 C 
ATOM     20  C   UNL     1      -4.210  13.779  23.519  0.00  0.00    +0.000 C 
ATOM     21  C   UNL     1      -3.028  14.541  24.111  0.00  0.00    +0.000 C 
ATOM     22  C   UNL     1      -1.766  13.890  23.554  0.00  0.00    +0.000 C 
ENDBRANCH  10  18
ENDBRANCH   1  15
BRANCH   4  23
ATOM     23  O   UNL     1       3.681   4.940  16.950  0.00  0.00    +0.000 OA
BRANCH  23  24
ATOM     24  C   UNL     1       4.809   4.191  17.404  0.00  0.00    +0.000 C 
BRANCH  24  25
ATOM     25  C   UNL     1       5.904   5.144  17.801  0.00  0.00    +0.000 A 
ATOM     26  C   UNL     1       6.507   5.056  19.065  0.00  0.00    +0.000 A 
ATOM     27  C   UNL     1       7.528   5.934  19.414  0.00  0.00    +0.000 A 
ATOM     28  C   UNL     1       7.936   6.905  18.506  0.00  0.00    +0.000 A 
ATOM     29  F   UNL     1       8.920   7.748  18.843  0.00  0.00    +0.000 F 
ATOM     30  C   UNL     1       7.342   7.017  17.254  0.00  0.00    +0.000 A 
ATOM     31  C   UNL     1       6.322   6.137  16.902  0.00  0.00    +0.000 A 
ENDBRANCH  24  25
ENDBRANCH  23  24
ENDBRANCH   4  23
TORSDOF 5
ENDMDL
MODEL 4
REMARK VINA RESULT:      -8.4      2.449      3.386
REMARK  Name = 
REMARK  6 active torsions:
REMARK  status: ('A' for Active; 'I' for Inactive)
REMARK    1  A    between atoms: C_1  and  N_2
REMARK    2  A    between atoms: C_3  and  C_4
REMARK    3  A    between atoms: C_13  and  N_14
REMARK    4  A    between atoms: C_17  and  O_18
REMARK    5  A    between atoms: O_18  and  C_19
REMARK    6  A    between atoms: C_19  and  C_20
REMARK                            x       y       z     vdW  Elec       q    Type
REMARK                         _______ _______ _______ _____ _____    ______ ____
ROOT
ATOM      1  N   UNL     1       2.511   7.588  18.787  0.00  0.00    +0.000 N 
ATOM      2  C   UNL     1       3.375   7.861  17.737  0.00  0.00    +0.000 A 
ATOM      3  C   UNL     1       4.285   6.977  17.323  0.00  0.00    +0.000 A 
ATOM      4  C   UNL     1       4.383   5.688  17.965  0.00  0.00    +0.000 A 
ATOM      5  C   UNL     1       3.553   5.375  18.966  0.00  0.00    +0.000 A 
ATOM      6  C   UNL     1       2.558   6.362  19.472  0.00  0.00    +0.000 A 
ATOM      7  O   UNL     1       1.839   6.030  20.414  0.00  0.00    +0.000 OA
ENDROOT
BRANCH   1  15
ATOM      8  C   UNL     1       0.111   9.654  23.304  0.00  0.00    +0.000 C 
ATOM      9  N   UNL     1      -0.265  10.167  22.009  0.00  0.00    +0.000 N 
ATOM     10  C   UNL     1      -1.128  11.204  21.728  0.00  0.00    +0.000 A 
ATOM     11  N   UNL     1      -1.099  11.488  20.439  0.00  0.00    +0.000 NA
ATOM     12  C   UNL     1      -0.248  10.583  19.866  0.00  0.00    +0.000 A 
ATOM     13  C   UNL     1       0.141  10.456  18.529  0.00  0.00    +0.000 A 
ATOM     14  C   UNL     1       1.063   9.459  18.196  0.00  0.00    +0.000 A 
ATOM     15  C   UNL     1       1.544   8.562  19.163  0.00  0.00    +0.000 A 
ATOM     16  C   UNL     1       1.138   8.666  20.503  0.00  0.00    +0.000 A 
ATOM     17  C   UNL     1       0.263   9.714  20.821  0.00  0.00    +0.000 A 
BRANCH  10  18
ATOM     18  C   UNL     1      -1.957  11.929  22.740  0.00  0.00    +0.000 C 
ATOM     19  C   UNL     1      -1.269  13.191  23.253  0.00  0.00    +0.000 C 
ATOM     20  C   UNL     1      -2.403  14.026  23.829  0.00  0.00    +0.000 C 
ATOM     21  C   UNL     1      -3.650  13.652  23.035  0.00  0.00    +0.000 C 
ATOM     22  C   UNL     1      -3.269  12.464  22.157  0.00  0.00    +0.000 C 
ENDBRANCH  10  18
ENDBRANCH   1  15
BRANCH   4  23
ATOM     23  O   UNL     1       5.316   4.766  17.533  0.00  0.00    +0.000 OA
BRANCH  23  24
ATOM     24  C   UNL     1       4.880   3.833  16.543  0.00  0.00    +0.000 C 
BRANCH  24  25
ATOM     25  C   UNL     1       5.639   4.081  15.266  0.00  0.00    +0.000 A 
ATOM     26  C   UNL     1       5.222   3.499  14.060  0.00  0.00    +0.000 A 
ATOM     27  C   UNL     1       5.924   3.747  12.886  0.00  0.00    +0.000 A 
ATOM     28  C   UNL     1       7.048   4.567  12.920  0.00  0.00    +0.000 A 
ATOM     29  F   UNL     1       7.721   4.806  11.787  0.00  0.00    +0.000 F 
ATOM     30  C   UNL     1       7.484   5.143  14.106  0.00  0.00    +0.000 A 
ATOM     31  C   UNL     1       6.781   4.897  15.283  0.00  0.00    +0.000 A 
ENDBRANCH  24  25
ENDBRANCH  23  24
ENDBRANCH   4  23
TORSDOF 5
ENDMDL
MODEL 5
REMARK VINA RESULT:      -8.4      3.339      4.356
REMARK  Name = 
REMARK  6 active torsions:
REMARK  status: ('A' for Active; 'I' for Inactive)
REMARK    1  A    between atoms: C_1  and  N_2
REMARK    2  A    between atoms: C_3  and  C_4
REMARK    3  A    between atoms: C_13  and  N_14
REMARK    4  A    between atoms: C_17  and  O_18
REMARK    5  A    between atoms: O_18  and  C_19
REMARK    6  A    between atoms: C_19  and  C_20
REMARK                            x       y       z     vdW  Elec       q    Type
REMARK                         _______ _______ _______ _____ _____    ______ ____
ROOT
ATOM      1  N   UNL     1       1.236   9.258  19.390  0.00  0.00    +0.000 N 
ATOM      2  C   UNL     1       1.075   8.616  20.609  0.00  0.00    +0.000 A 
ATOM      3  C   UNL     1       1.596   7.410  20.846  0.00  0.00    +0.000 A 
ATOM      4  C   UNL     1       2.362   6.741  19.822  0.00  0.00    +0.000 A 
ATOM      5  C   UNL     1       2.560   7.336  18.640  0.00  0.00    +0.000 A 
ATOM      6  C   UNL     1       1.954   8.663  18.340  0.00  0.00    +0.000 A 
ATOM      7  O   UNL     1       2.146   9.150  17.226  0.00  0.00    +0.000 OA
ENDROOT
BRANCH   1  15
ATOM      8  C   UNL     1       2.637  14.573  19.848  0.00  0.00    +0.000 C 
ATOM      9  N   UNL     1       1.302  14.231  19.420  0.00  0.00    +0.000 N 
ATOM     10  C   UNL     1       0.298  15.084  19.016  0.00  0.00    +0.000 A 
ATOM     11  N   UNL     1      -0.726  14.397  18.547  0.00  0.00    +0.000 NA
ATOM     12  C   UNL     1      -0.405  13.077  18.702  0.00  0.00    +0.000 A 
ATOM     13  C   UNL     1      -1.141  11.939  18.354  0.00  0.00    +0.000 A 
ATOM     14  C   UNL     1      -0.573  10.683  18.587  0.00  0.00    +0.000 A 
ATOM     15  C   UNL     1       0.678  10.555  19.210  0.00  0.00    +0.000 A 
ATOM     16  C   UNL     1       1.412  11.692  19.585  0.00  0.00    +0.000 A 
ATOM     17  C   UNL     1       0.848  12.939  19.284  0.00  0.00    +0.000 A 
BRANCH  10  18
ATOM     18  C   UNL     1       0.368  16.577  19.070  0.00  0.00    +0.000 C 
ATOM     19  C   UNL     1       1.220  17.157  17.944  0.00  0.00    +0.000 C 
ATOM     20  C   UNL     1       0.770  18.607  17.844  0.00  0.00    +0.000 C 
ATOM     21  C   UNL     1      -0.686  18.631  18.298  0.00  0.00    +0.000 C 
ATOM     22  C   UNL     1      -0.995  17.242  18.848  0.00  0.00    +0.000 C 
ENDBRANCH  10  18
ENDBRANCH   1  15
BRANCH   4  23
ATOM     23  O   UNL     1       2.912   5.498  20.066  0.00  0.00    +0.000 OA
BRANCH  23  24
ATOM     24  C   UNL     1       2.788   4.530  19.024  0.00  0.00    +0.000 C 
BRANCH  24  25
ATOM     25  C   UNL     1       4.070   4.488  18.235  0.00  0.00    +0.000 A 
ATOM     26  C   UNL     1       5.302   4.735  18.858  0.00  0.00    +0.000 A 
ATOM     27  C   UNL     1       6.480   4.680  18.121  0.00  0.00    +0.000 A 
ATOM     28  C   UNL     1       6.424   4.391  16.762  0.00  0.00    +0.000 A 
ATOM     29  F   UNL     1       7.560   4.337  16.054  0.00  0.00    +0.000 F 
ATOM     30  C   UNL     1       5.212   4.157  16.124  0.00  0.00    +0.000 A 
ATOM     31  C   UNL     1       4.031   4.209  16.861  0.00  0.00    +0.000 A 
ENDBRANCH  24  25
ENDBRANCH  23  24
ENDBRANCH   4  23
TORSDOF 5
ENDMDL
MODEL 6
REMARK VINA RESULT:      -8.4      3.035      3.883
REMARK  Name = 
REMARK  6 active torsions:
REMARK  status: ('A' for Active; 'I' for Inactive)
REMARK    1  A    between atoms: C_1  and  N_2
REMARK    2  A    between atoms: C_3  and  C_4
REMARK    3  A    between atoms: C_13  and  N_14
REMARK    4  A    between atoms: C_17  and  O_18
REMARK    5  A    between atoms: O_18  and  C_19
REMARK    6  A    between atoms: C_19  and  C_20
REMARK                            x       y       z     vdW  Elec       q    Type
REMARK                         _______ _______ _______ _____ _____    ______ ____
ROOT
ATOM      1  N   UNL     1       1.421   9.140  19.073  0.00  0.00    +0.000 N 
ATOM      2  C   UNL     1       1.751   8.642  17.822  0.00  0.00    +0.000 A 
ATOM      3  C   UNL     1       2.245   7.412  17.659  0.00  0.00    +0.000 A 
ATOM      4  C   UNL     1       2.440   6.556  18.804  0.00  0.00    +0.000 A 
ATOM      5  C   UNL     1       2.113   6.989  20.026  0.00  0.00    +0.000 A 
ATOM      6  C   UNL     1       1.599   8.372  20.236  0.00  0.00    +0.000 A 
ATOM      7  O   UNL     1       1.340   8.727  21.386  0.00  0.00    +0.000 OA
ENDROOT
BRANCH   1  15
ATOM      8  C   UNL     1       2.807  14.402  18.166  0.00  0.00    +0.000 C 
ATOM      9  N   UNL     1       1.493  14.098  18.680  0.00  0.00    +0.000 N 
ATOM     10  C   UNL     1       0.455  14.972  18.919  0.00  0.00    +0.000 A 
ATOM     11  N   UNL     1      -0.640  14.307  19.235  0.00  0.00    +0.000 NA
ATOM     12  C   UNL     1      -0.293  12.985  19.259  0.00  0.00    +0.000 A 
ATOM     13  C   UNL     1      -1.086  11.864  19.526  0.00  0.00    +0.000 A 
ATOM     14  C   UNL     1      -0.496  10.598  19.452  0.00  0.00    +0.000 A 
ATOM     15  C   UNL     1       0.872  10.450  19.177  0.00  0.00    +0.000 A 
ATOM     16  C   UNL     1       1.682  11.570  18.933  0.00  0.00    +0.000 A 
ATOM     17  C   UNL     1       1.052  12.822  18.951  0.00  0.00    +0.000 A 
BRANCH  10  18
ATOM     18  C   UNL     1       0.544  16.461  18.806  0.00  0.00    +0.000 C 
ATOM     19  C   UNL     1      -0.642  17.054  18.050  0.00  0.00    +0.000 C 
ATOM     20  C   UNL     1      -0.658  18.517  18.469  0.00  0.00    +0.000 C 
ATOM     21  C   UNL     1      -0.066  18.560  19.875  0.00  0.00    +0.000 C 
ATOM     22  C   UNL     1       0.472  17.163  20.166  0.00  0.00    +0.000 C 
ENDBRANCH  10  18
ENDBRANCH   1  15
BRANCH   4  23
ATOM     23  O   UNL     1       2.941   5.280  18.639  0.00  0.00    +0.000 OA
BRANCH  23  24
ATOM     24  C   UNL     1       3.834   5.082  17.542  0.00  0.00    +0.000 C 
BRANCH  24  25
ATOM     25  C   UNL     1       5.185   5.643  17.901  0.00  0.00    +0.000 A 
ATOM     26  C   UNL     1       5.885   5.165  19.018  0.00  0.00    +0.000 A 
ATOM     27  C   UNL     1       7.138   5.682  19.329  0.00  0.00    +0.000 A 
ATOM     28  C   UNL     1       7.683   6.683  18.532  0.00  0.00    +0.000 A 
ATOM     29  F   UNL     1       8.890   7.178  18.833  0.00  0.00    +0.000 F 
ATOM     30  C   UNL     1       6.999   7.178  17.429  0.00  0.00    +0.000 A 
ATOM     31  C   UNL     1       5.746   6.660  17.113  0.00  0.00    +0.000 A 
ENDBRANCH  24  25
ENDBRANCH  23  24
ENDBRANCH   4  23
TORSDOF 5
ENDMDL
MODEL 7
REMARK VINA RESULT:      -8.3      1.791      2.154
REMARK  Name = 
REMARK  6 active torsions:
REMARK  status: ('A' for Active; 'I' for Inactive)
REMARK    1  A    between atoms: C_1  and  N_2
REMARK    2  A    between atoms: C_3  and  C_4
REMARK    3  A    between atoms: C_13  and  N_14
REMARK    4  A    between atoms: C_17  and  O_18
REMARK    5  A    between atoms: O_18  and  C_19
REMARK    6  A    between atoms: C_19  and  C_20
REMARK                            x       y       z     vdW  Elec       q    Type
REMARK                         _______ _______ _______ _____ _____    ______ ____
ROOT
ATOM      1  N   UNL     1       1.692   7.616  20.039  0.00  0.00    +0.000 N 
ATOM      2  C   UNL     1       1.724   6.369  20.644  0.00  0.00    +0.000 A 
ATOM      3  C   UNL     1       2.350   5.330  20.088  0.00  0.00    +0.000 A 
ATOM      4  C   UNL     1       3.030   5.490  18.825  0.00  0.00    +0.000 A 
ATOM      5  C   UNL     1       3.043   6.682  18.219  0.00  0.00    +0.000 A 
ATOM      6  C   UNL     1       2.316   7.845  18.802  0.00  0.00    +0.000 A 
ATOM      7  O   UNL     1       2.339   8.911  18.187  0.00  0.00    +0.000 OA
ENDROOT
BRANCH   1  15
ATOM      8  C   UNL     1      -1.939  11.636  18.993  0.00  0.00    +0.000 C 
ATOM      9  N   UNL     1      -1.390  11.511  20.322  0.00  0.00    +0.000 N 
ATOM     10  C   UNL     1      -1.715  12.241  21.443  0.00  0.00    +0.000 A 
ATOM     11  N   UNL     1      -1.122  11.735  22.508  0.00  0.00    +0.000 NA
ATOM     12  C   UNL     1      -0.354  10.695  22.061  0.00  0.00    +0.000 A 
ATOM     13  C   UNL     1       0.462   9.821  22.786  0.00  0.00    +0.000 A 
ATOM     14  C   UNL     1       1.126   8.803  22.093  0.00  0.00    +0.000 A 
ATOM     15  C   UNL     1       1.030   8.692  20.697  0.00  0.00    +0.000 A 
ATOM     16  C   UNL     1       0.233   9.581  19.959  0.00  0.00    +0.000 A 
ATOM     17  C   UNL     1      -0.471  10.552  20.685  0.00  0.00    +0.000 A 
BRANCH  10  18
ATOM     18  C   UNL     1      -2.634  13.421  21.462  0.00  0.00    +0.000 C 
ATOM     19  C   UNL     1      -4.092  13.015  21.654  0.00  0.00    +0.000 C 
ATOM     20  C   UNL     1      -4.771  14.283  22.152  0.00  0.00    +0.000 C 
ATOM     21  C   UNL     1      -3.700  15.070  22.901  0.00  0.00    +0.000 C 
ATOM     22  C   UNL     1      -2.377  14.354  22.651  0.00  0.00    +0.000 C 
ENDBRANCH  10  18
ENDBRANCH   1  15
BRANCH   4  23
ATOM     23  O   UNL     1       3.688   4.420  18.251  0.00  0.00    +0.000 OA
BRANCH  23  24
ATOM     24  C   UNL     1       5.113   4.424  18.342  0.00  0.00    +0.000 C 
BRANCH  24  25
ATOM     25  C   UNL     1       5.695   4.526  16.957  0.00  0.00    +0.000 A 
ATOM     26  C   UNL     1       4.910   4.250  15.828  0.00  0.00    +0.000 A 
ATOM     27  C   UNL     1       5.456   4.362  14.555  0.00  0.00    +0.000 A 
ATOM     28  C   UNL     1       6.787   4.737  14.410  0.00  0.00    +0.000 A 
ATOM     29  F   UNL     1       7.310   4.846  13.183  0.00  0.00    +0.000 F 
ATOM     30  C   UNL     1       7.585   5.002  15.517  0.00  0.00    +0.000 A 
ATOM     31  C   UNL     1       7.039   4.893  16.794  0.00  0.00    +0.000 A 
ENDBRANCH  24  25
ENDBRANCH  23  24
ENDBRANCH   4  23
TORSDOF 5
ENDMDL
MODEL 8
REMARK VINA RESULT:      -8.3      3.442      4.486
REMARK  Name = 
REMARK  6 active torsions:
REMARK  status: ('A' for Active; 'I' for Inactive)
REMARK    1  A    between atoms: C_1  and  N_2
REMARK    2  A    between atoms: C_3  and  C_4
REMARK    3  A    between atoms: C_13  and  N_14
REMARK    4  A    between atoms: C_17  and  O_18
REMARK    5  A    between atoms: O_18  and  C_19
REMARK    6  A    between atoms: C_19  and  C_20
REMARK                            x       y       z     vdW  Elec       q    Type
REMARK                         _______ _______ _______ _____ _____    ______ ____
ROOT
ATOM      1  N   UNL     1       1.306   9.226  19.429  0.00  0.00    +0.000 N 
ATOM      2  C   UNL     1       1.995   8.607  18.397  0.00  0.00    +0.000 A 
ATOM      3  C   UNL     1       2.515   7.384  18.528  0.00  0.00    +0.000 A 
ATOM      4  C   UNL     1       2.357   6.663  19.768  0.00  0.00    +0.000 A 
ATOM      5  C   UNL     1       1.679   7.214  20.780  0.00  0.00    +0.000 A 
ATOM      6  C   UNL     1       1.127   8.594  20.670  0.00  0.00    +0.000 A 
ATOM      7  O   UNL     1       0.535   9.061  21.643  0.00  0.00    +0.000 OA
ENDROOT
BRANCH   1  15
ATOM      8  C   UNL     1       2.718  14.548  19.760  0.00  0.00    +0.000 C 
ATOM      9  N   UNL     1       1.383  14.199  19.339  0.00  0.00    +0.000 N 
ATOM     10  C   UNL     1       0.381  15.044  18.914  0.00  0.00    +0.000 A 
ATOM     11  N   UNL     1      -0.644  14.348  18.462  0.00  0.00    +0.000 NA
ATOM     12  C   UNL     1      -0.327  13.031  18.649  0.00  0.00    +0.000 A 
ATOM     13  C   UNL     1      -1.065  11.887  18.328  0.00  0.00    +0.000 A 
ATOM     14  C   UNL     1      -0.499  10.635  18.590  0.00  0.00    +0.000 A 
ATOM     15  C   UNL     1       0.752  10.520  19.217  0.00  0.00    +0.000 A 
ATOM     16  C   UNL     1       1.488  11.664  19.566  0.00  0.00    +0.000 A 
ATOM     17  C   UNL     1       0.926  12.904  19.234  0.00  0.00    +0.000 A 
BRANCH  10  18
ATOM     18  C   UNL     1       0.454  16.538  18.933  0.00  0.00    +0.000 C 
ATOM     19  C   UNL     1       1.361  17.085  17.835  0.00  0.00    +0.000 C 
ATOM     20  C   UNL     1       0.923  18.534  17.676  0.00  0.00    +0.000 C 
ATOM     21  C   UNL     1      -0.554  18.573  18.058  0.00  0.00    +0.000 C 
ATOM     22  C   UNL     1      -0.894  17.200  18.628  0.00  0.00    +0.000 C 
ENDBRANCH  10  18
ENDBRANCH   1  15
BRANCH   4  23
ATOM     23  O   UNL     1       2.884   5.394  19.904  0.00  0.00    +0.000 OA
BRANCH  23  24
ATOM     24  C   UNL     1       2.806   4.544  18.759  0.00  0.00    +0.000 C 
BRANCH  24  25
ATOM     25  C   UNL     1       4.147   4.515  18.075  0.00  0.00    +0.000 A 
ATOM     26  C   UNL     1       5.314   4.865  18.772  0.00  0.00    +0.000 A 
ATOM     27  C   UNL     1       6.548   4.821  18.132  0.00  0.00    +0.000 A 
ATOM     28  C   UNL     1       6.614   4.441  16.796  0.00  0.00    +0.000 A 
ATOM     29  F   UNL     1       7.803   4.397  16.183  0.00  0.00    +0.000 F 
ATOM     30  C   UNL     1       5.468   4.103  16.086  0.00  0.00    +0.000 A 
ATOM     31  C   UNL     1       4.231   4.144  16.725  0.00  0.00    +0.000 A 
ENDBRANCH  24  25
ENDBRANCH  23  24
ENDBRANCH   4  23
TORSDOF 5
ENDMDL
MODEL 9
REMARK VINA RESULT:      -8.3      3.641      4.866
REMARK  Name = 
REMARK  6 active torsions:
REMARK  status: ('A' for Active; 'I' for Inactive)
REMARK    1  A    between atoms: C_1  and  N_2
REMARK    2  A    between atoms: C_3  and  C_4
REMARK    3  A    between atoms: C_13  and  N_14
REMARK    4  A    between atoms: C_17  and  O_18
REMARK    5  A    between atoms: O_18  and  C_19
REMARK    6  A    between atoms: C_19  and  C_20
REMARK                            x       y       z     vdW  Elec       q    Type
REMARK                         _______ _______ _______ _____ _____    ______ ____
ROOT
ATOM      1  N   UNL     1       1.645   9.095  18.884  0.00  0.00    +0.000 N 
ATOM      2  C   UNL     1       2.223   8.832  17.651  0.00  0.00    +0.000 A 
ATOM      3  C   UNL     1       2.944   7.731  17.428  0.00  0.00    +0.000 A 
ATOM      4  C   UNL     1       3.129   6.765  18.485  0.00  0.00    +0.000 A 
ATOM      5  C   UNL     1       2.569   6.969  19.682  0.00  0.00    +0.000 A 
ATOM      6  C   UNL     1       1.796   8.211  19.965  0.00  0.00    +0.000 A 
ATOM      7  O   UNL     1       1.326   8.357  21.093  0.00  0.00    +0.000 OA
ENDROOT
BRANCH   1  15
ATOM      8  C   UNL     1       2.237  14.576  19.074  0.00  0.00    +0.000 C 
ATOM      9  N   UNL     1       0.921  14.004  19.232  0.00  0.00    +0.000 N 
ATOM     10  C   UNL     1      -0.280  14.666  19.355  0.00  0.00    +0.000 A 
ATOM     11  N   UNL     1      -1.282  13.808  19.320  0.00  0.00    +0.000 NA
ATOM     12  C   UNL     1      -0.720  12.565  19.230  0.00  0.00    +0.000 A 
ATOM     13  C   UNL     1      -1.341  11.314  19.150  0.00  0.00    +0.000 A 
ATOM     14  C   UNL     1      -0.535  10.178  19.029  0.00  0.00    +0.000 A 
ATOM     15  C   UNL     1       0.865  10.274  19.049  0.00  0.00    +0.000 A 
ATOM     16  C   UNL     1       1.497  11.523  19.156  0.00  0.00    +0.000 A 
ATOM     17  C   UNL     1       0.666  12.651  19.212  0.00  0.00    +0.000 A 
BRANCH  10  18
ATOM     18  C   UNL     1      -0.434  16.149  19.479  0.00  0.00    +0.000 C 
ATOM     19  C   UNL     1      -0.558  16.832  18.121  0.00  0.00    +0.000 C 
ATOM     20  C   UNL     1      -1.201  18.175  18.436  0.00  0.00    +0.000 C 
ATOM     21  C   UNL     1      -2.053  17.954  19.682  0.00  0.00    +0.000 C 
ATOM     22  C   UNL     1      -1.731  16.552  20.188  0.00  0.00    +0.000 C 
ENDBRANCH  10  18
ENDBRANCH   1  15
BRANCH   4  23
ATOM     23  O   UNL     1       3.865   5.619  18.256  0.00  0.00    +0.000 OA
BRANCH  23  24
ATOM     24  C   UNL     1       3.131   4.455  17.875  0.00  0.00    +0.000 C 
BRANCH  24  25
ATOM     25  C   UNL     1       2.541   3.820  19.107  0.00  0.00    +0.000 A 
ATOM     26  C   UNL     1       1.150   3.725  19.267  0.00  0.00    +0.000 A 
ATOM     27  C   UNL     1       0.619   3.124  20.403  0.00  0.00    +0.000 A 
ATOM     28  C   UNL     1       1.475   2.631  21.381  0.00  0.00    +0.000 A 
ATOM     29  F   UNL     1       0.961   2.051  22.473  0.00  0.00    +0.000 F 
ATOM     30  C   UNL     1       2.855   2.728  21.247  0.00  0.00    +0.000 A 
ATOM     31  C   UNL     1       3.390   3.327  20.109  0.00  0.00    +0.000 A 
ENDBRANCH  24  25
ENDBRANCH  23  24
ENDBRANCH   4  23
TORSDOF 5
ENDMDL
