MODEL 1
REMARK VINA RESULT:      -7.1      0.000      0.000
REMARK  Name = 
REMARK  6 active torsions:
REMARK  status: ('A' for Active; 'I' for Inactive)
REMARK    1  A    between atoms: C_2  and  C_3
REMARK    2  A    between atoms: C_3  and  C_4
REMARK    3  A    between atoms: N_10  and  C_11
REMARK    4  A    between atoms: C_11  and  C_12
REMARK    5  A    between atoms: C_15  and  O_16
REMARK    6  A    between atoms: C_17  and  O_18
REMARK                            x       y       z     vdW  Elec       q    Type
REMARK                         _______ _______ _______ _____ _____    ______ ____
ROOT
ATOM      1  O   UNL     1       1.665   6.180  21.063  0.00  0.00    +0.000 OA
ATOM      2  C   UNL     1       1.998   5.920  19.911  0.00  0.00    +0.000 C 
ATOM      3  N   UNL     1       2.902   6.722  19.261  0.00  0.00    +0.000 N 
ATOM      4  H   UNL     1       3.132   7.582  19.743  0.00  0.00    +0.000 HD
ENDROOT
BRANCH   2   5
ATOM      5  C   UNL     1       1.458   4.751  19.100  0.00  0.00    +0.000 C 
BRANCH   5   6
ATOM      6  C   UNL     1       1.407   3.390  19.808  0.00  0.00    +0.000 C 
ATOM      7  C   UNL     1       1.144   2.279  18.769  0.00  0.00    +0.000 C 
ATOM      8  C   UNL     1       2.356   1.999  17.875  0.00  0.00    +0.000 C 
ATOM      9  C   UNL     1       3.613   1.713  18.690  0.00  0.00    +0.000 C 
ATOM     10  C   UNL     1       3.888   2.794  19.730  0.00  0.00    +0.000 C 
ATOM     11  C   UNL     1       2.668   3.043  20.612  0.00  0.00    +0.000 C 
ENDBRANCH   5   6
ENDBRANCH   2   5
BRANCH   3  12
ATOM     12  C   UNL     1       3.368   6.512  17.910  0.00  0.00    +0.000 C 
BRANCH  12  13
ATOM     13  C   UNL     1       4.683   5.793  17.848  0.00  0.00    +0.000 A 
ATOM     14  C   UNL     1       5.111   5.149  16.677  0.00  0.00    +0.000 A 
ATOM     15  C   UNL     1       6.370   4.539  16.614  0.00  0.00    +0.000 A 
ATOM     16  C   UNL     1       7.195   4.585  17.734  0.00  0.00    +0.000 A 
ATOM     17  C   UNL     1       6.768   5.216  18.898  0.00  0.00    +0.000 A 
ATOM     18  C   UNL     1       5.527   5.820  18.969  0.00  0.00    +0.000 A 
BRANCH  16  19
ATOM     19  O   UNL     1       8.442   4.025  17.737  0.00  0.00    +0.000 OA
ATOM     20  H   UNL     1       8.408   3.204  17.222  0.00  0.00    +0.000 HD
ENDBRANCH  16  19
BRANCH  17  21
ATOM     21  O   UNL     1       7.588   5.270  19.989  0.00  0.00    +0.000 OA
ATOM     22  H   UNL     1       6.993   5.182  20.756  0.00  0.00    +0.000 HD
ENDBRANCH  17  21
ENDBRANCH  12  13
ENDBRANCH   3  12
TORSDOF 6
ENDMDL
MODEL 2
REMARK VINA RESULT:      -6.8      2.178      4.548
REMARK  Name = 
REMARK  6 active torsions:
REMARK  status: ('A' for Active; 'I' for Inactive)
REMARK    1  A    between atoms: C_2  and  C_3
REMARK    2  A    between atoms: C_3  and  C_4
REMARK    3  A    between atoms: N_10  and  C_11
REMARK    4  A    between atoms: C_11  and  C_12
REMARK    5  A    between atoms: C_15  and  O_16
REMARK    6  A    between atoms: C_17  and  O_18
REMARK                            x       y       z     vdW  Elec       q    Type
REMARK                         _______ _______ _______ _____ _____    ______ ____
ROOT
ATOM      1  O   UNL     1       2.839   8.115  16.945  0.00  0.00    +0.000 OA
ATOM      2  C   UNL     1       3.159   7.339  17.841  0.00  0.00    +0.000 C 
ATOM      3  N   UNL     1       2.205   6.849  18.697  0.00  0.00    +0.000 N 
ATOM      4  H   UNL     1       1.296   7.287  18.617  0.00  0.00    +0.000 HD
ENDROOT
BRANCH   2   5
ATOM      5  C   UNL     1       4.581   6.870  18.107  0.00  0.00    +0.000 C 
BRANCH   5   6
ATOM      6  C   UNL     1       5.536   6.850  16.904  0.00  0.00    +0.000 C 
ATOM      7  C   UNL     1       6.987   7.040  17.395  0.00  0.00    +0.000 C 
ATOM      8  C   UNL     1       7.539   5.806  18.114  0.00  0.00    +0.000 C 
ATOM      9  C   UNL     1       7.398   4.543  17.272  0.00  0.00    +0.000 C 
ATOM     10  C   UNL     1       5.972   4.339  16.768  0.00  0.00    +0.000 C 
ATOM     11  C   UNL     1       5.452   5.579  16.047  0.00  0.00    +0.000 C 
ENDBRANCH   5   6
ENDBRANCH   2   5
BRANCH   3  12
ATOM     12  C   UNL     1       2.465   5.931  19.782  0.00  0.00    +0.000 C 
BRANCH  12  13
ATOM     13  C   UNL     1       2.789   4.545  19.311  0.00  0.00    +0.000 A 
ATOM     14  C   UNL     1       2.135   3.975  18.207  0.00  0.00    +0.000 A 
ATOM     15  C   UNL     1       2.495   2.705  17.738  0.00  0.00    +0.000 A 
ATOM     16  C   UNL     1       3.517   2.016  18.384  0.00  0.00    +0.000 A 
ATOM     17  C   UNL     1       4.160   2.576  19.482  0.00  0.00    +0.000 A 
ATOM     18  C   UNL     1       3.812   3.829  19.952  0.00  0.00    +0.000 A 
BRANCH  16  19
ATOM     19  O   UNL     1       3.930   0.781  17.969  0.00  0.00    +0.000 OA
ATOM     20  H   UNL     1       3.447   0.555  17.159  0.00  0.00    +0.000 HD
ENDBRANCH  16  19
BRANCH  17  21
ATOM     21  O   UNL     1       5.173   1.901  20.103  0.00  0.00    +0.000 OA
ATOM     22  H   UNL     1       5.291   1.088  19.578  0.00  0.00    +0.000 HD
ENDBRANCH  17  21
ENDBRANCH  12  13
ENDBRANCH   3  12
TORSDOF 6
ENDMDL
MODEL 3
REMARK VINA RESULT:      -6.7      1.176      1.262
REMARK  Name = 
REMARK  6 active torsions:
REMARK  status: ('A' for Active; 'I' for Inactive)
REMARK    1  A    between atoms: C_2  and  C_3
REMARK    2  A    between atoms: C_3  and  C_4
REMARK    3  A    between atoms: N_10  and  C_11
REMARK    4  A    between atoms: C_11  and  C_12
REMARK    5  A    between atoms: C_15  and  O_16
REMARK    6  A    between atoms: C_17  and  O_18
REMARK                            x       y       z     vdW  Elec       q    Type
REMARK                         _______ _______ _______ _____ _____    ______ ____
ROOT
ATOM      1  O   UNL     1       2.029   7.571  19.558  0.00  0.00    +0.000 OA
ATOM      2  C   UNL     1       2.498   7.036  18.559  0.00  0.00    +0.000 C 
ATOM      3  N   UNL     1       3.493   7.660  17.849  0.00  0.00    +0.000 N 
ATOM      4  H   UNL     1       3.679   8.616  18.127  0.00  0.00    +0.000 HD
ENDROOT
BRANCH   2   5
ATOM      5  C   UNL     1       2.040   5.696  18.004  0.00  0.00    +0.000 C 
BRANCH   5   6
ATOM      6  C   UNL     1       1.750   4.590  19.029  0.00  0.00    +0.000 C 
ATOM      7  C   UNL     1       1.391   3.283  18.289  0.00  0.00    +0.000 C 
ATOM      8  C   UNL     1       2.601   2.627  17.618  0.00  0.00    +0.000 C 
ATOM      9  C   UNL     1       3.752   2.415  18.596  0.00  0.00    +0.000 C 
ATOM     10  C   UNL     1       4.118   3.692  19.346  0.00  0.00    +0.000 C 
ATOM     11  C   UNL     1       2.897   4.318  20.012  0.00  0.00    +0.000 C 
ENDBRANCH   5   6
ENDBRANCH   2   5
BRANCH   3  12
ATOM     12  C   UNL     1       4.120   7.124  16.663  0.00  0.00    +0.000 C 
BRANCH  12  13
ATOM     13  C   UNL     1       5.273   6.216  16.968  0.00  0.00    +0.000 A 
ATOM     14  C   UNL     1       5.495   5.041  16.232  0.00  0.00    +0.000 A 
ATOM     15  C   UNL     1       6.614   4.238  16.486  0.00  0.00    +0.000 A 
ATOM     16  C   UNL     1       7.507   4.626  17.479  0.00  0.00    +0.000 A 
ATOM     17  C   UNL     1       7.284   5.786  18.214  0.00  0.00    +0.000 A 
ATOM     18  C   UNL     1       6.183   6.585  17.972  0.00  0.00    +0.000 A 
BRANCH  16  19
ATOM     19  O   UNL     1       8.629   3.899  17.767  0.00  0.00    +0.000 OA
ATOM     20  H   UNL     1       8.968   4.191  18.628  0.00  0.00    +0.000 HD
ENDBRANCH  16  19
BRANCH  17  21
ATOM     21  O   UNL     1       8.174   6.169  19.178  0.00  0.00    +0.000 OA
ATOM     22  H   UNL     1       8.638   5.350  19.431  0.00  0.00    +0.000 HD
ENDBRANCH  17  21
ENDBRANCH  12  13
ENDBRANCH   3  12
TORSDOF 6
ENDMDL
MODEL 4
REMARK VINA RESULT:      -6.7      2.220      2.938
REMARK  Name = 
REMARK  6 active torsions:
REMARK  status: ('A' for Active; 'I' for Inactive)
REMARK    1  A    between atoms: C_2  and  C_3
REMARK    2  A    between atoms: C_3  and  C_4
REMARK    3  A    between atoms: N_10  and  C_11
REMARK    4  A    between atoms: C_11  and  C_12
REMARK    5  A    between atoms: C_15  and  O_16
REMARK    6  A    between atoms: C_17  and  O_18
REMARK                            x       y       z     vdW  Elec       q    Type
REMARK                         _______ _______ _______ _____ _____    ______ ____
ROOT
ATOM      1  O   UNL     1       3.800   1.292  18.236  0.00  0.00    +0.000 OA
ATOM      2  C   UNL     1       3.694   2.438  17.810  0.00  0.00    +0.000 C 
ATOM      3  N   UNL     1       4.744   3.023  17.147  0.00  0.00    +0.000 N 
ATOM      4  H   UNL     1       5.612   2.504  17.181  0.00  0.00    +0.000 HD
ENDROOT
BRANCH   2   5
ATOM      5  C   UNL     1       2.458   3.308  17.976  0.00  0.00    +0.000 C 
BRANCH   5   6
ATOM      6  C   UNL     1       2.466   4.297  19.151  0.00  0.00    +0.000 C 
ATOM      7  C   UNL     1       1.050   4.382  19.762  0.00  0.00    +0.000 C 
ATOM      8  C   UNL     1       0.665   3.128  20.552  0.00  0.00    +0.000 C 
ATOM      9  C   UNL     1       1.706   2.777  21.609  0.00  0.00    +0.000 C 
ATOM     10  C   UNL     1       3.115   2.695  21.030  0.00  0.00    +0.000 C 
ATOM     11  C   UNL     1       3.475   3.961  20.258  0.00  0.00    +0.000 C 
ENDBRANCH   5   6
ENDBRANCH   2   5
BRANCH   3  12
ATOM     12  C   UNL     1       4.731   4.361  16.601  0.00  0.00    +0.000 C 
BRANCH  12  13
ATOM     13  C   UNL     1       5.807   5.236  17.170  0.00  0.00    +0.000 A 
ATOM     14  C   UNL     1       6.063   6.514  16.649  0.00  0.00    +0.000 A 
ATOM     15  C   UNL     1       7.027   7.346  17.233  0.00  0.00    +0.000 A 
ATOM     16  C   UNL     1       7.727   6.885  18.344  0.00  0.00    +0.000 A 
ATOM     17  C   UNL     1       7.480   5.616  18.856  0.00  0.00    +0.000 A 
ATOM     18  C   UNL     1       6.531   4.788  18.286  0.00  0.00    +0.000 A 
BRANCH  16  19
ATOM     19  O   UNL     1       8.668   7.650  18.974  0.00  0.00    +0.000 OA
ATOM     20  H   UNL     1       9.393   7.070  19.255  0.00  0.00    +0.000 HD
ENDBRANCH  16  19
BRANCH  17  21
ATOM     21  O   UNL     1       8.160   5.175  19.956  0.00  0.00    +0.000 OA
ATOM     22  H   UNL     1       8.865   5.833  20.096  0.00  0.00    +0.000 HD
ENDBRANCH  17  21
ENDBRANCH  12  13
ENDBRANCH   3  12
TORSDOF 6
ENDMDL
MODEL 5
REMARK VINA RESULT:      -6.7      2.975      5.868
REMARK  Name = 
REMARK  6 active torsions:
REMARK  status: ('A' for Active; 'I' for Inactive)
REMARK    1  A    between atoms: C_2  and  C_3
REMARK    2  A    between atoms: C_3  and  C_4
REMARK    3  A    between atoms: N_10  and  C_11
REMARK    4  A    between atoms: C_11  and  C_12
REMARK    5  A    between atoms: C_15  and  O_16
REMARK    6  A    between atoms: C_17  and  O_18
REMARK                            x       y       z     vdW  Elec       q    Type
REMARK                         _______ _______ _______ _____ _____    ______ ____
ROOT
ATOM      1  O   UNL     1       2.119   3.328  17.090  0.00  0.00    +0.000 OA
ATOM      2  C   UNL     1       2.739   4.077  17.839  0.00  0.00    +0.000 C 
ATOM      3  N   UNL     1       2.065   4.832  18.766  0.00  0.00    +0.000 N 
ATOM      4  H   UNL     1       1.058   4.825  18.670  0.00  0.00    +0.000 HD
ENDROOT
BRANCH   2   5
ATOM      5  C   UNL     1       4.249   4.264  17.814  0.00  0.00    +0.000 C 
BRANCH   5   6
ATOM      6  C   UNL     1       4.868   4.674  16.470  0.00  0.00    +0.000 C 
ATOM      7  C   UNL     1       4.891   6.214  16.362  0.00  0.00    +0.000 C 
ATOM      8  C   UNL     1       5.937   6.861  17.275  0.00  0.00    +0.000 C 
ATOM      9  C   UNL     1       7.326   6.267  17.063  0.00  0.00    +0.000 C 
ATOM     10  C   UNL     1       7.326   4.744  17.156  0.00  0.00    +0.000 C 
ATOM     11  C   UNL     1       6.283   4.128  16.229  0.00  0.00    +0.000 C 
ENDBRANCH   5   6
ENDBRANCH   2   5
BRANCH   3  12
ATOM     12  C   UNL     1       2.690   5.743  19.698  0.00  0.00    +0.000 C 
BRANCH  12  13
ATOM     13  C   UNL     1       2.087   7.115  19.669  0.00  0.00    +0.000 A 
ATOM     14  C   UNL     1       1.487   7.676  20.808  0.00  0.00    +0.000 A 
ATOM     15  C   UNL     1       0.988   8.984  20.783  0.00  0.00    +0.000 A 
ATOM     16  C   UNL     1       1.099   9.723  19.610  0.00  0.00    +0.000 A 
ATOM     17  C   UNL     1       1.685   9.166  18.478  0.00  0.00    +0.000 A 
ATOM     18  C   UNL     1       2.181   7.876  18.492  0.00  0.00    +0.000 A 
BRANCH  16  19
ATOM     19  O   UNL     1       0.648  11.011  19.521  0.00  0.00    +0.000 OA
ATOM     20  H   UNL     1       1.414  11.605  19.569  0.00  0.00    +0.000 HD
ENDBRANCH  16  19
BRANCH  17  21
ATOM     21  O   UNL     1       1.804   9.902  17.333  0.00  0.00    +0.000 OA
ATOM     22  H   UNL     1       2.431  10.614  17.557  0.00  0.00    +0.000 HD
ENDBRANCH  17  21
ENDBRANCH  12  13
ENDBRANCH   3  12
TORSDOF 6
ENDMDL
MODEL 6
REMARK VINA RESULT:      -6.5      2.860      5.737
REMARK  Name = 
REMARK  6 active torsions:
REMARK  status: ('A' for Active; 'I' for Inactive)
REMARK    1  A    between atoms: C_2  and  C_3
REMARK    2  A    between atoms: C_3  and  C_4
REMARK    3  A    between atoms: N_10  and  C_11
REMARK    4  A    between atoms: C_11  and  C_12
REMARK    5  A    between atoms: C_15  and  O_16
REMARK    6  A    between atoms: C_17  and  O_18
REMARK                            x       y       z     vdW  Elec       q    Type
REMARK                         _______ _______ _______ _____ _____    ______ ____
ROOT
ATOM      1  O   UNL     1       2.209   3.198  17.070  0.00  0.00    +0.000 OA
ATOM      2  C   UNL     1       2.817   3.979  17.796  0.00  0.00    +0.000 C 
ATOM      3  N   UNL     1       2.127   4.774  18.677  0.00  0.00    +0.000 N 
ATOM      4  H   UNL     1       1.121   4.763  18.563  0.00  0.00    +0.000 HD
ENDROOT
BRANCH   2   5
ATOM      5  C   UNL     1       4.326   4.165  17.789  0.00  0.00    +0.000 C 
BRANCH   5   6
ATOM      6  C   UNL     1       4.962   4.582  16.456  0.00  0.00    +0.000 C 
ATOM      7  C   UNL     1       4.896   6.118  16.312  0.00  0.00    +0.000 C 
ATOM      8  C   UNL     1       5.871   6.847  17.240  0.00  0.00    +0.000 C 
ATOM      9  C   UNL     1       7.299   6.335  17.084  0.00  0.00    +0.000 C 
ATOM     10  C   UNL     1       7.388   4.818  17.213  0.00  0.00    +0.000 C 
ATOM     11  C   UNL     1       6.414   4.119  16.271  0.00  0.00    +0.000 C 
ENDBRANCH   5   6
ENDBRANCH   2   5
BRANCH   3  12
ATOM     12  C   UNL     1       2.735   5.725  19.579  0.00  0.00    +0.000 C 
BRANCH  12  13
ATOM     13  C   UNL     1       2.254   7.128  19.362  0.00  0.00    +0.000 A 
ATOM     14  C   UNL     1       2.332   7.743  18.102  0.00  0.00    +0.000 A 
ATOM     15  C   UNL     1       1.818   9.029  17.900  0.00  0.00    +0.000 A 
ATOM     16  C   UNL     1       1.223   9.690  18.970  0.00  0.00    +0.000 A 
ATOM     17  C   UNL     1       1.153   9.086  20.221  0.00  0.00    +0.000 A 
ATOM     18  C   UNL     1       1.657   7.816  20.430  0.00  0.00    +0.000 A 
BRANCH  16  19
ATOM     19  O   UNL     1       0.686  10.941  18.839  0.00  0.00    +0.000 OA
ATOM     20  H   UNL     1      -0.090  11.001  19.419  0.00  0.00    +0.000 HD
ENDBRANCH  16  19
BRANCH  17  21
ATOM     21  O   UNL     1       0.554   9.735  21.264  0.00  0.00    +0.000 OA
ATOM     22  H   UNL     1       0.853  10.659  21.189  0.00  0.00    +0.000 HD
ENDBRANCH  17  21
ENDBRANCH  12  13
ENDBRANCH   3  12
TORSDOF 6
ENDMDL
MODEL 7
REMARK VINA RESULT:      -6.5      1.736      2.080
REMARK  Name = 
REMARK  6 active torsions:
REMARK  status: ('A' for Active; 'I' for Inactive)
REMARK    1  A    between atoms: C_2  and  C_3
REMARK    2  A    between atoms: C_3  and  C_4
REMARK    3  A    between atoms: N_10  and  C_11
REMARK    4  A    between atoms: C_11  and  C_12
REMARK    5  A    between atoms: C_15  and  O_16
REMARK    6  A    between atoms: C_17  and  O_18
REMARK                            x       y       z     vdW  Elec       q    Type
REMARK                         _______ _______ _______ _____ _____    ______ ____
ROOT
ATOM      1  O   UNL     1       2.234   7.084  19.654  0.00  0.00    +0.000 OA
ATOM      2  C   UNL     1       2.802   6.052  19.310  0.00  0.00    +0.000 C 
ATOM      3  N   UNL     1       4.090   5.811  19.715  0.00  0.00    +0.000 N 
ATOM      4  H   UNL     1       4.548   6.593  20.166  0.00  0.00    +0.000 HD
ENDROOT
BRANCH   2   5
ATOM      5  C   UNL     1       2.183   4.984  18.421  0.00  0.00    +0.000 C 
BRANCH   5   6
ATOM      6  C   UNL     1       1.015   4.186  19.018  0.00  0.00    +0.000 C 
ATOM      7  C   UNL     1       1.122   2.710  18.577  0.00  0.00    +0.000 C 
ATOM      8  C   UNL     1       2.260   1.960  19.275  0.00  0.00    +0.000 C 
ATOM      9  C   UNL     1       2.177   2.083  20.793  0.00  0.00    +0.000 C 
ATOM     10  C   UNL     1       2.062   3.533  21.252  0.00  0.00    +0.000 C 
ATOM     11  C   UNL     1       0.915   4.251  20.548  0.00  0.00    +0.000 C 
ENDBRANCH   5   6
ENDBRANCH   2   5
BRANCH   3  12
ATOM     12  C   UNL     1       4.854   4.633  19.374  0.00  0.00    +0.000 C 
BRANCH  12  13
ATOM     13  C   UNL     1       5.608   4.776  18.086  0.00  0.00    +0.000 A 
ATOM     14  C   UNL     1       5.431   3.868  17.029  0.00  0.00    +0.000 A 
ATOM     15  C   UNL     1       6.092   4.053  15.808  0.00  0.00    +0.000 A 
ATOM     16  C   UNL     1       6.927   5.155  15.657  0.00  0.00    +0.000 A 
ATOM     17  C   UNL     1       7.109   6.051  16.706  0.00  0.00    +0.000 A 
ATOM     18  C   UNL     1       6.462   5.877  17.915  0.00  0.00    +0.000 A 
BRANCH  16  19
ATOM     19  O   UNL     1       7.589   5.406  14.488  0.00  0.00    +0.000 OA
ATOM     20  H   UNL     1       8.093   4.612  14.248  0.00  0.00    +0.000 HD
ENDBRANCH  16  19
BRANCH  17  21
ATOM     21  O   UNL     1       7.919   7.140  16.546  0.00  0.00    +0.000 OA
ATOM     22  H   UNL     1       7.368   7.796  16.082  0.00  0.00    +0.000 HD
ENDBRANCH  17  21
ENDBRANCH  12  13
ENDBRANCH   3  12
TORSDOF 6
ENDMDL
MODEL 8
REMARK VINA RESULT:      -6.4      0.861      1.644
REMARK  Name = 
REMARK  6 active torsions:
REMARK  status: ('A' for Active; 'I' for Inactive)
REMARK    1  A    between atoms: C_2  and  C_3
REMARK    2  A    between atoms: C_3  and  C_4
REMARK    3  A    between atoms: N_10  and  C_11
REMARK    4  A    between atoms: C_11  and  C_12
REMARK    5  A    between atoms: C_15  and  O_16
REMARK    6  A    between atoms: C_17  and  O_18
REMARK                            x       y       z     vdW  Elec       q    Type
REMARK                         _______ _______ _______ _____ _____    ______ ____
ROOT
ATOM      1  O   UNL     1       1.398   5.575  20.619  0.00  0.00    +0.000 OA
ATOM      2  C   UNL     1       1.927   5.593  19.512  0.00  0.00    +0.000 C 
ATOM      3  N   UNL     1       2.795   6.604  19.183  0.00  0.00    +0.000 N 
ATOM      4  H   UNL     1       2.829   7.368  19.846  0.00  0.00    +0.000 HD
ENDROOT
BRANCH   2   5
ATOM      5  C   UNL     1       1.680   4.561  18.422  0.00  0.00    +0.000 C 
BRANCH   5   6
ATOM      6  C   UNL     1       1.463   3.113  18.883  0.00  0.00    +0.000 C 
ATOM      7  C   UNL     1       2.107   2.147  17.865  0.00  0.00    +0.000 C 
ATOM      8  C   UNL     1       3.637   2.153  17.923  0.00  0.00    +0.000 C 
ATOM      9  C   UNL     1       4.156   1.901  19.334  0.00  0.00    +0.000 C 
ATOM     10  C   UNL     1       3.527   2.839  20.360  0.00  0.00    +0.000 C 
ATOM     11  C   UNL     1       2.004   2.804  20.287  0.00  0.00    +0.000 C 
ENDBRANCH   5   6
ENDBRANCH   2   5
BRANCH   3  12
ATOM     12  C   UNL     1       3.476   6.725  17.914  0.00  0.00    +0.000 C 
BRANCH  12  13
ATOM     13  C   UNL     1       4.818   6.056  17.904  0.00  0.00    +0.000 A 
ATOM     14  C   UNL     1       5.414   5.592  19.087  0.00  0.00    +0.000 A 
ATOM     15  C   UNL     1       6.637   4.910  19.053  0.00  0.00    +0.000 A 
ATOM     16  C   UNL     1       7.252   4.696  17.824  0.00  0.00    +0.000 A 
ATOM     17  C   UNL     1       6.666   5.162  16.652  0.00  0.00    +0.000 A 
ATOM     18  C   UNL     1       5.460   5.836  16.675  0.00  0.00    +0.000 A 
BRANCH  16  19
ATOM     19  O   UNL     1       8.437   4.023  17.716  0.00  0.00    +0.000 OA
ATOM     20  H   UNL     1       8.576   3.518  18.533  0.00  0.00    +0.000 HD
ENDBRANCH  16  19
BRANCH  17  21
ATOM     21  O   UNL     1       7.268   4.936  15.446  0.00  0.00    +0.000 OA
ATOM     22  H   UNL     1       7.120   3.989  15.265  0.00  0.00    +0.000 HD
ENDBRANCH  17  21
ENDBRANCH  12  13
ENDBRANCH   3  12
TORSDOF 6
ENDMDL
MODEL 9
REMARK VINA RESULT:      -6.4      2.454      3.559
REMARK  Name = 
REMARK  6 active torsions:
REMARK  status: ('A' for Active; 'I' for Inactive)
REMARK    1  A    between atoms: C_2  and  C_3
REMARK    2  A    between atoms: C_3  and  C_4
REMARK    3  A    between atoms: N_10  and  C_11
REMARK    4  A    between atoms: C_11  and  C_12
REMARK    5  A    between atoms: C_15  and  O_16
REMARK    6  A    between atoms: C_17  and  O_18
REMARK                            x       y       z     vdW  Elec       q    Type
REMARK                         _______ _______ _______ _____ _____    ______ ____
ROOT
ATOM      1  O   UNL     1       5.151   1.382  20.457  0.00  0.00    +0.000 OA
ATOM      2  C   UNL     1       4.617   2.233  19.752  0.00  0.00    +0.000 C 
ATOM      3  N   UNL     1       5.211   3.459  19.589  0.00  0.00    +0.000 N 
ATOM      4  H   UNL     1       6.002   3.633  20.196  0.00  0.00    +0.000 HD
ENDROOT
BRANCH   2   5
ATOM      5  C   UNL     1       3.292   2.045  19.028  0.00  0.00    +0.000 C 
BRANCH   5   6
ATOM      6  C   UNL     1       2.040   1.921  19.909  0.00  0.00    +0.000 C 
ATOM      7  C   UNL     1       2.302   2.593  21.274  0.00  0.00    +0.000 C 
ATOM      8  C   UNL     1       2.342   4.121  21.189  0.00  0.00    +0.000 C 
ATOM      9  C   UNL     1       1.095   4.689  20.521  0.00  0.00    +0.000 C 
ATOM     10  C   UNL     1       0.811   4.034  19.172  0.00  0.00    +0.000 C 
ATOM     11  C   UNL     1       0.766   2.513  19.289  0.00  0.00    +0.000 C 
ENDBRANCH   5   6
ENDBRANCH   2   5
BRANCH   3  12
ATOM     12  C   UNL     1       4.678   4.533  18.782  0.00  0.00    +0.000 C 
BRANCH  12  13
ATOM     13  C   UNL     1       5.510   4.824  17.570  0.00  0.00    +0.000 A 
ATOM     14  C   UNL     1       6.417   5.896  17.545  0.00  0.00    +0.000 A 
ATOM     15  C   UNL     1       7.236   6.116  16.431  0.00  0.00    +0.000 A 
ATOM     16  C   UNL     1       7.139   5.250  15.346  0.00  0.00    +0.000 A 
ATOM     17  C   UNL     1       6.236   4.193  15.366  0.00  0.00    +0.000 A 
ATOM     18  C   UNL     1       5.424   3.968  16.461  0.00  0.00    +0.000 A 
BRANCH  16  19
ATOM     19  O   UNL     1       7.920   5.396  14.233  0.00  0.00    +0.000 OA
ATOM     20  H   UNL     1       8.202   6.323  14.179  0.00  0.00    +0.000 HD
ENDBRANCH  16  19
BRANCH  17  21
ATOM     21  O   UNL     1       6.157   3.337  14.304  0.00  0.00    +0.000 OA
ATOM     22  H   UNL     1       5.225   3.054  14.278  0.00  0.00    +0.000 HD
ENDBRANCH  17  21
ENDBRANCH  12  13
ENDBRANCH   3  12
TORSDOF 6
ENDMDL
