MODEL 1
REMARK VINA RESULT:      -7.2      0.000      0.000
REMARK  Name = 
REMARK  9 active torsions:
REMARK  status: ('A' for Active; 'I' for Inactive)
REMARK    1  A    between atoms: C_1  and  C_2
REMARK    2  A    between atoms: C_2  and  O_3
REMARK    3  A    between atoms: O_3  and  C_4
REMARK    4  A    between atoms: C_4  and  C_5
REMARK    5  A    between atoms: C_5  and  O_6
REMARK    6  A    between atoms: O_6  and  C_7
REMARK    7  A    between atoms: C_7  and  C_9
REMARK    8  A    between atoms: C_14  and  C_15
REMARK    9  A    between atoms: C_17  and  C_18
REMARK                            x       y       z     vdW  Elec       q    Type
REMARK                         _______ _______ _______ _____ _____    ______ ____
ROOT
ATOM      1  C   UNL     1       2.978   5.724  19.221  0.00  0.00    +0.000 C 
ATOM      2  O   UNL     1       2.532   5.577  18.092  0.00  0.00    +0.000 OA
ATOM      3  N   UNL     1       4.294   5.769  19.623  0.00  0.00    +0.000 N 
ATOM      4  C   UNL     1       5.301   5.504  18.742  0.00  0.00    +0.000 A 
ATOM      5  N   UNL     1       5.222   5.380  17.450  0.00  0.00    +0.000 NA
ATOM      6  C   UNL     1       6.451   5.006  16.942  0.00  0.00    +0.000 A 
ATOM      7  C   UNL     1       7.452   4.859  17.882  0.00  0.00    +0.000 A 
ATOM      8  S   UNL     1       6.839   5.252  19.440  0.00  0.00    +0.000 S 
ATOM      9  H   UNL     1       4.511   5.830  20.613  0.00  0.00    +0.000 HD
ENDROOT
BRANCH   6  10
ATOM     10  C   UNL     1       6.642   4.790  15.486  0.00  0.00    +0.000 A 
ATOM     11  C   UNL     1       5.977   3.859  14.722  0.00  0.00    +0.000 A 
ATOM     12  C   UNL     1       6.462   4.058  13.414  0.00  0.00    +0.000 A 
ATOM     13  C   UNL     1       6.070   3.352  12.173  0.00  0.00    +0.000 C 
ATOM     14  N   UNL     1       7.386   5.028  13.380  0.00  0.00    +0.000 NA
ATOM     15  O   UNL     1       7.491   5.487  14.684  0.00  0.00    +0.000 OA
ENDBRANCH   6  10
BRANCH   1  16
ATOM     16  C   UNL     1       2.010   5.759  20.423  0.00  0.00    +0.000 C 
ATOM     17  O   UNL     1       1.368   6.760  20.698  0.00  0.00    +0.000 OA
BRANCH  16  18
ATOM     18  O   UNL     1       2.159   4.643  21.162  0.00  0.00    +0.000 OA
BRANCH  18  19
ATOM     19  C   UNL     1       1.281   3.566  20.828  0.00  0.00    +0.000 C 
BRANCH  19  20
ATOM     20  C   UNL     1       2.018   2.374  20.239  0.00  0.00    +0.000 C 
BRANCH  20  21
ATOM     21  O   UNL     1       3.419   2.630  20.350  0.00  0.00    +0.000 OA
BRANCH  21  23
ATOM     22  C   UNL     1       3.426   2.096  18.024  0.00  0.00    +0.000 C 
ATOM     23  C   UNL     1       4.169   1.965  19.339  0.00  0.00    +0.000 C 
ENDBRANCH  21  23
ENDBRANCH  20  21
ENDBRANCH  19  20
ENDBRANCH  18  19
ENDBRANCH  16  18
ENDBRANCH   1  16
TORSDOF 7
ENDMDL
MODEL 2
REMARK VINA RESULT:      -6.7      1.581      2.798
REMARK  Name = 
REMARK  9 active torsions:
REMARK  status: ('A' for Active; 'I' for Inactive)
REMARK    1  A    between atoms: C_1  and  C_2
REMARK    2  A    between atoms: C_2  and  O_3
REMARK    3  A    between atoms: O_3  and  C_4
REMARK    4  A    between atoms: C_4  and  C_5
REMARK    5  A    between atoms: C_5  and  O_6
REMARK    6  A    between atoms: O_6  and  C_7
REMARK    7  A    between atoms: C_7  and  C_9
REMARK    8  A    between atoms: C_14  and  C_15
REMARK    9  A    between atoms: C_17  and  C_18
REMARK                            x       y       z     vdW  Elec       q    Type
REMARK                         _______ _______ _______ _____ _____    ______ ____
ROOT
ATOM      1  C   UNL     1       2.440   3.017  17.961  0.00  0.00    +0.000 C 
ATOM      2  O   UNL     1       2.415   2.775  16.762  0.00  0.00    +0.000 OA
ATOM      3  N   UNL     1       3.367   3.752  18.667  0.00  0.00    +0.000 N 
ATOM      4  C   UNL     1       4.503   4.205  18.064  0.00  0.00    +0.000 A 
ATOM      5  N   UNL     1       4.789   4.207  16.795  0.00  0.00    +0.000 NA
ATOM      6  C   UNL     1       6.084   4.653  16.611  0.00  0.00    +0.000 A 
ATOM      7  C   UNL     1       6.756   4.991  17.768  0.00  0.00    +0.000 A 
ATOM      8  S   UNL     1       5.712   4.788  19.120  0.00  0.00    +0.000 S 
ATOM      9  H   UNL     1       3.290   3.812  19.677  0.00  0.00    +0.000 HD
ENDROOT
BRANCH   6  10
ATOM     10  C   UNL     1       6.671   4.751  15.252  0.00  0.00    +0.000 A 
ATOM     11  C   UNL     1       6.313   3.982  14.168  0.00  0.00    +0.000 A 
ATOM     12  C   UNL     1       7.110   4.463  13.109  0.00  0.00    +0.000 A 
ATOM     13  C   UNL     1       7.121   4.021  11.697  0.00  0.00    +0.000 C 
ATOM     14  N   UNL     1       7.925   5.443  13.521  0.00  0.00    +0.000 NA
ATOM     15  O   UNL     1       7.641   5.624  14.866  0.00  0.00    +0.000 OA
ENDBRANCH   6  10
BRANCH   1  16
ATOM     16  C   UNL     1       1.399   2.362  18.891  0.00  0.00    +0.000 C 
ATOM     17  O   UNL     1       0.254   2.150  18.522  0.00  0.00    +0.000 OA
BRANCH  16  18
ATOM     18  O   UNL     1       1.894   2.272  20.141  0.00  0.00    +0.000 OA
BRANCH  18  19
ATOM     19  C   UNL     1       1.247   3.092  21.116  0.00  0.00    +0.000 C 
BRANCH  19  20
ATOM     20  C   UNL     1       1.951   4.425  21.315  0.00  0.00    +0.000 C 
BRANCH  20  21
ATOM     21  O   UNL     1       1.374   5.364  20.406  0.00  0.00    +0.000 OA
BRANCH  21  23
ATOM     22  C   UNL     1       1.305   7.660  21.049  0.00  0.00    +0.000 C 
ATOM     23  C   UNL     1       2.109   6.581  20.350  0.00  0.00    +0.000 C 
ENDBRANCH  21  23
ENDBRANCH  20  21
ENDBRANCH  19  20
ENDBRANCH  18  19
ENDBRANCH  16  18
ENDBRANCH   1  16
TORSDOF 7
ENDMDL
MODEL 3
REMARK VINA RESULT:      -6.6      1.188      2.557
REMARK  Name = 
REMARK  9 active torsions:
REMARK  status: ('A' for Active; 'I' for Inactive)
REMARK    1  A    between atoms: C_1  and  C_2
REMARK    2  A    between atoms: C_2  and  O_3
REMARK    3  A    between atoms: O_3  and  C_4
REMARK    4  A    between atoms: C_4  and  C_5
REMARK    5  A    between atoms: C_5  and  O_6
REMARK    6  A    between atoms: O_6  and  C_7
REMARK    7  A    between atoms: C_7  and  C_9
REMARK    8  A    between atoms: C_14  and  C_15
REMARK    9  A    between atoms: C_17  and  C_18
REMARK                            x       y       z     vdW  Elec       q    Type
REMARK                         _______ _______ _______ _____ _____    ______ ____
ROOT
ATOM      1  C   UNL     1       4.340   2.938  19.392  0.00  0.00    +0.000 C 
ATOM      2  O   UNL     1       4.057   2.380  18.341  0.00  0.00    +0.000 OA
ATOM      3  N   UNL     1       5.163   4.025  19.590  0.00  0.00    +0.000 N 
ATOM      4  C   UNL     1       5.898   4.538  18.562  0.00  0.00    +0.000 A 
ATOM      5  N   UNL     1       5.807   4.259  17.295  0.00  0.00    +0.000 NA
ATOM      6  C   UNL     1       6.804   4.916  16.601  0.00  0.00    +0.000 A 
ATOM      7  C   UNL     1       7.639   5.697  17.375  0.00  0.00    +0.000 A 
ATOM      8  S   UNL     1       7.121   5.640  19.014  0.00  0.00    +0.000 S 
ATOM      9  H   UNL     1       5.356   4.338  20.536  0.00  0.00    +0.000 HD
ENDROOT
BRANCH   6  10
ATOM     10  C   UNL     1       6.934   4.769  15.130  0.00  0.00    +0.000 A 
ATOM     11  C   UNL     1       6.263   3.850  14.356  0.00  0.00    +0.000 A 
ATOM     12  C   UNL     1       6.681   4.121  13.037  0.00  0.00    +0.000 A 
ATOM     13  C   UNL     1       6.253   3.457  11.785  0.00  0.00    +0.000 C 
ATOM     14  N   UNL     1       7.571   5.121  13.005  0.00  0.00    +0.000 NA
ATOM     15  O   UNL     1       7.722   5.528  14.321  0.00  0.00    +0.000 OA
ENDBRANCH   6  10
BRANCH   1  16
ATOM     16  C   UNL     1       3.843   2.346  20.727  0.00  0.00    +0.000 C 
ATOM     17  O   UNL     1       4.589   1.724  21.468  0.00  0.00    +0.000 OA
BRANCH  16  18
ATOM     18  O   UNL     1       2.503   2.456  20.805  0.00  0.00    +0.000 OA
BRANCH  18  19
ATOM     19  C   UNL     1       2.023   3.641  21.443  0.00  0.00    +0.000 C 
BRANCH  19  20
ATOM     20  C   UNL     1       1.129   4.470  20.534  0.00  0.00    +0.000 C 
BRANCH  20  21
ATOM     21  O   UNL     1       1.545   5.832  20.637  0.00  0.00    +0.000 OA
BRANCH  21  23
ATOM     22  C   UNL     1       2.266   5.876  18.363  0.00  0.00    +0.000 C 
ATOM     23  C   UNL     1       2.665   6.118  19.806  0.00  0.00    +0.000 C 
ENDBRANCH  21  23
ENDBRANCH  20  21
ENDBRANCH  19  20
ENDBRANCH  18  19
ENDBRANCH  16  18
ENDBRANCH   1  16
TORSDOF 7
ENDMDL
MODEL 4
REMARK VINA RESULT:      -6.4      2.621      7.317
REMARK  Name = 
REMARK  9 active torsions:
REMARK  status: ('A' for Active; 'I' for Inactive)
REMARK    1  A    between atoms: C_1  and  C_2
REMARK    2  A    between atoms: C_2  and  O_3
REMARK    3  A    between atoms: O_3  and  C_4
REMARK    4  A    between atoms: C_4  and  C_5
REMARK    5  A    between atoms: C_5  and  O_6
REMARK    6  A    between atoms: O_6  and  C_7
REMARK    7  A    between atoms: C_7  and  C_9
REMARK    8  A    between atoms: C_14  and  C_15
REMARK    9  A    between atoms: C_17  and  C_18
REMARK                            x       y       z     vdW  Elec       q    Type
REMARK                         _______ _______ _______ _____ _____    ______ ____
ROOT
ATOM      1  C   UNL     1       5.618   5.466  15.429  0.00  0.00    +0.000 C 
ATOM      2  O   UNL     1       5.207   6.594  15.197  0.00  0.00    +0.000 OA
ATOM      3  N   UNL     1       5.286   4.632  16.473  0.00  0.00    +0.000 N 
ATOM      4  C   UNL     1       4.502   5.075  17.497  0.00  0.00    +0.000 A 
ATOM      5  N   UNL     1       3.822   6.182  17.563  0.00  0.00    +0.000 NA
ATOM      6  C   UNL     1       3.247   6.301  18.813  0.00  0.00    +0.000 A 
ATOM      7  C   UNL     1       3.506   5.257  19.678  0.00  0.00    +0.000 A 
ATOM      8  S   UNL     1       4.459   4.070  18.877  0.00  0.00    +0.000 S 
ATOM      9  H   UNL     1       5.764   3.742  16.571  0.00  0.00    +0.000 HD
ENDROOT
BRANCH   6  10
ATOM     10  C   UNL     1       2.416   7.480  19.162  0.00  0.00    +0.000 A 
ATOM     11  C   UNL     1       2.064   8.493  18.300  0.00  0.00    +0.000 A 
ATOM     12  C   UNL     1       1.251   9.351  19.069  0.00  0.00    +0.000 A 
ATOM     13  C   UNL     1       0.566  10.592  18.643  0.00  0.00    +0.000 C 
ATOM     14  N   UNL     1       1.134   8.909  20.329  0.00  0.00    +0.000 NA
ATOM     15  O   UNL     1       1.863   7.731  20.380  0.00  0.00    +0.000 OA
ENDBRANCH   6  10
BRANCH   1  16
ATOM     16  C   UNL     1       6.737   4.868  14.552  0.00  0.00    +0.000 C 
ATOM     17  O   UNL     1       7.823   5.417  14.438  0.00  0.00    +0.000 OA
BRANCH  16  18
ATOM     18  O   UNL     1       6.255   3.833  13.838  0.00  0.00    +0.000 OA
BRANCH  18  19
ATOM     19  C   UNL     1       6.590   3.838  12.449  0.00  0.00    +0.000 C 
BRANCH  19  20
ATOM     20  C   UNL     1       6.447   2.466  11.810  0.00  0.00    +0.000 C 
BRANCH  20  21
ATOM     21  O   UNL     1       5.060   2.249  11.548  0.00  0.00    +0.000 OA
BRANCH  21  23
ATOM     22  C   UNL     1       3.185   3.099  10.340  0.00  0.00    +0.000 C 
ATOM     23  C   UNL     1       4.383   3.452  11.200  0.00  0.00    +0.000 C 
ENDBRANCH  21  23
ENDBRANCH  20  21
ENDBRANCH  19  20
ENDBRANCH  18  19
ENDBRANCH  16  18
ENDBRANCH   1  16
TORSDOF 7
ENDMDL
MODEL 5
REMARK VINA RESULT:      -6.3      1.947      3.813
REMARK  Name = 
REMARK  9 active torsions:
REMARK  status: ('A' for Active; 'I' for Inactive)
REMARK    1  A    between atoms: C_1  and  C_2
REMARK    2  A    between atoms: C_2  and  O_3
REMARK    3  A    between atoms: O_3  and  C_4
REMARK    4  A    between atoms: C_4  and  C_5
REMARK    5  A    between atoms: C_5  and  O_6
REMARK    6  A    between atoms: O_6  and  C_7
REMARK    7  A    between atoms: C_7  and  C_9
REMARK    8  A    between atoms: C_14  and  C_15
REMARK    9  A    between atoms: C_17  and  C_18
REMARK                            x       y       z     vdW  Elec       q    Type
REMARK                         _______ _______ _______ _____ _____    ______ ____
ROOT
ATOM      1  C   UNL     1       2.858   5.288  19.104  0.00  0.00    +0.000 C 
ATOM      2  O   UNL     1       2.459   5.057  17.971  0.00  0.00    +0.000 OA
ATOM      3  N   UNL     1       4.147   5.535  19.524  0.00  0.00    +0.000 N 
ATOM      4  C   UNL     1       5.196   5.407  18.664  0.00  0.00    +0.000 A 
ATOM      5  N   UNL     1       5.159   5.251  17.373  0.00  0.00    +0.000 NA
ATOM      6  C   UNL     1       6.439   5.055  16.891  0.00  0.00    +0.000 A 
ATOM      7  C   UNL     1       7.434   5.075  17.848  0.00  0.00    +0.000 A 
ATOM      8  S   UNL     1       6.742   5.398  19.389  0.00  0.00    +0.000 S 
ATOM      9  H   UNL     1       4.335   5.645  20.515  0.00  0.00    +0.000 HD
ENDROOT
BRANCH   6  10
ATOM     10  C   UNL     1       6.685   4.845  15.443  0.00  0.00    +0.000 A 
ATOM     11  C   UNL     1       6.092   3.879  14.663  0.00  0.00    +0.000 A 
ATOM     12  C   UNL     1       6.607   4.098  13.369  0.00  0.00    +0.000 A 
ATOM     13  C   UNL     1       6.290   3.370  12.120  0.00  0.00    +0.000 C 
ATOM     14  N   UNL     1       7.480   5.114  13.359  0.00  0.00    +0.000 NA
ATOM     15  O   UNL     1       7.522   5.582  14.663  0.00  0.00    +0.000 OA
ENDBRANCH   6  10
BRANCH   1  16
ATOM     16  C   UNL     1       1.876   5.199  20.290  0.00  0.00    +0.000 C 
ATOM     17  O   UNL     1       1.025   4.325  20.352  0.00  0.00    +0.000 OA
BRANCH  16  18
ATOM     18  O   UNL     1       1.993   6.296  21.064  0.00  0.00    +0.000 OA
BRANCH  18  19
ATOM     19  C   UNL     1       1.489   7.504  20.493  0.00  0.00    +0.000 C 
BRANCH  19  20
ATOM     20  C   UNL     1       1.308   8.605  21.526  0.00  0.00    +0.000 C 
BRANCH  20  21
ATOM     21  O   UNL     1       0.568   9.662  20.913  0.00  0.00    +0.000 OA
BRANCH  21  23
ATOM     22  C   UNL     1      -0.312   9.698  23.131  0.00  0.00    +0.000 C 
ATOM     23  C   UNL     1      -0.061  10.505  21.872  0.00  0.00    +0.000 C 
ENDBRANCH  21  23
ENDBRANCH  20  21
ENDBRANCH  19  20
ENDBRANCH  18  19
ENDBRANCH  16  18
ENDBRANCH   1  16
TORSDOF 7
ENDMDL
MODEL 6
REMARK VINA RESULT:      -6.3      2.813      7.530
REMARK  Name = 
REMARK  9 active torsions:
REMARK  status: ('A' for Active; 'I' for Inactive)
REMARK    1  A    between atoms: C_1  and  C_2
REMARK    2  A    between atoms: C_2  and  O_3
REMARK    3  A    between atoms: O_3  and  C_4
REMARK    4  A    between atoms: C_4  and  C_5
REMARK    5  A    between atoms: C_5  and  O_6
REMARK    6  A    between atoms: O_6  and  C_7
REMARK    7  A    between atoms: C_7  and  C_9
REMARK    8  A    between atoms: C_14  and  C_15
REMARK    9  A    between atoms: C_17  and  C_18
REMARK                            x       y       z     vdW  Elec       q    Type
REMARK                         _______ _______ _______ _____ _____    ______ ____
ROOT
ATOM      1  C   UNL     1       5.113   5.735  16.105  0.00  0.00    +0.000 C 
ATOM      2  O   UNL     1       4.858   6.925  15.982  0.00  0.00    +0.000 OA
ATOM      3  N   UNL     1       4.601   4.840  17.019  0.00  0.00    +0.000 N 
ATOM      4  C   UNL     1       3.795   5.264  18.033  0.00  0.00    +0.000 A 
ATOM      5  N   UNL     1       3.247   6.434  18.185  0.00  0.00    +0.000 NA
ATOM      6  C   UNL     1       2.592   6.488  19.399  0.00  0.00    +0.000 A 
ATOM      7  C   UNL     1       2.655   5.330  20.149  0.00  0.00    +0.000 A 
ATOM      8  S   UNL     1       3.522   4.127  19.277  0.00  0.00    +0.000 S 
ATOM      9  H   UNL     1       4.961   3.892  17.041  0.00  0.00    +0.000 HD
ENDROOT
BRANCH   6  10
ATOM     10  C   UNL     1       1.880   7.717  19.830  0.00  0.00    +0.000 A 
ATOM     11  C   UNL     1       1.390   7.956  21.093  0.00  0.00    +0.000 A 
ATOM     12  C   UNL     1       0.839   9.252  21.024  0.00  0.00    +0.000 A 
ATOM     13  C   UNL     1       0.199  10.035  22.104  0.00  0.00    +0.000 C 
ATOM     14  N   UNL     1       0.958   9.764  19.792  0.00  0.00    +0.000 NA
ATOM     15  O   UNL     1       1.617   8.798  19.048  0.00  0.00    +0.000 OA
ENDBRANCH   6  10
BRANCH   1  16
ATOM     16  C   UNL     1       6.221   5.101  15.239  0.00  0.00    +0.000 C 
ATOM     17  O   UNL     1       7.383   5.467  15.319  0.00  0.00    +0.000 OA
BRANCH  16  18
ATOM     18  O   UNL     1       5.671   4.288  14.317  0.00  0.00    +0.000 OA
BRANCH  18  19
ATOM     19  C   UNL     1       6.509   3.970  13.204  0.00  0.00    +0.000 C 
BRANCH  19  20
ATOM     20  C   UNL     1       5.800   3.113  12.168  0.00  0.00    +0.000 C 
BRANCH  20  21
ATOM     21  O   UNL     1       4.498   3.664  11.963  0.00  0.00    +0.000 OA
BRANCH  21  23
ATOM     22  C   UNL     1       3.199   4.025   9.995  0.00  0.00    +0.000 C 
ATOM     23  C   UNL     1       3.783   2.988  10.935  0.00  0.00    +0.000 C 
ENDBRANCH  21  23
ENDBRANCH  20  21
ENDBRANCH  19  20
ENDBRANCH  18  19
ENDBRANCH  16  18
ENDBRANCH   1  16
TORSDOF 7
ENDMDL
MODEL 7
REMARK VINA RESULT:      -6.3      2.622      7.320
REMARK  Name = 
REMARK  9 active torsions:
REMARK  status: ('A' for Active; 'I' for Inactive)
REMARK    1  A    between atoms: C_1  and  C_2
REMARK    2  A    between atoms: C_2  and  O_3
REMARK    3  A    between atoms: O_3  and  C_4
REMARK    4  A    between atoms: C_4  and  C_5
REMARK    5  A    between atoms: C_5  and  O_6
REMARK    6  A    between atoms: O_6  and  C_7
REMARK    7  A    between atoms: C_7  and  C_9
REMARK    8  A    between atoms: C_14  and  C_15
REMARK    9  A    between atoms: C_17  and  C_18
REMARK                            x       y       z     vdW  Elec       q    Type
REMARK                         _______ _______ _______ _____ _____    ______ ____
ROOT
ATOM      1  C   UNL     1       5.643   5.548  15.700  0.00  0.00    +0.000 C 
ATOM      2  O   UNL     1       5.335   6.712  15.483  0.00  0.00    +0.000 OA
ATOM      3  N   UNL     1       5.154   4.699  16.667  0.00  0.00    +0.000 N 
ATOM      4  C   UNL     1       4.306   5.157  17.632  0.00  0.00    +0.000 A 
ATOM      5  N   UNL     1       3.701   6.308  17.686  0.00  0.00    +0.000 NA
ATOM      6  C   UNL     1       3.017   6.418  18.881  0.00  0.00    +0.000 A 
ATOM      7  C   UNL     1       3.117   5.324  19.715  0.00  0.00    +0.000 A 
ATOM      8  S   UNL     1       4.059   4.103  18.952  0.00  0.00    +0.000 S 
ATOM      9  H   UNL     1       5.557   3.773  16.767  0.00  0.00    +0.000 HD
ENDROOT
BRANCH   6  10
ATOM     10  C   UNL     1       2.239   7.640  19.204  0.00  0.00    +0.000 A 
ATOM     11  C   UNL     1       1.902   8.633  18.313  0.00  0.00    +0.000 A 
ATOM     12  C   UNL     1       1.142   9.549  19.069  0.00  0.00    +0.000 A 
ATOM     13  C   UNL     1       0.492  10.798  18.612  0.00  0.00    +0.000 C 
ATOM     14  N   UNL     1       1.042   9.159  20.347  0.00  0.00    +0.000 NA
ATOM     15  O   UNL     1       1.728   7.957  20.425  0.00  0.00    +0.000 OA
ENDBRANCH   6  10
BRANCH   1  16
ATOM     16  C   UNL     1       6.799   4.906  14.905  0.00  0.00    +0.000 C 
ATOM     17  O   UNL     1       7.809   5.533  14.624  0.00  0.00    +0.000 OA
BRANCH  16  18
ATOM     18  O   UNL     1       6.420   3.699  14.443  0.00  0.00    +0.000 OA
BRANCH  18  19
ATOM     19  C   UNL     1       5.882   3.691  13.120  0.00  0.00    +0.000 C 
BRANCH  19  20
ATOM     20  C   UNL     1       6.959   3.804  12.052  0.00  0.00    +0.000 C 
BRANCH  20  21
ATOM     21  O   UNL     1       7.070   2.534  11.408  0.00  0.00    +0.000 OA
BRANCH  21  23
ATOM     22  C   UNL     1       6.157   0.339  11.203  0.00  0.00    +0.000 C 
ATOM     23  C   UNL     1       5.848   1.805  11.440  0.00  0.00    +0.000 C 
ENDBRANCH  21  23
ENDBRANCH  20  21
ENDBRANCH  19  20
ENDBRANCH  18  19
ENDBRANCH  16  18
ENDBRANCH   1  16
TORSDOF 7
ENDMDL
MODEL 8
REMARK VINA RESULT:      -6.2      1.853      2.886
REMARK  Name = 
REMARK  9 active torsions:
REMARK  status: ('A' for Active; 'I' for Inactive)
REMARK    1  A    between atoms: C_1  and  C_2
REMARK    2  A    between atoms: C_2  and  O_3
REMARK    3  A    between atoms: O_3  and  C_4
REMARK    4  A    between atoms: C_4  and  C_5
REMARK    5  A    between atoms: C_5  and  O_6
REMARK    6  A    between atoms: O_6  and  C_7
REMARK    7  A    between atoms: C_7  and  C_9
REMARK    8  A    between atoms: C_14  and  C_15
REMARK    9  A    between atoms: C_17  and  C_18
REMARK                            x       y       z     vdW  Elec       q    Type
REMARK                         _______ _______ _______ _____ _____    ______ ____
ROOT
ATOM      1  C   UNL     1       2.204   2.923  17.792  0.00  0.00    +0.000 C 
ATOM      2  O   UNL     1       2.654   2.215  16.902  0.00  0.00    +0.000 OA
ATOM      3  N   UNL     1       2.530   4.226  18.097  0.00  0.00    +0.000 N 
ATOM      4  C   UNL     1       3.561   4.854  17.462  0.00  0.00    +0.000 A 
ATOM      5  N   UNL     1       4.219   4.452  16.415  0.00  0.00    +0.000 NA
ATOM      6  C   UNL     1       5.257   5.326  16.154  0.00  0.00    +0.000 A 
ATOM      7  C   UNL     1       5.354   6.394  17.023  0.00  0.00    +0.000 A 
ATOM      8  S   UNL     1       4.075   6.320  18.171  0.00  0.00    +0.000 S 
ATOM      9  H   UNL     1       2.116   4.665  18.913  0.00  0.00    +0.000 HD
ENDROOT
BRANCH   6  10
ATOM     10  C   UNL     1       6.175   5.101  15.010  0.00  0.00    +0.000 A 
ATOM     11  C   UNL     1       5.919   4.292  13.927  0.00  0.00    +0.000 A 
ATOM     12  C   UNL     1       7.054   4.430  13.102  0.00  0.00    +0.000 A 
ATOM     13  C   UNL     1       7.310   3.807  11.784  0.00  0.00    +0.000 C 
ATOM     14  N   UNL     1       7.960   5.247  13.654  0.00  0.00    +0.000 NA
ATOM     15  O   UNL     1       7.400   5.670  14.850  0.00  0.00    +0.000 OA
ENDBRANCH   6  10
BRANCH   1  16
ATOM     16  C   UNL     1       1.223   2.322  18.820  0.00  0.00    +0.000 C 
ATOM     17  O   UNL     1       0.027   2.239  18.589  0.00  0.00    +0.000 OA
BRANCH  16  18
ATOM     18  O   UNL     1       1.855   2.120  19.991  0.00  0.00    +0.000 OA
BRANCH  18  19
ATOM     19  C   UNL     1       1.302   2.811  21.113  0.00  0.00    +0.000 C 
BRANCH  19  20
ATOM     20  C   UNL     1       2.325   3.682  21.824  0.00  0.00    +0.000 C 
BRANCH  20  21
ATOM     21  O   UNL     1       2.517   4.860  21.038  0.00  0.00    +0.000 OA
BRANCH  21  23
ATOM     22  C   UNL     1       1.566   7.039  20.843  0.00  0.00    +0.000 C 
ATOM     23  C   UNL     1       1.296   5.548  20.793  0.00  0.00    +0.000 C 
ENDBRANCH  21  23
ENDBRANCH  20  21
ENDBRANCH  19  20
ENDBRANCH  18  19
ENDBRANCH  16  18
ENDBRANCH   1  16
TORSDOF 7
ENDMDL
MODEL 9
REMARK VINA RESULT:      -6.2      2.996      7.385
REMARK  Name = 
REMARK  9 active torsions:
REMARK  status: ('A' for Active; 'I' for Inactive)
REMARK    1  A    between atoms: C_1  and  C_2
REMARK    2  A    between atoms: C_2  and  O_3
REMARK    3  A    between atoms: O_3  and  C_4
REMARK    4  A    between atoms: C_4  and  C_5
REMARK    5  A    between atoms: C_5  and  O_6
REMARK    6  A    between atoms: O_6  and  C_7
REMARK    7  A    between atoms: C_7  and  C_9
REMARK    8  A    between atoms: C_14  and  C_15
REMARK    9  A    between atoms: C_17  and  C_18
REMARK                            x       y       z     vdW  Elec       q    Type
REMARK                         _______ _______ _______ _____ _____    ______ ____
ROOT
ATOM      1  C   UNL     1       5.673   5.600  16.044  0.00  0.00    +0.000 C 
ATOM      2  O   UNL     1       5.501   6.762  15.701  0.00  0.00    +0.000 OA
ATOM      3  N   UNL     1       4.989   4.878  16.997  0.00  0.00    +0.000 N 
ATOM      4  C   UNL     1       4.068   5.482  17.800  0.00  0.00    +0.000 A 
ATOM      5  N   UNL     1       3.566   6.677  17.685  0.00  0.00    +0.000 NA
ATOM      6  C   UNL     1       2.745   6.943  18.764  0.00  0.00    +0.000 A 
ATOM      7  C   UNL     1       2.639   5.919  19.684  0.00  0.00    +0.000 A 
ATOM      8  S   UNL     1       3.559   4.568  19.150  0.00  0.00    +0.000 S 
ATOM      9  H   UNL     1       5.292   3.936  17.220  0.00  0.00    +0.000 HD
ENDROOT
BRANCH   6  10
ATOM     10  C   UNL     1       2.044   8.244  18.887  0.00  0.00    +0.000 A 
ATOM     11  C   UNL     1       1.397   8.701  20.013  0.00  0.00    +0.000 A 
ATOM     12  C   UNL     1       0.927   9.982  19.661  0.00  0.00    +0.000 A 
ATOM     13  C   UNL     1       0.185  10.949  20.500  0.00  0.00    +0.000 C 
ATOM     14  N   UNL     1       1.239  10.282  18.393  0.00  0.00    +0.000 NA
ATOM     15  O   UNL     1       1.944   9.190  17.914  0.00  0.00    +0.000 OA
ENDBRANCH   6  10
BRANCH   1  16
ATOM     16  C   UNL     1       6.860   4.804  15.464  0.00  0.00    +0.000 C 
ATOM     17  O   UNL     1       7.771   4.406  16.173  0.00  0.00    +0.000 OA
BRANCH  16  18
ATOM     18  O   UNL     1       6.804   4.815  14.118  0.00  0.00    +0.000 OA
BRANCH  18  19
ATOM     19  C   UNL     1       6.022   3.775  13.529  0.00  0.00    +0.000 C 
BRANCH  19  20
ATOM     20  C   UNL     1       6.469   3.440  12.115  0.00  0.00    +0.000 C 
BRANCH  20  21
ATOM     21  O   UNL     1       5.826   2.224  11.730  0.00  0.00    +0.000 OA
BRANCH  21  23
ATOM     22  C   UNL     1       6.157  -0.089  11.247  0.00  0.00    +0.000 C 
ATOM     23  C   UNL     1       6.728   1.309  11.116  0.00  0.00    +0.000 C 
ENDBRANCH  21  23
ENDBRANCH  20  21
ENDBRANCH  19  20
ENDBRANCH  18  19
ENDBRANCH  16  18
ENDBRANCH   1  16
TORSDOF 7
ENDMDL
