MODEL 1
REMARK VINA RESULT:      -7.7      0.000      0.000
REMARK  Name = 
REMARK  5 active torsions:
REMARK  status: ('A' for Active; 'I' for Inactive)
REMARK    1  A    between atoms: C_1  and  N_2
REMARK    2  A    between atoms: C_8  and  O_9
REMARK    3  A    between atoms: O_9  and  C_10
REMARK    4  A    between atoms: C_10  and  C_12
REMARK    5  A    between atoms: N_16  and  C_17
REMARK                            x       y       z     vdW  Elec       q    Type
REMARK                         _______ _______ _______ _____ _____    ______ ____
ROOT
ATOM      1  C   UNL     1       1.104   9.186  19.165  0.00  0.00    +0.000 A 
ATOM      2  C   UNL     1       1.585   9.306  20.406  0.00  0.00    +0.000 A 
ATOM      3  C   UNL     1       0.915  10.151  21.406  0.00  0.00    +0.000 A 
ATOM      4  O   UNL     1       1.438  10.218  22.513  0.00  0.00    +0.000 OA
ATOM      5  N   UNL     1      -0.293  10.750  21.044  0.00  0.00    +0.000 N 
ATOM      6  C   UNL     1      -0.824  10.669  19.721  0.00  0.00    +0.000 A 
ATOM      7  C   UNL     1      -1.984  11.351  19.294  0.00  0.00    +0.000 A 
ATOM      8  C   UNL     1      -2.451  11.268  17.982  0.00  0.00    +0.000 A 
ATOM      9  C   UNL     1      -1.715  10.566  17.051  0.00  0.00    +0.000 A 
ATOM     10  C   UNL     1      -0.532   9.954  17.455  0.00  0.00    +0.000 A 
ATOM     11  C   UNL     1      -0.103   9.928  18.779  0.00  0.00    +0.000 A 
ENDROOT
BRANCH   5  12
ATOM     12  C   UNL     1      -0.889  11.656  21.959  0.00  0.00    +0.000 A 
ATOM     13  C   UNL     1      -0.395  12.966  22.030  0.00  0.00    +0.000 A 
ATOM     14  C   UNL     1      -0.974  13.884  22.904  0.00  0.00    +0.000 A 
ATOM     15  C   UNL     1      -2.023  13.489  23.724  0.00  0.00    +0.000 A 
ATOM     16  C   UNL     1      -2.502  12.178  23.677  0.00  0.00    +0.000 A 
ATOM     17  C   UNL     1      -1.932  11.258  22.799  0.00  0.00    +0.000 A 
ENDBRANCH   5  12
BRANCH   1  18
ATOM     18  C   UNL     1       1.844   8.220  18.327  0.00  0.00    +0.000 C 
ATOM     19  O   UNL     1       2.371   8.494  17.251  0.00  0.00    +0.000 OA
BRANCH  18  20
ATOM     20  O   UNL     1       1.897   7.003  18.947  0.00  0.00    +0.000 OA
BRANCH  20  28
ATOM     21  C   UNL     1       2.995   2.051  18.591  0.00  0.00    +0.000 C 
ATOM     22  N   UNL     1       2.607   3.214  19.322  0.00  0.00    +0.000 NA
ATOM     23  C   UNL     1       1.397   3.847  18.857  0.00  0.00    +0.000 C 
ATOM     24  C   UNL     1       0.949   4.077  20.302  0.00  0.00    +0.000 C 
ATOM     25  C   UNL     1       2.179   4.568  21.072  0.00  0.00    +0.000 C 
ATOM     26  C   UNL     1       3.335   4.192  20.119  0.00  0.00    +0.000 C 
ATOM     27  C   UNL     1       3.761   5.514  19.420  0.00  0.00    +0.000 C 
ATOM     28  C   UNL     1       2.759   6.014  18.369  0.00  0.00    +0.000 C 
ATOM     29  C   UNL     1       1.931   4.863  17.817  0.00  0.00    +0.000 C 
ENDBRANCH  20  28
ENDBRANCH  18  20
ENDBRANCH   1  18
TORSDOF 4
ENDMDL
MODEL 2
REMARK VINA RESULT:      -7.6      1.023      1.525
REMARK  Name = 
REMARK  5 active torsions:
REMARK  status: ('A' for Active; 'I' for Inactive)
REMARK    1  A    between atoms: C_1  and  N_2
REMARK    2  A    between atoms: C_8  and  O_9
REMARK    3  A    between atoms: O_9  and  C_10
REMARK    4  A    between atoms: C_10  and  C_12
REMARK    5  A    between atoms: N_16  and  C_17
REMARK                            x       y       z     vdW  Elec       q    Type
REMARK                         _______ _______ _______ _____ _____    ______ ____
ROOT
ATOM      1  C   UNL     1       1.208   8.559  20.429  0.00  0.00    +0.000 A 
ATOM      2  C   UNL     1       1.310   8.683  21.756  0.00  0.00    +0.000 A 
ATOM      3  C   UNL     1       0.536   9.696  22.490  0.00  0.00    +0.000 A 
ATOM      4  O   UNL     1       0.708   9.752  23.703  0.00  0.00    +0.000 OA
ATOM      5  N   UNL     1      -0.380  10.462  21.767  0.00  0.00    +0.000 N 
ATOM      6  C   UNL     1      -0.498  10.378  20.346  0.00  0.00    +0.000 A 
ATOM      7  C   UNL     1      -1.335  11.213  19.575  0.00  0.00    +0.000 A 
ATOM      8  C   UNL     1      -1.396  11.118  18.184  0.00  0.00    +0.000 A 
ATOM      9  C   UNL     1      -0.555  10.240  17.534  0.00  0.00    +0.000 A 
ATOM     10  C   UNL     1       0.323   9.469  18.290  0.00  0.00    +0.000 A 
ATOM     11  C   UNL     1       0.326   9.464  19.681  0.00  0.00    +0.000 A 
ENDROOT
BRANCH   5  12
ATOM     12  C   UNL     1      -1.050  11.515  22.442  0.00  0.00    +0.000 A 
ATOM     13  C   UNL     1      -0.474  12.793  22.433  0.00  0.00    +0.000 A 
ATOM     14  C   UNL     1      -1.118  13.853  23.069  0.00  0.00    +0.000 A 
ATOM     15  C   UNL     1      -2.317  13.632  23.735  0.00  0.00    +0.000 A 
ATOM     16  C   UNL     1      -2.881  12.355  23.769  0.00  0.00    +0.000 A 
ATOM     17  C   UNL     1      -2.246  11.294  23.128  0.00  0.00    +0.000 A 
ENDBRANCH   5  12
BRANCH   1  18
ATOM     18  C   UNL     1       1.978   7.428  19.873  0.00  0.00    +0.000 C 
ATOM     19  O   UNL     1       2.877   7.540  19.043  0.00  0.00    +0.000 OA
BRANCH  18  20
ATOM     20  O   UNL     1       1.577   6.256  20.452  0.00  0.00    +0.000 OA
BRANCH  20  28
ATOM     21  C   UNL     1       4.021   1.964  19.243  0.00  0.00    +0.000 C 
ATOM     22  N   UNL     1       2.843   2.762  19.361  0.00  0.00    +0.000 NA
ATOM     23  C   UNL     1       2.862   3.988  18.601  0.00  0.00    +0.000 C 
ATOM     24  C   UNL     1       1.403   3.772  18.195  0.00  0.00    +0.000 C 
ATOM     25  C   UNL     1       0.659   3.310  19.451  0.00  0.00    +0.000 C 
ATOM     26  C   UNL     1       1.817   2.898  20.386  0.00  0.00    +0.000 C 
ATOM     27  C   UNL     1       1.974   4.056  21.411  0.00  0.00    +0.000 C 
ATOM     28  C   UNL     1       2.604   5.327  20.822  0.00  0.00    +0.000 C 
ATOM     29  C   UNL     1       3.465   4.996  19.612  0.00  0.00    +0.000 C 
ENDBRANCH  20  28
ENDBRANCH  18  20
ENDBRANCH   1  18
TORSDOF 4
ENDMDL
MODEL 3
REMARK VINA RESULT:      -7.5      2.563      4.284
REMARK  Name = 
REMARK  5 active torsions:
REMARK  status: ('A' for Active; 'I' for Inactive)
REMARK    1  A    between atoms: C_1  and  N_2
REMARK    2  A    between atoms: C_8  and  O_9
REMARK    3  A    between atoms: O_9  and  C_10
REMARK    4  A    between atoms: C_10  and  C_12
REMARK    5  A    between atoms: N_16  and  C_17
REMARK                            x       y       z     vdW  Elec       q    Type
REMARK                         _______ _______ _______ _____ _____    ______ ____
ROOT
ATOM      1  C   UNL     1       1.815   7.934  19.551  0.00  0.00    +0.000 A 
ATOM      2  C   UNL     1       2.242   8.580  18.462  0.00  0.00    +0.000 A 
ATOM      3  C   UNL     1       2.003  10.021  18.286  0.00  0.00    +0.000 A 
ATOM      4  O   UNL     1       2.412  10.526  17.247  0.00  0.00    +0.000 OA
ATOM      5  N   UNL     1       1.398  10.711  19.338  0.00  0.00    +0.000 N 
ATOM      6  C   UNL     1       0.903  10.052  20.504  0.00  0.00    +0.000 A 
ATOM      7  C   UNL     1       0.191  10.704  21.535  0.00  0.00    +0.000 A 
ATOM      8  C   UNL     1      -0.302  10.014  22.643  0.00  0.00    +0.000 A 
ATOM      9  C   UNL     1      -0.164   8.644  22.698  0.00  0.00    +0.000 A 
ATOM     10  C   UNL     1       0.473   7.993  21.646  0.00  0.00    +0.000 A 
ATOM     11  C   UNL     1       1.072   8.666  20.585  0.00  0.00    +0.000 A 
ENDROOT
BRANCH   5  12
ATOM     12  C   UNL     1       1.062  12.075  19.136  0.00  0.00    +0.000 A 
ATOM     13  C   UNL     1      -0.200  12.387  18.612  0.00  0.00    +0.000 A 
ATOM     14  C   UNL     1      -0.567  13.718  18.421  0.00  0.00    +0.000 A 
ATOM     15  C   UNL     1       0.332  14.732  18.727  0.00  0.00    +0.000 A 
ATOM     16  C   UNL     1       1.600  14.425  19.224  0.00  0.00    +0.000 A 
ATOM     17  C   UNL     1       1.969  13.097  19.423  0.00  0.00    +0.000 A 
ENDBRANCH   5  12
BRANCH   1  18
ATOM     18  C   UNL     1       2.229   6.517  19.607  0.00  0.00    +0.000 C 
ATOM     19  O   UNL     1       1.949   5.746  20.522  0.00  0.00    +0.000 OA
BRANCH  18  20
ATOM     20  O   UNL     1       2.919   6.184  18.475  0.00  0.00    +0.000 OA
BRANCH  20  28
ATOM     21  C   UNL     1       7.608   4.408  17.628  0.00  0.00    +0.000 C 
ATOM     22  N   UNL     1       6.461   5.180  17.272  0.00  0.00    +0.000 NA
ATOM     23  C   UNL     1       6.106   6.210  18.217  0.00  0.00    +0.000 C 
ATOM     24  C   UNL     1       5.807   7.176  17.070  0.00  0.00    +0.000 C 
ATOM     25  C   UNL     1       5.027   6.383  16.017  0.00  0.00    +0.000 C 
ATOM     26  C   UNL     1       5.291   4.922  16.444  0.00  0.00    +0.000 C 
ATOM     27  C   UNL     1       3.996   4.444  17.159  0.00  0.00    +0.000 C 
ATOM     28  C   UNL     1       3.795   5.052  18.556  0.00  0.00    +0.000 C 
ATOM     29  C   UNL     1       5.127   5.469  19.163  0.00  0.00    +0.000 C 
ENDBRANCH  20  28
ENDBRANCH  18  20
ENDBRANCH   1  18
TORSDOF 4
ENDMDL
MODEL 4
REMARK VINA RESULT:      -7.5      0.615      1.051
REMARK  Name = 
REMARK  5 active torsions:
REMARK  status: ('A' for Active; 'I' for Inactive)
REMARK    1  A    between atoms: C_1  and  N_2
REMARK    2  A    between atoms: C_8  and  O_9
REMARK    3  A    between atoms: O_9  and  C_10
REMARK    4  A    between atoms: C_10  and  C_12
REMARK    5  A    between atoms: N_16  and  C_17
REMARK                            x       y       z     vdW  Elec       q    Type
REMARK                         _______ _______ _______ _____ _____    ______ ____
ROOT
ATOM      1  C   UNL     1       0.997   9.375  18.830  0.00  0.00    +0.000 A 
ATOM      2  C   UNL     1       1.520   9.761  19.998  0.00  0.00    +0.000 A 
ATOM      3  C   UNL     1       0.780  10.648  20.910  0.00  0.00    +0.000 A 
ATOM      4  O   UNL     1       1.345  10.968  21.949  0.00  0.00    +0.000 OA
ATOM      5  N   UNL     1      -0.525  10.996  20.557  0.00  0.00    +0.000 N 
ATOM      6  C   UNL     1      -1.108  10.625  19.307  0.00  0.00    +0.000 A 
ATOM      7  C   UNL     1      -2.383  11.052  18.875  0.00  0.00    +0.000 A 
ATOM      8  C   UNL     1      -2.901  10.692  17.631  0.00  0.00    +0.000 A 
ATOM      9  C   UNL     1      -2.115   9.967  16.761  0.00  0.00    +0.000 A 
ATOM     10  C   UNL     1      -0.830   9.609  17.158  0.00  0.00    +0.000 A 
ATOM     11  C   UNL     1      -0.331   9.859  18.433  0.00  0.00    +0.000 A 
ENDROOT
BRANCH   5  12
ATOM     12  C   UNL     1      -1.208  11.937  21.371  0.00  0.00    +0.000 A 
ATOM     13  C   UNL     1      -1.903  11.475  22.497  0.00  0.00    +0.000 A 
ATOM     14  C   UNL     1      -2.565  12.378  23.327  0.00  0.00    +0.000 A 
ATOM     15  C   UNL     1      -2.557  13.733  23.020  0.00  0.00    +0.000 A 
ATOM     16  C   UNL     1      -1.888  14.195  21.884  0.00  0.00    +0.000 A 
ATOM     17  C   UNL     1      -1.218  13.298  21.055  0.00  0.00    +0.000 A 
ENDBRANCH   5  12
BRANCH   1  18
ATOM     18  C   UNL     1       1.835   8.408  18.091  0.00  0.00    +0.000 C 
ATOM     19  O   UNL     1       2.474   8.675  17.076  0.00  0.00    +0.000 OA
BRANCH  18  20
ATOM     20  O   UNL     1       1.831   7.199  18.728  0.00  0.00    +0.000 OA
BRANCH  20  28
ATOM     21  C   UNL     1       3.056   2.264  18.721  0.00  0.00    +0.000 C 
ATOM     22  N   UNL     1       2.632   3.464  19.367  0.00  0.00    +0.000 NA
ATOM     23  C   UNL     1       1.411   4.032  18.851  0.00  0.00    +0.000 C 
ATOM     24  C   UNL     1       0.943   4.349  20.272  0.00  0.00    +0.000 C 
ATOM     25  C   UNL     1       2.153   4.922  21.017  0.00  0.00    +0.000 C 
ATOM     26  C   UNL     1       3.327   4.512  20.102  0.00  0.00    +0.000 C 
ATOM     27  C   UNL     1       3.727   5.793  19.318  0.00  0.00    +0.000 C 
ATOM     28  C   UNL     1       2.723   6.195  18.226  0.00  0.00    +0.000 C 
ATOM     29  C   UNL     1       1.930   4.988  17.748  0.00  0.00    +0.000 C 
ENDBRANCH  20  28
ENDBRANCH  18  20
ENDBRANCH   1  18
TORSDOF 4
ENDMDL
MODEL 5
REMARK VINA RESULT:      -7.4      1.221      1.740
REMARK  Name = 
REMARK  5 active torsions:
REMARK  status: ('A' for Active; 'I' for Inactive)
REMARK    1  A    between atoms: C_1  and  N_2
REMARK    2  A    between atoms: C_8  and  O_9
REMARK    3  A    between atoms: O_9  and  C_10
REMARK    4  A    between atoms: C_10  and  C_12
REMARK    5  A    between atoms: N_16  and  C_17
REMARK                            x       y       z     vdW  Elec       q    Type
REMARK                         _______ _______ _______ _____ _____    ______ ____
ROOT
ATOM      1  C   UNL     1       0.750   9.788  18.700  0.00  0.00    +0.000 A 
ATOM      2  C   UNL     1       1.292  10.320  19.800  0.00  0.00    +0.000 A 
ATOM      3  C   UNL     1       0.526  11.231  20.664  0.00  0.00    +0.000 A 
ATOM      4  O   UNL     1       1.109  11.688  21.641  0.00  0.00    +0.000 OA
ATOM      5  N   UNL     1      -0.817  11.447  20.349  0.00  0.00    +0.000 N 
ATOM      6  C   UNL     1      -1.423  10.918  19.169  0.00  0.00    +0.000 A 
ATOM      7  C   UNL     1      -2.746  11.207  18.767  0.00  0.00    +0.000 A 
ATOM      8  C   UNL     1      -3.289  10.694  17.588  0.00  0.00    +0.000 A 
ATOM      9  C   UNL     1      -2.488   9.950  16.748  0.00  0.00    +0.000 A 
ATOM     10  C   UNL     1      -1.162   9.728  17.110  0.00  0.00    +0.000 A 
ATOM     11  C   UNL     1      -0.628  10.133  18.329  0.00  0.00    +0.000 A 
ENDROOT
BRANCH   5  12
ATOM     12  C   UNL     1      -1.535  12.408  21.108  0.00  0.00    +0.000 A 
ATOM     13  C   UNL     1      -2.182  11.992  22.281  0.00  0.00    +0.000 A 
ATOM     14  C   UNL     1      -2.877  12.917  23.059  0.00  0.00    +0.000 A 
ATOM     15  C   UNL     1      -2.949  14.244  22.654  0.00  0.00    +0.000 A 
ATOM     16  C   UNL     1      -2.328  14.657  21.473  0.00  0.00    +0.000 A 
ATOM     17  C   UNL     1      -1.626  13.739  20.696  0.00  0.00    +0.000 A 
ENDBRANCH   5  12
BRANCH   1  18
ATOM     18  C   UNL     1       1.628   8.821  18.009  0.00  0.00    +0.000 C 
ATOM     19  O   UNL     1       2.352   9.097  17.056  0.00  0.00    +0.000 OA
BRANCH  18  20
ATOM     20  O   UNL     1       1.549   7.598  18.616  0.00  0.00    +0.000 OA
BRANCH  20  28
ATOM     21  C   UNL     1       4.748   3.683  19.159  0.00  0.00    +0.000 C 
ATOM     22  N   UNL     1       3.442   4.244  19.027  0.00  0.00    +0.000 NA
ATOM     23  C   UNL     1       3.224   4.995  17.816  0.00  0.00    +0.000 C 
ATOM     24  C   UNL     1       1.829   4.384  17.674  0.00  0.00    +0.000 C 
ATOM     25  C   UNL     1       1.195   4.405  19.068  0.00  0.00    +0.000 C 
ATOM     26  C   UNL     1       2.417   4.645  19.982  0.00  0.00    +0.000 C 
ATOM     27  C   UNL     1       2.361   6.143  20.389  0.00  0.00    +0.000 C 
ATOM     28  C   UNL     1       2.736   7.112  19.256  0.00  0.00    +0.000 C 
ATOM     29  C   UNL     1       3.634   6.429  18.235  0.00  0.00    +0.000 C 
ENDBRANCH  20  28
ENDBRANCH  18  20
ENDBRANCH   1  18
TORSDOF 4
ENDMDL
MODEL 6
REMARK VINA RESULT:      -7.3      2.401      8.684
REMARK  Name = 
REMARK  5 active torsions:
REMARK  status: ('A' for Active; 'I' for Inactive)
REMARK    1  A    between atoms: C_1  and  N_2
REMARK    2  A    between atoms: C_8  and  O_9
REMARK    3  A    between atoms: O_9  and  C_10
REMARK    4  A    between atoms: C_10  and  C_12
REMARK    5  A    between atoms: N_16  and  C_17
REMARK                            x       y       z     vdW  Elec       q    Type
REMARK                         _______ _______ _______ _____ _____    ______ ____
ROOT
ATOM      1  C   UNL     1       2.130   6.971  19.821  0.00  0.00    +0.000 A 
ATOM      2  C   UNL     1       2.670   7.682  18.827  0.00  0.00    +0.000 A 
ATOM      3  C   UNL     1       3.630   7.079  17.890  0.00  0.00    +0.000 A 
ATOM      4  O   UNL     1       4.090   7.811  17.021  0.00  0.00    +0.000 OA
ATOM      5  N   UNL     1       3.887   5.713  18.017  0.00  0.00    +0.000 N 
ATOM      6  C   UNL     1       3.352   4.926  19.082  0.00  0.00    +0.000 A 
ATOM      7  C   UNL     1       3.679   3.570  19.300  0.00  0.00    +0.000 A 
ATOM      8  C   UNL     1       3.157   2.847  20.374  0.00  0.00    +0.000 A 
ATOM      9  C   UNL     1       2.363   3.494  21.296  0.00  0.00    +0.000 A 
ATOM     10  C   UNL     1       2.101   4.850  21.120  0.00  0.00    +0.000 A 
ATOM     11  C   UNL     1       2.517   5.566  20.002  0.00  0.00    +0.000 A 
ENDROOT
BRANCH   5  12
ATOM     12  C   UNL     1       4.893   5.144  17.193  0.00  0.00    +0.000 A 
ATOM     13  C   UNL     1       6.226   5.192  17.627  0.00  0.00    +0.000 A 
ATOM     14  C   UNL     1       7.234   4.624  16.850  0.00  0.00    +0.000 A 
ATOM     15  C   UNL     1       6.917   4.034  15.632  0.00  0.00    +0.000 A 
ATOM     16  C   UNL     1       5.595   4.007  15.184  0.00  0.00    +0.000 A 
ATOM     17  C   UNL     1       4.583   4.567  15.960  0.00  0.00    +0.000 A 
ENDBRANCH   5  12
BRANCH   1  18
ATOM     18  C   UNL     1       1.113   7.708  20.600  0.00  0.00    +0.000 C 
ATOM     19  O   UNL     1       0.511   7.248  21.568  0.00  0.00    +0.000 OA
BRANCH  18  20
ATOM     20  O   UNL     1       0.982   8.980  20.117  0.00  0.00    +0.000 OA
BRANCH  20  28
ATOM     21  C   UNL     1      -1.629  13.321  19.683  0.00  0.00    +0.000 C 
ATOM     22  N   UNL     1      -0.422  12.580  19.858  0.00  0.00    +0.000 NA
ATOM     23  C   UNL     1      -0.105  11.674  18.782  0.00  0.00    +0.000 C 
ATOM     24  C   UNL     1       1.369  12.074  18.865  0.00  0.00    +0.000 C 
ATOM     25  C   UNL     1       1.729  12.128  20.353  0.00  0.00    +0.000 C 
ATOM     26  C   UNL     1       0.340  12.158  21.026  0.00  0.00    +0.000 C 
ATOM     27  C   UNL     1       0.093  10.722  21.564  0.00  0.00    +0.000 C 
ATOM     28  C   UNL     1      -0.213   9.689  20.468  0.00  0.00    +0.000 C 
ATOM     29  C   UNL     1      -0.797  10.364  19.236  0.00  0.00    +0.000 C 
ENDBRANCH  20  28
ENDBRANCH  18  20
ENDBRANCH   1  18
TORSDOF 4
ENDMDL
MODEL 7
REMARK VINA RESULT:      -7.3      1.623      2.887
REMARK  Name = 
REMARK  5 active torsions:
REMARK  status: ('A' for Active; 'I' for Inactive)
REMARK    1  A    between atoms: C_1  and  N_2
REMARK    2  A    between atoms: C_8  and  O_9
REMARK    3  A    between atoms: O_9  and  C_10
REMARK    4  A    between atoms: C_10  and  C_12
REMARK    5  A    between atoms: N_16  and  C_17
REMARK                            x       y       z     vdW  Elec       q    Type
REMARK                         _______ _______ _______ _____ _____    ______ ____
ROOT
ATOM      1  C   UNL     1       0.885   9.336  18.803  0.00  0.00    +0.000 A 
ATOM      2  C   UNL     1       0.234  10.068  17.894  0.00  0.00    +0.000 A 
ATOM      3  C   UNL     1      -0.765  11.071  18.293  0.00  0.00    +0.000 A 
ATOM      4  O   UNL     1      -1.328  11.682  17.392  0.00  0.00    +0.000 OA
ATOM      5  N   UNL     1      -0.943  11.300  19.659  0.00  0.00    +0.000 N 
ATOM      6  C   UNL     1      -0.288  10.520  20.660  0.00  0.00    +0.000 A 
ATOM      7  C   UNL     1      -0.528  10.653  22.045  0.00  0.00    +0.000 A 
ATOM      8  C   UNL     1       0.112   9.847  22.987  0.00  0.00    +0.000 A 
ATOM      9  C   UNL     1       0.942   8.836  22.553  0.00  0.00    +0.000 A 
ATOM     10  C   UNL     1       1.121   8.658  21.184  0.00  0.00    +0.000 A 
ATOM     11  C   UNL     1       0.584   9.515  20.229  0.00  0.00    +0.000 A 
ENDROOT
BRANCH   5  12
ATOM     12  C   UNL     1      -1.980  12.182  20.059  0.00  0.00    +0.000 A 
ATOM     13  C   UNL     1      -3.311  11.807  19.824  0.00  0.00    +0.000 A 
ATOM     14  C   UNL     1      -4.352  12.643  20.223  0.00  0.00    +0.000 A 
ATOM     15  C   UNL     1      -4.066  13.860  20.830  0.00  0.00    +0.000 A 
ATOM     16  C   UNL     1      -2.742  14.250  21.043  0.00  0.00    +0.000 A 
ATOM     17  C   UNL     1      -1.698  13.415  20.652  0.00  0.00    +0.000 A 
ENDBRANCH   5  12
BRANCH   1  18
ATOM     18  C   UNL     1       1.920   8.453  18.229  0.00  0.00    +0.000 C 
ATOM     19  O   UNL     1       2.792   8.822  17.445  0.00  0.00    +0.000 OA
BRANCH  18  20
ATOM     20  O   UNL     1       1.793   7.189  18.734  0.00  0.00    +0.000 OA
BRANCH  20  28
ATOM     21  C   UNL     1       3.058   2.264  18.730  0.00  0.00    +0.000 C 
ATOM     22  N   UNL     1       2.635   3.464  19.378  0.00  0.00    +0.000 NA
ATOM     23  C   UNL     1       1.401   4.020  18.880  0.00  0.00    +0.000 C 
ATOM     24  C   UNL     1       0.956   4.340  20.308  0.00  0.00    +0.000 C 
ATOM     25  C   UNL     1       2.174   4.927  21.028  0.00  0.00    +0.000 C 
ATOM     26  C   UNL     1       3.335   4.522  20.094  0.00  0.00    +0.000 C 
ATOM     27  C   UNL     1       3.711   5.802  19.297  0.00  0.00    +0.000 C 
ATOM     28  C   UNL     1       2.684   6.190  18.221  0.00  0.00    +0.000 C 
ATOM     29  C   UNL     1       1.893   4.974  17.763  0.00  0.00    +0.000 C 
ENDBRANCH  20  28
ENDBRANCH  18  20
ENDBRANCH   1  18
TORSDOF 4
ENDMDL
MODEL 8
REMARK VINA RESULT:      -7.3      1.576      1.832
REMARK  Name = 
REMARK  5 active torsions:
REMARK  status: ('A' for Active; 'I' for Inactive)
REMARK    1  A    between atoms: C_1  and  N_2
REMARK    2  A    between atoms: C_8  and  O_9
REMARK    3  A    between atoms: O_9  and  C_10
REMARK    4  A    between atoms: C_10  and  C_12
REMARK    5  A    between atoms: N_16  and  C_17
REMARK                            x       y       z     vdW  Elec       q    Type
REMARK                         _______ _______ _______ _____ _____    ______ ____
ROOT
ATOM      1  C   UNL     1       1.465   9.281  19.148  0.00  0.00    +0.000 A 
ATOM      2  C   UNL     1       0.679   8.742  20.085  0.00  0.00    +0.000 A 
ATOM      3  C   UNL     1      -0.239   9.571  20.881  0.00  0.00    +0.000 A 
ATOM      4  O   UNL     1      -0.907   8.995  21.733  0.00  0.00    +0.000 OA
ATOM      5  N   UNL     1      -0.331  10.927  20.560  0.00  0.00    +0.000 N 
ATOM      6  C   UNL     1       0.511  11.544  19.586  0.00  0.00    +0.000 A 
ATOM      7  C   UNL     1       0.517  12.930  19.316  0.00  0.00    +0.000 A 
ATOM      8  C   UNL     1       1.380  13.496  18.376  0.00  0.00    +0.000 A 
ATOM      9  C   UNL     1       2.311  12.694  17.750  0.00  0.00    +0.000 A 
ATOM     10  C   UNL     1       2.352  11.340  18.071  0.00  0.00    +0.000 A 
ATOM     11  C   UNL     1       1.433  10.731  18.919  0.00  0.00    +0.000 A 
ENDROOT
BRANCH   5  12
ATOM     12  C   UNL     1      -1.128  11.756  21.391  0.00  0.00    +0.000 A 
ATOM     13  C   UNL     1      -2.411  12.113  20.955  0.00  0.00    +0.000 A 
ATOM     14  C   UNL     1      -3.226  12.910  21.758  0.00  0.00    +0.000 A 
ATOM     15  C   UNL     1      -2.750  13.371  22.979  0.00  0.00    +0.000 A 
ATOM     16  C   UNL     1      -1.463  13.041  23.407  0.00  0.00    +0.000 A 
ATOM     17  C   UNL     1      -0.648  12.238  22.611  0.00  0.00    +0.000 A 
ENDBRANCH   5  12
BRANCH   1  18
ATOM     18  C   UNL     1       2.246   8.289  18.380  0.00  0.00    +0.000 C 
ATOM     19  O   UNL     1       2.813   8.524  17.315  0.00  0.00    +0.000 OA
BRANCH  18  20
ATOM     20  O   UNL     1       2.283   7.099  19.051  0.00  0.00    +0.000 OA
BRANCH  20  28
ATOM     21  C   UNL     1       2.845   2.071  18.545  0.00  0.00    +0.000 C 
ATOM     22  N   UNL     1       2.566   3.245  19.308  0.00  0.00    +0.000 NA
ATOM     23  C   UNL     1       1.445   4.021  18.839  0.00  0.00    +0.000 C 
ATOM     24  C   UNL     1       0.988   4.252  20.281  0.00  0.00    +0.000 C 
ATOM     25  C   UNL     1       2.244   4.579  21.094  0.00  0.00    +0.000 C 
ATOM     26  C   UNL     1       3.376   4.111  20.155  0.00  0.00    +0.000 C 
ATOM     27  C   UNL     1       3.962   5.399  19.513  0.00  0.00    +0.000 C 
ATOM     28  C   UNL     1       3.047   6.041  18.458  0.00  0.00    +0.000 C 
ATOM     29  C   UNL     1       2.114   5.006  17.847  0.00  0.00    +0.000 C 
ENDBRANCH  20  28
ENDBRANCH  18  20
ENDBRANCH   1  18
TORSDOF 4
ENDMDL
MODEL 9
REMARK VINA RESULT:      -7.2      2.421      3.821
REMARK  Name = 
REMARK  5 active torsions:
REMARK  status: ('A' for Active; 'I' for Inactive)
REMARK    1  A    between atoms: C_1  and  N_2
REMARK    2  A    between atoms: C_8  and  O_9
REMARK    3  A    between atoms: O_9  and  C_10
REMARK    4  A    between atoms: C_10  and  C_12
REMARK    5  A    between atoms: N_16  and  C_17
REMARK                            x       y       z     vdW  Elec       q    Type
REMARK                         _______ _______ _______ _____ _____    ______ ____
ROOT
ATOM      1  C   UNL     1       1.647   8.185  19.607  0.00  0.00    +0.000 A 
ATOM      2  C   UNL     1       2.098   8.816  18.520  0.00  0.00    +0.000 A 
ATOM      3  C   UNL     1       1.904  10.264  18.341  0.00  0.00    +0.000 A 
ATOM      4  O   UNL     1       2.333  10.756  17.304  0.00  0.00    +0.000 OA
ATOM      5  N   UNL     1       1.314  10.972  19.390  0.00  0.00    +0.000 N 
ATOM      6  C   UNL     1       0.794  10.329  20.554  0.00  0.00    +0.000 A 
ATOM      7  C   UNL     1       0.097  11.004  21.580  0.00  0.00    +0.000 A 
ATOM      8  C   UNL     1      -0.423  10.330  22.687  0.00  0.00    +0.000 A 
ATOM      9  C   UNL     1      -0.326   8.956  22.743  0.00  0.00    +0.000 A 
ATOM     10  C   UNL     1       0.297   8.286  21.695  0.00  0.00    +0.000 A 
ATOM     11  C   UNL     1       0.921   8.940  20.636  0.00  0.00    +0.000 A 
ENDROOT
BRANCH   5  12
ATOM     12  C   UNL     1       1.020  12.346  19.185  0.00  0.00    +0.000 A 
ATOM     13  C   UNL     1       1.972  13.302  19.565  0.00  0.00    +0.000 A 
ATOM     14  C   UNL     1       1.721  14.657  19.358  0.00  0.00    +0.000 A 
ATOM     15  C   UNL     1       0.514  15.058  18.798  0.00  0.00    +0.000 A 
ATOM     16  C   UNL     1      -0.448  14.111  18.442  0.00  0.00    +0.000 A 
ATOM     17  C   UNL     1      -0.199  12.755  18.640  0.00  0.00    +0.000 A 
ENDBRANCH   5  12
BRANCH   1  18
ATOM     18  C   UNL     1       2.018   6.756  19.666  0.00  0.00    +0.000 C 
ATOM     19  O   UNL     1       1.720   5.997  20.586  0.00  0.00    +0.000 OA
BRANCH  18  20
ATOM     20  O   UNL     1       2.693   6.399  18.533  0.00  0.00    +0.000 OA
BRANCH  20  28
ATOM     21  C   UNL     1       7.115   4.512  16.878  0.00  0.00    +0.000 C 
ATOM     22  N   UNL     1       5.782   4.373  17.368  0.00  0.00    +0.000 NA
ATOM     23  C   UNL     1       4.768   4.990  16.550  0.00  0.00    +0.000 C 
ATOM     24  C   UNL     1       3.848   3.787  16.761  0.00  0.00    +0.000 C 
ATOM     25  C   UNL     1       3.939   3.417  18.245  0.00  0.00    +0.000 C 
ATOM     26  C   UNL     1       5.212   4.169  18.693  0.00  0.00    +0.000 C 
ATOM     27  C   UNL     1       4.718   5.425  19.464  0.00  0.00    +0.000 C 
ATOM     28  C   UNL     1       4.121   6.516  18.561  0.00  0.00    +0.000 C 
ATOM     29  C   UNL     1       4.679   6.416  17.149  0.00  0.00    +0.000 C 
ENDBRANCH  20  28
ENDBRANCH  18  20
ENDBRANCH   1  18
TORSDOF 4
ENDMDL
