MODEL 1
REMARK VINA RESULT:      -7.4      0.000      0.000
REMARK  Name = 
REMARK  5 active torsions:
REMARK  status: ('A' for Active; 'I' for Inactive)
REMARK    1  A    between atoms: C_2  and  C_3
REMARK    2  A    between atoms: N_5  and  C_6
REMARK    3  A    between atoms: C_8  and  C_9
REMARK    4  A    between atoms: C_9  and  O_10
REMARK    5  A    between atoms: C_11  and  O_12
REMARK                            x       y       z     vdW  Elec       q    Type
REMARK                         _______ _______ _______ _____ _____    ______ ____
ROOT
ATOM      1  C   UNL     1       6.098   4.328  14.477  0.00  0.00    +0.000 A 
ATOM      2  C   UNL     1       5.185   4.183  15.447  0.00  0.00    +0.000 A 
ATOM      3  N   UNL     1       5.255   4.858  16.654  0.00  0.00    +0.000 N 
ATOM      4  C   UNL     1       6.291   5.740  16.931  0.00  0.00    +0.000 A 
ATOM      5  O   UNL     1       6.344   6.439  17.937  0.00  0.00    +0.000 OA
ATOM      6  N   UNL     1       7.268   5.818  15.972  0.00  0.00    +0.000 N 
ATOM      7  C   UNL     1       7.229   5.244  14.730  0.00  0.00    +0.000 A 
ATOM      8  O   UNL     1       8.075   5.498  13.881  0.00  0.00    +0.000 OA
ATOM      9  H   UNL     1       8.021   6.467  16.149  0.00  0.00    +0.000 HD
ENDROOT
BRANCH   3  10
ATOM     10  C   UNL     1       4.192   4.742  17.659  0.00  0.00    +0.000 C 
ATOM     11  O   UNL     1       4.668   3.998  18.801  0.00  0.00    +0.000 OA
ATOM     12  C   UNL     1       3.730   2.927  19.042  0.00  0.00    +0.000 C 
ATOM     13  C   UNL     1       3.063   2.647  17.701  0.00  0.00    +0.000 C 
ATOM     14  C   UNL     1       2.928   4.045  17.143  0.00  0.00    +0.000 C 
ATOM     15  F   UNL     1       1.830   4.620  17.731  0.00  0.00    +0.000 F 
BRANCH  13  16
ATOM     16  O   UNL     1       1.808   1.988  17.840  0.00  0.00    +0.000 OA
ATOM     17  H   UNL     1       1.621   1.535  16.995  0.00  0.00    +0.000 HD
ENDBRANCH  13  16
BRANCH  12  18
ATOM     18  C   UNL     1       4.451   1.719  19.636  0.00  0.00    +0.000 C 
BRANCH  18  19
ATOM     19  O   UNL     1       4.444   0.623  18.720  0.00  0.00    +0.000 OA
ATOM     20  H   UNL     1       5.011   0.879  17.970  0.00  0.00    +0.000 HD
ENDBRANCH  18  19
ENDBRANCH  12  18
ENDBRANCH   3  10
BRANCH   1  22
ATOM     21  N   UNL     1       5.923   3.142  12.196  0.00  0.00    +0.000 NA
ATOM     22  C   UNL     1       5.984   3.650  13.237  0.00  0.00    +0.000 C 
ENDBRANCH   1  22
TORSDOF 5
ENDMDL
MODEL 2
REMARK VINA RESULT:      -7.1      0.972      1.122
REMARK  Name = 
REMARK  5 active torsions:
REMARK  status: ('A' for Active; 'I' for Inactive)
REMARK    1  A    between atoms: C_2  and  C_3
REMARK    2  A    between atoms: N_5  and  C_6
REMARK    3  A    between atoms: C_8  and  C_9
REMARK    4  A    between atoms: C_9  and  O_10
REMARK    5  A    between atoms: C_11  and  O_12
REMARK                            x       y       z     vdW  Elec       q    Type
REMARK                         _______ _______ _______ _____ _____    ______ ____
ROOT
ATOM      1  C   UNL     1       6.100   4.466  14.582  0.00  0.00    +0.000 A 
ATOM      2  C   UNL     1       5.321   4.407  15.671  0.00  0.00    +0.000 A 
ATOM      3  N   UNL     1       5.590   5.118  16.828  0.00  0.00    +0.000 N 
ATOM      4  C   UNL     1       6.698   5.949  16.925  0.00  0.00    +0.000 A 
ATOM      5  O   UNL     1       6.924   6.679  17.885  0.00  0.00    +0.000 OA
ATOM      6  N   UNL     1       7.538   5.938  15.842  0.00  0.00    +0.000 N 
ATOM      7  C   UNL     1       7.300   5.324  14.642  0.00  0.00    +0.000 A 
ATOM      8  O   UNL     1       8.035   5.500  13.676  0.00  0.00    +0.000 OA
ATOM      9  H   UNL     1       8.341   6.549  15.888  0.00  0.00    +0.000 HD
ENDROOT
BRANCH   3  10
ATOM     10  C   UNL     1       4.670   5.098  17.971  0.00  0.00    +0.000 C 
ATOM     11  O   UNL     1       4.703   3.805  18.612  0.00  0.00    +0.000 OA
ATOM     12  C   UNL     1       3.341   3.331  18.701  0.00  0.00    +0.000 C 
ATOM     13  C   UNL     1       2.584   4.021  17.573  0.00  0.00    +0.000 C 
ATOM     14  C   UNL     1       3.213   5.395  17.596  0.00  0.00    +0.000 C 
ATOM     15  F   UNL     1       2.625   6.101  18.614  0.00  0.00    +0.000 F 
BRANCH  13  16
ATOM     16  O   UNL     1       1.179   4.056  17.797  0.00  0.00    +0.000 OA
ATOM     17  H   UNL     1       0.856   3.134  17.774  0.00  0.00    +0.000 HD
ENDBRANCH  13  16
BRANCH  12  18
ATOM     18  C   UNL     1       3.310   1.806  18.623  0.00  0.00    +0.000 C 
BRANCH  18  19
ATOM     19  O   UNL     1       1.965   1.325  18.641  0.00  0.00    +0.000 OA
ATOM     20  H   UNL     1       1.646   1.418  19.557  0.00  0.00    +0.000 HD
ENDBRANCH  18  19
ENDBRANCH  12  18
ENDBRANCH   3  10
BRANCH   1  22
ATOM     21  N   UNL     1       5.495   3.221  12.408  0.00  0.00    +0.000 NA
ATOM     22  C   UNL     1       5.782   3.753  13.398  0.00  0.00    +0.000 C 
ENDBRANCH   1  22
TORSDOF 5
ENDMDL
MODEL 3
REMARK VINA RESULT:      -6.9      2.041      2.225
REMARK  Name = 
REMARK  5 active torsions:
REMARK  status: ('A' for Active; 'I' for Inactive)
REMARK    1  A    between atoms: C_2  and  C_3
REMARK    2  A    between atoms: N_5  and  C_6
REMARK    3  A    between atoms: C_8  and  C_9
REMARK    4  A    between atoms: C_9  and  O_10
REMARK    5  A    between atoms: C_11  and  O_12
REMARK                            x       y       z     vdW  Elec       q    Type
REMARK                         _______ _______ _______ _____ _____    ______ ____
ROOT
ATOM      1  C   UNL     1       5.888   4.177  16.120  0.00  0.00    +0.000 A 
ATOM      2  C   UNL     1       4.616   4.273  16.532  0.00  0.00    +0.000 A 
ATOM      3  N   UNL     1       4.267   4.477  17.856  0.00  0.00    +0.000 N 
ATOM      4  C   UNL     1       5.232   4.598  18.848  0.00  0.00    +0.000 A 
ATOM      5  O   UNL     1       4.982   4.883  20.015  0.00  0.00    +0.000 OA
ATOM      6  N   UNL     1       6.526   4.412  18.435  0.00  0.00    +0.000 N 
ATOM      7  C   UNL     1       6.950   4.284  17.140  0.00  0.00    +0.000 A 
ATOM      8  O   UNL     1       8.142   4.280  16.854  0.00  0.00    +0.000 OA
ATOM      9  H   UNL     1       7.243   4.512  19.140  0.00  0.00    +0.000 HD
ENDROOT
BRANCH   3  10
ATOM     10  C   UNL     1       2.870   4.664  18.260  0.00  0.00    +0.000 C 
ATOM     11  O   UNL     1       2.735   4.475  19.686  0.00  0.00    +0.000 OA
ATOM     12  C   UNL     1       1.690   3.501  19.897  0.00  0.00    +0.000 C 
ATOM     13  C   UNL     1       1.644   2.656  18.629  0.00  0.00    +0.000 C 
ATOM     14  C   UNL     1       1.894   3.706  17.569  0.00  0.00    +0.000 C 
ATOM     15  F   UNL     1       0.707   4.358  17.348  0.00  0.00    +0.000 F 
BRANCH  13  16
ATOM     16  O   UNL     1       0.398   1.990  18.459  0.00  0.00    +0.000 OA
ATOM     17  H   UNL     1       0.587   1.109  18.080  0.00  0.00    +0.000 HD
ENDBRANCH  13  16
BRANCH  12  18
ATOM     18  C   UNL     1       1.970   2.696  21.164  0.00  0.00    +0.000 C 
BRANCH  18  19
ATOM     19  O   UNL     1       3.376   2.559  21.377  0.00  0.00    +0.000 OA
ATOM     20  H   UNL     1       3.531   2.697  22.329  0.00  0.00    +0.000 HD
ENDBRANCH  18  19
ENDBRANCH  12  18
ENDBRANCH   3  10
BRANCH   1  22
ATOM     21  N   UNL     1       6.426   3.867  13.618  0.00  0.00    +0.000 NA
ATOM     22  C   UNL     1       6.218   4.002  14.751  0.00  0.00    +0.000 C 
ENDBRANCH   1  22
TORSDOF 5
ENDMDL
MODEL 4
REMARK VINA RESULT:      -6.8      1.611      2.233
REMARK  Name = 
REMARK  5 active torsions:
REMARK  status: ('A' for Active; 'I' for Inactive)
REMARK    1  A    between atoms: C_2  and  C_3
REMARK    2  A    between atoms: N_5  and  C_6
REMARK    3  A    between atoms: C_8  and  C_9
REMARK    4  A    between atoms: C_9  and  O_10
REMARK    5  A    between atoms: C_11  and  O_12
REMARK                            x       y       z     vdW  Elec       q    Type
REMARK                         _______ _______ _______ _____ _____    ______ ____
ROOT
ATOM      1  C   UNL     1       6.193   4.179  14.078  0.00  0.00    +0.000 A 
ATOM      2  C   UNL     1       5.686   3.951  15.297  0.00  0.00    +0.000 A 
ATOM      3  N   UNL     1       6.159   4.578  16.438  0.00  0.00    +0.000 N 
ATOM      4  C   UNL     1       7.199   5.496  16.381  0.00  0.00    +0.000 A 
ATOM      5  O   UNL     1       7.584   6.154  17.341  0.00  0.00    +0.000 OA
ATOM      6  N   UNL     1       7.771   5.660  15.146  0.00  0.00    +0.000 N 
ATOM      7  C   UNL     1       7.312   5.136  13.967  0.00  0.00    +0.000 A 
ATOM      8  O   UNL     1       7.795   5.465  12.889  0.00  0.00    +0.000 OA
ATOM      9  H   UNL     1       8.519   6.336  15.082  0.00  0.00    +0.000 HD
ENDROOT
BRANCH   3  10
ATOM     10  C   UNL     1       5.524   4.370  17.744  0.00  0.00    +0.000 C 
ATOM     11  O   UNL     1       4.580   3.281  17.670  0.00  0.00    +0.000 OA
ATOM     12  C   UNL     1       3.318   3.767  18.178  0.00  0.00    +0.000 C 
ATOM     13  C   UNL     1       3.332   5.275  17.960  0.00  0.00    +0.000 C 
ATOM     14  C   UNL     1       4.776   5.601  18.269  0.00  0.00    +0.000 C 
ATOM     15  F   UNL     1       4.904   5.653  19.634  0.00  0.00    +0.000 F 
BRANCH  13  16
ATOM     16  O   UNL     1       2.421   5.960  18.811  0.00  0.00    +0.000 OA
ATOM     17  H   UNL     1       1.589   6.081  18.313  0.00  0.00    +0.000 HD
ENDBRANCH  13  16
BRANCH  12  18
ATOM     18  C   UNL     1       2.161   3.054  17.480  0.00  0.00    +0.000 C 
BRANCH  18  19
ATOM     19  O   UNL     1       1.032   3.920  17.358  0.00  0.00    +0.000 OA
ATOM     20  H   UNL     1       1.223   4.530  16.622  0.00  0.00    +0.000 HD
ENDBRANCH  18  19
ENDBRANCH  12  18
ENDBRANCH   3  10
BRANCH   1  22
ATOM     21  N   UNL     1       5.257   2.977  11.998  0.00  0.00    +0.000 NA
ATOM     22  C   UNL     1       5.667   3.548  12.921  0.00  0.00    +0.000 C 
ENDBRANCH   1  22
TORSDOF 5
ENDMDL
MODEL 5
REMARK VINA RESULT:      -6.7      2.798      6.111
REMARK  Name = 
REMARK  5 active torsions:
REMARK  status: ('A' for Active; 'I' for Inactive)
REMARK    1  A    between atoms: C_2  and  C_3
REMARK    2  A    between atoms: N_5  and  C_6
REMARK    3  A    between atoms: C_8  and  C_9
REMARK    4  A    between atoms: C_9  and  O_10
REMARK    5  A    between atoms: C_11  and  O_12
REMARK                            x       y       z     vdW  Elec       q    Type
REMARK                         _______ _______ _______ _____ _____    ______ ____
ROOT
ATOM      1  C   UNL     1       2.564   5.309  19.653  0.00  0.00    +0.000 A 
ATOM      2  C   UNL     1       3.735   5.122  19.028  0.00  0.00    +0.000 A 
ATOM      3  N   UNL     1       4.161   3.881  18.586  0.00  0.00    +0.000 N 
ATOM      4  C   UNL     1       3.386   2.744  18.765  0.00  0.00    +0.000 A 
ATOM      5  O   UNL     1       3.667   1.643  18.302  0.00  0.00    +0.000 OA
ATOM      6  N   UNL     1       2.231   2.926  19.481  0.00  0.00    +0.000 N 
ATOM      7  C   UNL     1       1.710   4.127  19.882  0.00  0.00    +0.000 A 
ATOM      8  O   UNL     1       0.592   4.206  20.379  0.00  0.00    +0.000 OA
ATOM      9  H   UNL     1       1.646   2.112  19.608  0.00  0.00    +0.000 HD
ENDROOT
BRANCH   3  10
ATOM     10  C   UNL     1       5.408   3.725  17.829  0.00  0.00    +0.000 C 
ATOM     11  O   UNL     1       6.457   4.512  18.432  0.00  0.00    +0.000 OA
ATOM     12  C   UNL     1       7.026   5.343  17.396  0.00  0.00    +0.000 C 
ATOM     13  C   UNL     1       5.928   5.520  16.354  0.00  0.00    +0.000 C 
ATOM     14  C   UNL     1       5.295   4.147  16.360  0.00  0.00    +0.000 C 
ATOM     15  F   UNL     1       6.084   3.326  15.596  0.00  0.00    +0.000 F 
BRANCH  13  16
ATOM     16  O   UNL     1       6.440   5.883  15.076  0.00  0.00    +0.000 OA
ATOM     17  H   UNL     1       5.756   6.419  14.629  0.00  0.00    +0.000 HD
ENDBRANCH  13  16
BRANCH  12  18
ATOM     18  C   UNL     1       7.528   6.656  17.992  0.00  0.00    +0.000 C 
BRANCH  18  19
ATOM     19  O   UNL     1       7.709   7.640  16.973  0.00  0.00    +0.000 OA
ATOM     20  H   UNL     1       7.720   8.507  17.417  0.00  0.00    +0.000 HD
ENDBRANCH  18  19
ENDBRANCH  12  18
ENDBRANCH   3  10
BRANCH   1  22
ATOM     21  N   UNL     1       1.837   7.675  20.374  0.00  0.00    +0.000 NA
ATOM     22  C   UNL     1       2.137   6.598  20.066  0.00  0.00    +0.000 C 
ENDBRANCH   1  22
TORSDOF 5
ENDMDL
MODEL 6
REMARK VINA RESULT:      -6.7      2.998      6.110
REMARK  Name = 
REMARK  5 active torsions:
REMARK  status: ('A' for Active; 'I' for Inactive)
REMARK    1  A    between atoms: C_2  and  C_3
REMARK    2  A    between atoms: N_5  and  C_6
REMARK    3  A    between atoms: C_8  and  C_9
REMARK    4  A    between atoms: C_9  and  O_10
REMARK    5  A    between atoms: C_11  and  O_12
REMARK                            x       y       z     vdW  Elec       q    Type
REMARK                         _______ _______ _______ _____ _____    ______ ____
ROOT
ATOM      1  C   UNL     1       2.510   5.579  19.771  0.00  0.00    +0.000 A 
ATOM      2  C   UNL     1       3.680   5.480  19.127  0.00  0.00    +0.000 A 
ATOM      3  N   UNL     1       4.167   4.282  18.630  0.00  0.00    +0.000 N 
ATOM      4  C   UNL     1       3.455   3.098  18.772  0.00  0.00    +0.000 A 
ATOM      5  O   UNL     1       3.789   2.033  18.263  0.00  0.00    +0.000 OA
ATOM      6  N   UNL     1       2.302   3.189  19.508  0.00  0.00    +0.000 N 
ATOM      7  C   UNL     1       1.723   4.345  19.962  0.00  0.00    +0.000 A 
ATOM      8  O   UNL     1       0.610   4.343  20.475  0.00  0.00    +0.000 OA
ATOM      9  H   UNL     1       1.763   2.341  19.609  0.00  0.00    +0.000 HD
ENDROOT
BRANCH   3  10
ATOM     10  C   UNL     1       5.410   4.223  17.854  0.00  0.00    +0.000 C 
ATOM     11  O   UNL     1       6.550   4.303  18.735  0.00  0.00    +0.000 OA
ATOM     12  C   UNL     1       7.396   5.370  18.253  0.00  0.00    +0.000 C 
ATOM     13  C   UNL     1       6.478   6.319  17.493  0.00  0.00    +0.000 C 
ATOM     14  C   UNL     1       5.543   5.343  16.816  0.00  0.00    +0.000 C 
ATOM     15  F   UNL     1       6.188   4.853  15.709  0.00  0.00    +0.000 F 
BRANCH  13  16
ATOM     16  O   UNL     1       7.183   7.137  16.565  0.00  0.00    +0.000 OA
ATOM     17  H   UNL     1       8.095   7.242  16.901  0.00  0.00    +0.000 HD
ENDBRANCH  13  16
BRANCH  12  18
ATOM     18  C   UNL     1       8.132   6.026  19.419  0.00  0.00    +0.000 C 
BRANCH  18  19
ATOM     19  O   UNL     1       8.010   5.236  20.603  0.00  0.00    +0.000 OA
ATOM     20  H   UNL     1       7.383   5.700  21.188  0.00  0.00    +0.000 HD
ENDBRANCH  18  19
ENDBRANCH  12  18
ENDBRANCH   3  10
BRANCH   1  22
ATOM     21  N   UNL     1       1.573   7.813  20.652  0.00  0.00    +0.000 NA
ATOM     22  C   UNL     1       2.020   6.825  20.240  0.00  0.00    +0.000 C 
ENDBRANCH   1  22
TORSDOF 5
ENDMDL
MODEL 7
REMARK VINA RESULT:      -6.6      2.791      3.166
REMARK  Name = 
REMARK  5 active torsions:
REMARK  status: ('A' for Active; 'I' for Inactive)
REMARK    1  A    between atoms: C_2  and  C_3
REMARK    2  A    between atoms: N_5  and  C_6
REMARK    3  A    between atoms: C_8  and  C_9
REMARK    4  A    between atoms: C_9  and  O_10
REMARK    5  A    between atoms: C_11  and  O_12
REMARK                            x       y       z     vdW  Elec       q    Type
REMARK                         _______ _______ _______ _____ _____    ______ ____
ROOT
ATOM      1  C   UNL     1       6.175   5.591  17.748  0.00  0.00    +0.000 A 
ATOM      2  C   UNL     1       4.990   5.110  18.147  0.00  0.00    +0.000 A 
ATOM      3  N   UNL     1       3.824   5.856  18.113  0.00  0.00    +0.000 N 
ATOM      4  C   UNL     1       3.817   7.166  17.651  0.00  0.00    +0.000 A 
ATOM      5  O   UNL     1       2.799   7.834  17.501  0.00  0.00    +0.000 OA
ATOM      6  N   UNL     1       5.045   7.682  17.326  0.00  0.00    +0.000 N 
ATOM      7  C   UNL     1       6.222   6.985  17.263  0.00  0.00    +0.000 A 
ATOM      8  O   UNL     1       7.242   7.493  16.810  0.00  0.00    +0.000 OA
ATOM      9  H   UNL     1       5.057   8.628  16.973  0.00  0.00    +0.000 HD
ENDROOT
BRANCH   3  10
ATOM     10  C   UNL     1       2.528   5.271  18.475  0.00  0.00    +0.000 C 
ATOM     11  O   UNL     1       2.510   4.939  19.880  0.00  0.00    +0.000 OA
ATOM     12  C   UNL     1       2.114   3.554  19.993  0.00  0.00    +0.000 C 
ATOM     13  C   UNL     1       2.510   2.898  18.676  0.00  0.00    +0.000 C 
ATOM     14  C   UNL     1       2.185   3.999  17.692  0.00  0.00    +0.000 C 
ATOM     15  F   UNL     1       0.832   3.964  17.467  0.00  0.00    +0.000 F 
BRANCH  13  16
ATOM     16  O   UNL     1       1.784   1.701  18.420  0.00  0.00    +0.000 OA
ATOM     17  H   UNL     1       2.309   1.170  17.789  0.00  0.00    +0.000 HD
ENDBRANCH  13  16
BRANCH  12  18
ATOM     18  C   UNL     1       2.768   2.920  21.219  0.00  0.00    +0.000 C 
BRANCH  18  19
ATOM     19  O   UNL     1       1.782   2.353  22.083  0.00  0.00    +0.000 OA
ATOM     20  H   UNL     1       0.995   2.925  22.026  0.00  0.00    +0.000 HD
ENDBRANCH  18  19
ENDBRANCH  12  18
ENDBRANCH   3  10
BRANCH   1  22
ATOM     21  N   UNL     1       8.274   4.096  17.745  0.00  0.00    +0.000 NA
ATOM     22  C   UNL     1       7.347   4.793  17.762  0.00  0.00    +0.000 C 
ENDBRANCH   1  22
TORSDOF 5
ENDMDL
MODEL 8
REMARK VINA RESULT:      -6.5      2.986      5.846
REMARK  Name = 
REMARK  5 active torsions:
REMARK  status: ('A' for Active; 'I' for Inactive)
REMARK    1  A    between atoms: C_2  and  C_3
REMARK    2  A    between atoms: N_5  and  C_6
REMARK    3  A    between atoms: C_8  and  C_9
REMARK    4  A    between atoms: C_9  and  O_10
REMARK    5  A    between atoms: C_11  and  O_12
REMARK                            x       y       z     vdW  Elec       q    Type
REMARK                         _______ _______ _______ _____ _____    ______ ____
ROOT
ATOM      1  C   UNL     1       3.949   2.726  20.206  0.00  0.00    +0.000 A 
ATOM      2  C   UNL     1       4.252   3.355  19.062  0.00  0.00    +0.000 A 
ATOM      3  N   UNL     1       3.425   4.303  18.483  0.00  0.00    +0.000 N 
ATOM      4  C   UNL     1       2.218   4.663  19.066  0.00  0.00    +0.000 A 
ATOM      5  O   UNL     1       1.500   5.568  18.653  0.00  0.00    +0.000 OA
ATOM      6  N   UNL     1       1.872   3.954  20.188  0.00  0.00    +0.000 N 
ATOM      7  C   UNL     1       2.667   3.063  20.857  0.00  0.00    +0.000 A 
ATOM      8  O   UNL     1       2.334   2.595  21.940  0.00  0.00    +0.000 OA
ATOM      9  H   UNL     1       1.004   4.213  20.635  0.00  0.00    +0.000 HD
ENDROOT
BRANCH   3  10
ATOM     10  C   UNL     1       3.827   5.036  17.277  0.00  0.00    +0.000 C 
ATOM     11  O   UNL     1       4.741   4.239  16.493  0.00  0.00    +0.000 OA
ATOM     12  C   UNL     1       5.913   5.044  16.243  0.00  0.00    +0.000 C 
ATOM     13  C   UNL     1       5.976   6.055  17.381  0.00  0.00    +0.000 C 
ATOM     14  C   UNL     1       4.511   6.377  17.569  0.00  0.00    +0.000 C 
ATOM     15  F   UNL     1       4.158   7.279  16.597  0.00  0.00    +0.000 F 
BRANCH  13  16
ATOM     16  O   UNL     1       6.752   7.203  17.053  0.00  0.00    +0.000 OA
ATOM     17  H   UNL     1       6.174   7.985  17.152  0.00  0.00    +0.000 HD
ENDBRANCH  13  16
BRANCH  12  18
ATOM     18  C   UNL     1       7.150   4.154  16.139  0.00  0.00    +0.000 C 
BRANCH  18  19
ATOM     19  O   UNL     1       8.037   4.390  17.233  0.00  0.00    +0.000 OA
ATOM     20  H   UNL     1       8.250   5.341  17.223  0.00  0.00    +0.000 HD
ENDBRANCH  18  19
ENDBRANCH  12  18
ENDBRANCH   3  10
BRANCH   1  22
ATOM     21  N   UNL     1       5.595   1.057  21.279  0.00  0.00    +0.000 NA
ATOM     22  C   UNL     1       4.830   1.783  20.795  0.00  0.00    +0.000 C 
ENDBRANCH   1  22
TORSDOF 5
ENDMDL
MODEL 9
REMARK VINA RESULT:      -6.4      3.590      5.737
REMARK  Name = 
REMARK  5 active torsions:
REMARK  status: ('A' for Active; 'I' for Inactive)
REMARK    1  A    between atoms: C_2  and  C_3
REMARK    2  A    between atoms: N_5  and  C_6
REMARK    3  A    between atoms: C_8  and  C_9
REMARK    4  A    between atoms: C_9  and  O_10
REMARK    5  A    between atoms: C_11  and  O_12
REMARK                            x       y       z     vdW  Elec       q    Type
REMARK                         _______ _______ _______ _____ _____    ______ ____
ROOT
ATOM      1  C   UNL     1       2.240   7.795  18.987  0.00  0.00    +0.000 A 
ATOM      2  C   UNL     1       2.891   6.703  18.564  0.00  0.00    +0.000 A 
ATOM      3  N   UNL     1       2.986   5.544  19.316  0.00  0.00    +0.000 N 
ATOM      4  C   UNL     1       2.399   5.447  20.570  0.00  0.00    +0.000 A 
ATOM      5  O   UNL     1       2.363   4.413  21.231  0.00  0.00    +0.000 OA
ATOM      6  N   UNL     1       1.810   6.594  21.036  0.00  0.00    +0.000 N 
ATOM      7  C   UNL     1       1.613   7.746  20.323  0.00  0.00    +0.000 A 
ATOM      8  O   UNL     1       0.936   8.666  20.769  0.00  0.00    +0.000 OA
ATOM      9  H   UNL     1       1.364   6.537  21.940  0.00  0.00    +0.000 HD
ENDROOT
BRANCH   3  10
ATOM     10  C   UNL     1       3.631   4.338  18.786  0.00  0.00    +0.000 C 
ATOM     11  O   UNL     1       5.035   4.339  19.120  0.00  0.00    +0.000 OA
ATOM     12  C   UNL     1       5.773   4.141  17.894  0.00  0.00    +0.000 C 
ATOM     13  C   UNL     1       4.870   4.651  16.777  0.00  0.00    +0.000 C 
ATOM     14  C   UNL     1       3.514   4.193  17.265  0.00  0.00    +0.000 C 
ATOM     15  F   UNL     1       3.391   2.864  16.950  0.00  0.00    +0.000 F 
BRANCH  13  16
ATOM     16  O   UNL     1       5.209   4.107  15.507  0.00  0.00    +0.000 OA
ATOM     17  H   UNL     1       5.072   3.141  15.556  0.00  0.00    +0.000 HD
ENDBRANCH  13  16
BRANCH  12  18
ATOM     18  C   UNL     1       7.121   4.853  17.971  0.00  0.00    +0.000 C 
BRANCH  18  19
ATOM     19  O   UNL     1       7.972   4.445  16.899  0.00  0.00    +0.000 OA
ATOM     20  H   UNL     1       7.563   4.767  16.076  0.00  0.00    +0.000 HD
ENDBRANCH  18  19
ENDBRANCH  12  18
ENDBRANCH   3  10
BRANCH   1  22
ATOM     21  N   UNL     1       2.098   9.896  17.501  0.00  0.00    +0.000 NA
ATOM     22  C   UNL     1       2.130   8.958  18.182  0.00  0.00    +0.000 C 
ENDBRANCH   1  22
TORSDOF 5
ENDMDL
