MODEL 1
REMARK VINA RESULT:      -7.3      0.000      0.000
REMARK  Name = 
REMARK  7 active torsions:
REMARK  status: ('A' for Active; 'I' for Inactive)
REMARK    1  A    between atoms: C_1  and  C_2
REMARK    2  A    between atoms: C_3  and  C_4
REMARK    3  A    between atoms: C_4  and  O_6
REMARK    4  A    between atoms: O_6  and  C_7
REMARK    5  A    between atoms: C_7  and  C_8
REMARK    6  A    between atoms: C_13  and  C_14
REMARK    7  A    between atoms: C_20  and  O_21
REMARK                            x       y       z     vdW  Elec       q    Type
REMARK                         _______ _______ _______ _____ _____    ______ ____
ROOT
ATOM      1  C   UNL     1       7.408   5.145  19.332  0.00  0.00    +0.000 C 
ATOM      2  C   UNL     1       5.954   4.986  18.963  0.00  0.00    +0.000 C 
ATOM      3  C   UNL     1       5.192   5.847  18.253  0.00  0.00    +0.000 C 
ATOM      4  C   UNL     1       3.686   5.646  18.183  0.00  0.00    +0.000 C 
ATOM      5  C   UNL     1       3.220   4.695  19.267  0.00  0.00    +0.000 C 
ATOM      6  C   UNL     1       1.958   4.269  19.454  0.00  0.00    +0.000 C 
ATOM      7  C   UNL     1       1.500   3.229  18.472  0.00  0.00    +0.000 C 
ATOM      8  C   UNL     1       2.279   1.936  18.747  0.00  0.00    +0.000 C 
ATOM      9  C   UNL     1       3.621   2.139  19.486  0.00  0.00    +0.000 C 
ATOM     10  C   UNL     1       4.185   3.560  19.364  0.00  0.00    +0.000 C 
ATOM     11  N   UNL     1       5.471   3.729  19.306  0.00  0.00    +0.000 NA
ENDROOT
BRANCH   4  12
ATOM     12  C   UNL     1       2.927   6.951  18.354  0.00  0.00    +0.000 A 
ATOM     13  C   UNL     1       2.401   7.426  19.605  0.00  0.00    +0.000 A 
ATOM     14  C   UNL     1       1.754   8.632  19.482  0.00  0.00    +0.000 A 
ATOM     15  S   UNL     1       1.775   9.214  17.877  0.00  0.00    +0.000 S 
ATOM     16  C   UNL     1       2.660   7.860  17.340  0.00  0.00    +0.000 A 
ENDBRANCH   4  12
BRANCH   3  17
ATOM     17  C   UNL     1       5.691   6.940  17.366  0.00  0.00    +0.000 C 
ATOM     18  O   UNL     1       6.048   8.014  17.826  0.00  0.00    +0.000 OA
BRANCH  17  19
ATOM     19  O   UNL     1       5.630   6.637  16.057  0.00  0.00    +0.000 OA
BRANCH  19  20
ATOM     20  C   UNL     1       6.265   5.404  15.681  0.00  0.00    +0.000 C 
BRANCH  20  21
ATOM     21  C   UNL     1       6.079   5.119  14.198  0.00  0.00    +0.000 C 
ATOM     22  C   UNL     1       5.836   3.653  13.878  0.00  0.00    +0.000 C 
ATOM     23  C   UNL     1       6.367   3.559  12.469  0.00  0.00    +0.000 C 
ATOM     24  C   UNL     1       7.569   4.476  12.523  0.00  0.00    +0.000 C 
ATOM     25  O   UNL     1       7.261   5.505  13.473  0.00  0.00    +0.000 OA
ENDBRANCH  20  21
ENDBRANCH  19  20
ENDBRANCH  17  19
ENDBRANCH   3  17
BRANCH   6  26
ATOM     26  O   UNL     1       1.569   3.997  20.769  0.00  0.00    +0.000 OA
ATOM     27  H   UNL     1       1.001   4.715  21.096  0.00  0.00    +0.000 HD
ENDBRANCH   6  26
TORSDOF 6
ENDMDL
MODEL 2
REMARK VINA RESULT:      -7.0      0.795      1.179
REMARK  Name = 
REMARK  7 active torsions:
REMARK  status: ('A' for Active; 'I' for Inactive)
REMARK    1  A    between atoms: C_1  and  C_2
REMARK    2  A    between atoms: C_3  and  C_4
REMARK    3  A    between atoms: C_4  and  O_6
REMARK    4  A    between atoms: O_6  and  C_7
REMARK    5  A    between atoms: C_7  and  C_8
REMARK    6  A    between atoms: C_13  and  C_14
REMARK    7  A    between atoms: C_20  and  O_21
REMARK                            x       y       z     vdW  Elec       q    Type
REMARK                         _______ _______ _______ _____ _____    ______ ____
ROOT
ATOM      1  C   UNL     1       7.159   5.003  19.152  0.00  0.00    +0.000 C 
ATOM      2  C   UNL     1       5.680   4.877  18.880  0.00  0.00    +0.000 C 
ATOM      3  C   UNL     1       4.901   5.733  18.183  0.00  0.00    +0.000 C 
ATOM      4  C   UNL     1       3.389   5.578  18.214  0.00  0.00    +0.000 C 
ATOM      5  C   UNL     1       2.963   4.687  19.364  0.00  0.00    +0.000 C 
ATOM      6  C   UNL     1       1.703   4.311  19.646  0.00  0.00    +0.000 C 
ATOM      7  C   UNL     1       1.154   3.248  18.739  0.00  0.00    +0.000 C 
ATOM      8  C   UNL     1       1.909   1.941  19.019  0.00  0.00    +0.000 C 
ATOM      9  C   UNL     1       3.300   2.130  19.665  0.00  0.00    +0.000 C 
ATOM     10  C   UNL     1       3.898   3.526  19.449  0.00  0.00    +0.000 C 
ATOM     11  N   UNL     1       5.182   3.651  19.305  0.00  0.00    +0.000 NA
ENDROOT
BRANCH   4  12
ATOM     12  C   UNL     1       2.681   6.913  18.376  0.00  0.00    +0.000 A 
ATOM     13  C   UNL     1       2.296   7.765  17.283  0.00  0.00    +0.000 A 
ATOM     14  C   UNL     1       1.675   8.917  17.704  0.00  0.00    +0.000 A 
ATOM     15  S   UNL     1       1.536   8.988  19.405  0.00  0.00    +0.000 S 
ATOM     16  C   UNL     1       2.297   7.474  19.586  0.00  0.00    +0.000 A 
ENDBRANCH   4  12
BRANCH   3  17
ATOM     17  C   UNL     1       5.375   6.773  17.221  0.00  0.00    +0.000 C 
ATOM     18  O   UNL     1       5.679   7.894  17.601  0.00  0.00    +0.000 OA
BRANCH  17  19
ATOM     19  O   UNL     1       5.357   6.365  15.939  0.00  0.00    +0.000 OA
BRANCH  19  20
ATOM     20  C   UNL     1       6.636   6.020  15.385  0.00  0.00    +0.000 C 
BRANCH  20  21
ATOM     21  C   UNL     1       6.574   4.692  14.643  0.00  0.00    +0.000 C 
ATOM     22  C   UNL     1       7.321   4.691  13.320  0.00  0.00    +0.000 C 
ATOM     23  C   UNL     1       6.566   3.637  12.547  0.00  0.00    +0.000 C 
ATOM     24  C   UNL     1       5.140   3.880  12.993  0.00  0.00    +0.000 C 
ATOM     25  O   UNL     1       5.205   4.363  14.341  0.00  0.00    +0.000 OA
ENDBRANCH  20  21
ENDBRANCH  19  20
ENDBRANCH  17  19
ENDBRANCH   3  17
BRANCH   6  26
ATOM     26  O   UNL     1       1.390   4.105  20.993  0.00  0.00    +0.000 OA
ATOM     27  H   UNL     1       0.562   4.566  21.209  0.00  0.00    +0.000 HD
ENDBRANCH   6  26
TORSDOF 6
ENDMDL
MODEL 3
REMARK VINA RESULT:      -6.5      8.460     11.280
REMARK  Name = 
REMARK  7 active torsions:
REMARK  status: ('A' for Active; 'I' for Inactive)
REMARK    1  A    between atoms: C_1  and  C_2
REMARK    2  A    between atoms: C_3  and  C_4
REMARK    3  A    between atoms: C_4  and  O_6
REMARK    4  A    between atoms: O_6  and  C_7
REMARK    5  A    between atoms: C_7  and  C_8
REMARK    6  A    between atoms: C_13  and  C_14
REMARK    7  A    between atoms: C_20  and  O_21
REMARK                            x       y       z     vdW  Elec       q    Type
REMARK                         _______ _______ _______ _____ _____    ______ ____
ROOT
ATOM      1  C   UNL     1      -1.786  10.603  18.053  0.00  0.00    +0.000 C 
ATOM      2  C   UNL     1      -2.832  11.486  18.689  0.00  0.00    +0.000 C 
ATOM      3  C   UNL     1      -2.627  12.497  19.561  0.00  0.00    +0.000 C 
ATOM      4  C   UNL     1      -3.808  13.121  20.289  0.00  0.00    +0.000 C 
ATOM      5  C   UNL     1      -5.028  12.227  20.197  0.00  0.00    +0.000 C 
ATOM      6  C   UNL     1      -6.248  12.504  20.693  0.00  0.00    +0.000 C 
ATOM      7  C   UNL     1      -7.032  13.503  19.892  0.00  0.00    +0.000 C 
ATOM      8  C   UNL     1      -7.411  12.853  18.554  0.00  0.00    +0.000 C 
ATOM      9  C   UNL     1      -6.503  11.676  18.132  0.00  0.00    +0.000 C 
ATOM     10  C   UNL     1      -5.127  11.682  18.811  0.00  0.00    +0.000 C 
ATOM     11  N   UNL     1      -4.093  11.257  18.152  0.00  0.00    +0.000 NA
ENDROOT
BRANCH   4  12
ATOM     12  C   UNL     1      -3.513  13.353  21.761  0.00  0.00    +0.000 A 
ATOM     13  C   UNL     1      -3.350  12.304  22.732  0.00  0.00    +0.000 A 
ATOM     14  C   UNL     1      -3.095  12.787  23.993  0.00  0.00    +0.000 A 
ATOM     15  S   UNL     1      -3.037  14.493  24.031  0.00  0.00    +0.000 S 
ATOM     16  C   UNL     1      -3.344  14.595  22.357  0.00  0.00    +0.000 A 
ENDBRANCH   4  12
BRANCH   3  17
ATOM     17  C   UNL     1      -1.335  13.207  19.800  0.00  0.00    +0.000 C 
ATOM     18  O   UNL     1      -0.971  14.120  19.073  0.00  0.00    +0.000 OA
BRANCH  17  19
ATOM     19  O   UNL     1      -0.622  12.694  20.819  0.00  0.00    +0.000 OA
BRANCH  19  20
ATOM     20  C   UNL     1       0.507  11.893  20.438  0.00  0.00    +0.000 C 
BRANCH  20  21
ATOM     21  C   UNL     1       0.670  10.695  21.363  0.00  0.00    +0.000 C 
ATOM     22  C   UNL     1      -0.076   9.454  20.899  0.00  0.00    +0.000 C 
ATOM     23  C   UNL     1      -0.326   8.745  22.207  0.00  0.00    +0.000 C 
ATOM     24  C   UNL     1      -0.611   9.899  23.142  0.00  0.00    +0.000 C 
ATOM     25  O   UNL     1       0.160  11.013  22.671  0.00  0.00    +0.000 OA
ENDBRANCH  20  21
ENDBRANCH  19  20
ENDBRANCH  17  19
ENDBRANCH   3  17
BRANCH   6  26
ATOM     26  O   UNL     1      -7.015  11.420  21.129  0.00  0.00    +0.000 OA
ATOM     27  H   UNL     1      -6.648  11.074  21.960  0.00  0.00    +0.000 HD
ENDBRANCH   6  26
TORSDOF 6
ENDMDL
MODEL 4
REMARK VINA RESULT:      -6.5      7.893     10.230
REMARK  Name = 
REMARK  7 active torsions:
REMARK  status: ('A' for Active; 'I' for Inactive)
REMARK    1  A    between atoms: C_1  and  C_2
REMARK    2  A    between atoms: C_3  and  C_4
REMARK    3  A    between atoms: C_4  and  O_6
REMARK    4  A    between atoms: O_6  and  C_7
REMARK    5  A    between atoms: C_7  and  C_8
REMARK    6  A    between atoms: C_13  and  C_14
REMARK    7  A    between atoms: C_20  and  O_21
REMARK                            x       y       z     vdW  Elec       q    Type
REMARK                         _______ _______ _______ _____ _____    ______ ____
ROOT
ATOM      1  C   UNL     1      -0.318   9.357  22.893  0.00  0.00    +0.000 C 
ATOM      2  C   UNL     1      -0.564  10.746  22.357  0.00  0.00    +0.000 C 
ATOM      3  C   UNL     1      -0.284  11.205  21.118  0.00  0.00    +0.000 C 
ATOM      4  C   UNL     1      -0.372  12.695  20.824  0.00  0.00    +0.000 C 
ATOM      5  C   UNL     1      -0.396  13.496  22.111  0.00  0.00    +0.000 C 
ATOM      6  C   UNL     1      -0.515  14.832  22.206  0.00  0.00    +0.000 C 
ATOM      7  C   UNL     1      -1.903  15.352  21.963  0.00  0.00    +0.000 C 
ATOM      8  C   UNL     1      -2.793  14.905  23.130  0.00  0.00    +0.000 C 
ATOM      9  C   UNL     1      -2.272  13.668  23.897  0.00  0.00    +0.000 C 
ATOM     10  C   UNL     1      -1.288  12.810  23.092  0.00  0.00    +0.000 C 
ATOM     11  N   UNL     1      -1.289  11.522  23.254  0.00  0.00    +0.000 NA
ENDROOT
BRANCH   4  12
ATOM     12  C   UNL     1       0.805  13.184  19.996  0.00  0.00    +0.000 A 
ATOM     13  C   UNL     1       0.710  13.612  18.626  0.00  0.00    +0.000 A 
ATOM     14  C   UNL     1       1.923  14.001  18.110  0.00  0.00    +0.000 A 
ATOM     15  S   UNL     1       3.183  13.870  19.255  0.00  0.00    +0.000 S 
ATOM     16  C   UNL     1       2.111  13.301  20.451  0.00  0.00    +0.000 A 
ENDBRANCH   4  12
BRANCH   3  17
ATOM     17  C   UNL     1      -0.028  10.371  19.906  0.00  0.00    +0.000 C 
ATOM     18  O   UNL     1       1.105  10.034  19.597  0.00  0.00    +0.000 OA
BRANCH  17  19
ATOM     19  O   UNL     1      -1.138  10.113  19.190  0.00  0.00    +0.000 OA
BRANCH  19  20
ATOM     20  C   UNL     1      -1.038  10.384  17.783  0.00  0.00    +0.000 C 
BRANCH  20  21
ATOM     21  C   UNL     1      -2.156  11.307  17.320  0.00  0.00    +0.000 C 
ATOM     22  C   UNL     1      -3.417  11.220  18.164  0.00  0.00    +0.000 C 
ATOM     23  C   UNL     1      -4.477  11.623  17.169  0.00  0.00    +0.000 C 
ATOM     24  C   UNL     1      -3.974  10.981  15.895  0.00  0.00    +0.000 C 
ATOM     25  O   UNL     1      -2.542  10.972  15.973  0.00  0.00    +0.000 OA
ENDBRANCH  20  21
ENDBRANCH  19  20
ENDBRANCH  17  19
ENDBRANCH   3  17
BRANCH   6  26
ATOM     26  O   UNL     1       0.127  15.450  23.283  0.00  0.00    +0.000 OA
ATOM     27  H   UNL     1       0.918  14.942  23.526  0.00  0.00    +0.000 HD
ENDBRANCH   6  26
TORSDOF 6
ENDMDL
MODEL 5
REMARK VINA RESULT:      -6.5      2.276      3.937
REMARK  Name = 
REMARK  7 active torsions:
REMARK  status: ('A' for Active; 'I' for Inactive)
REMARK    1  A    between atoms: C_1  and  C_2
REMARK    2  A    between atoms: C_3  and  C_4
REMARK    3  A    between atoms: C_4  and  O_6
REMARK    4  A    between atoms: O_6  and  C_7
REMARK    5  A    between atoms: C_7  and  C_8
REMARK    6  A    between atoms: C_13  and  C_14
REMARK    7  A    between atoms: C_20  and  O_21
REMARK                            x       y       z     vdW  Elec       q    Type
REMARK                         _______ _______ _______ _____ _____    ______ ____
ROOT
ATOM      1  C   UNL     1       7.642   5.200  19.047  0.00  0.00    +0.000 C 
ATOM      2  C   UNL     1       6.182   5.017  18.711  0.00  0.00    +0.000 C 
ATOM      3  C   UNL     1       5.380   5.881  18.052  0.00  0.00    +0.000 C 
ATOM      4  C   UNL     1       3.879   5.644  18.014  0.00  0.00    +0.000 C 
ATOM      5  C   UNL     1       3.466   4.645  19.077  0.00  0.00    +0.000 C 
ATOM      6  C   UNL     1       2.220   4.182  19.283  0.00  0.00    +0.000 C 
ATOM      7  C   UNL     1       1.762   3.164  18.278  0.00  0.00    +0.000 C 
ATOM      8  C   UNL     1       2.579   1.882  18.487  0.00  0.00    +0.000 C 
ATOM      9  C   UNL     1       3.935   2.095  19.198  0.00  0.00    +0.000 C 
ATOM     10  C   UNL     1       4.460   3.533  19.109  0.00  0.00    +0.000 C 
ATOM     11  N   UNL     1       5.740   3.737  19.024  0.00  0.00    +0.000 NA
ENDROOT
BRANCH   4  12
ATOM     12  C   UNL     1       3.093   6.923  18.250  0.00  0.00    +0.000 A 
ATOM     13  C   UNL     1       2.749   7.866  17.219  0.00  0.00    +0.000 A 
ATOM     14  C   UNL     1       2.039   8.939  17.701  0.00  0.00    +0.000 A 
ATOM     15  S   UNL     1       1.765   8.829  19.383  0.00  0.00    +0.000 S 
ATOM     16  C   UNL     1       2.588   7.339  19.474  0.00  0.00    +0.000 A 
ENDBRANCH   4  12
BRANCH   3  17
ATOM     17  C   UNL     1       5.827   7.016  17.190  0.00  0.00    +0.000 C 
ATOM     18  O   UNL     1       5.819   6.927  15.971  0.00  0.00    +0.000 OA
BRANCH  17  19
ATOM     19  O   UNL     1       6.288   8.070  17.889  0.00  0.00    +0.000 OA
BRANCH  19  20
ATOM     20  C   UNL     1       7.645   8.448  17.608  0.00  0.00    +0.000 C 
BRANCH  20  21
ATOM     21  C   UNL     1       8.033   9.709  18.366  0.00  0.00    +0.000 C 
ATOM     22  C   UNL     1       8.263  10.918  17.474  0.00  0.00    +0.000 C 
ATOM     23  C   UNL     1       9.237  11.722  18.299  0.00  0.00    +0.000 C 
ATOM     24  C   UNL     1      10.100  10.641  18.911  0.00  0.00    +0.000 C 
ATOM     25  O   UNL     1       9.262   9.491  19.084  0.00  0.00    +0.000 OA
ENDBRANCH  20  21
ENDBRANCH  19  20
ENDBRANCH  17  19
ENDBRANCH   3  17
BRANCH   6  26
ATOM     26  O   UNL     1       1.874   3.856  20.597  0.00  0.00    +0.000 OA
ATOM     27  H   UNL     1       1.788   2.892  20.682  0.00  0.00    +0.000 HD
ENDBRANCH   6  26
TORSDOF 6
ENDMDL
MODEL 6
REMARK VINA RESULT:      -6.4      7.960     10.189
REMARK  Name = 
REMARK  7 active torsions:
REMARK  status: ('A' for Active; 'I' for Inactive)
REMARK    1  A    between atoms: C_1  and  C_2
REMARK    2  A    between atoms: C_3  and  C_4
REMARK    3  A    between atoms: C_4  and  O_6
REMARK    4  A    between atoms: O_6  and  C_7
REMARK    5  A    between atoms: C_7  and  C_8
REMARK    6  A    between atoms: C_13  and  C_14
REMARK    7  A    between atoms: C_20  and  O_21
REMARK                            x       y       z     vdW  Elec       q    Type
REMARK                         _______ _______ _______ _____ _____    ______ ____
ROOT
ATOM      1  C   UNL     1      -0.389   9.447  23.017  0.00  0.00    +0.000 C 
ATOM      2  C   UNL     1      -0.598  10.830  22.450  0.00  0.00    +0.000 C 
ATOM      3  C   UNL     1      -0.287  11.260  21.208  0.00  0.00    +0.000 C 
ATOM      4  C   UNL     1      -0.339  12.745  20.884  0.00  0.00    +0.000 C 
ATOM      5  C   UNL     1      -0.369  13.571  22.154  0.00  0.00    +0.000 C 
ATOM      6  C   UNL     1      -0.462  14.911  22.222  0.00  0.00    +0.000 C 
ATOM      7  C   UNL     1      -1.834  15.453  21.945  0.00  0.00    +0.000 C 
ATOM      8  C   UNL     1      -2.753  15.047  23.106  0.00  0.00    +0.000 C 
ATOM      9  C   UNL     1      -2.271  13.815  23.905  0.00  0.00    +0.000 C 
ATOM     10  C   UNL     1      -1.291  12.923  23.133  0.00  0.00    +0.000 C 
ATOM     11  N   UNL     1      -1.321  11.638  23.320  0.00  0.00    +0.000 NA
ENDROOT
BRANCH   4  12
ATOM     12  C   UNL     1       0.861  13.193  20.067  0.00  0.00    +0.000 A 
ATOM     13  C   UNL     1       2.198  13.310  20.585  0.00  0.00    +0.000 A 
ATOM     14  C   UNL     1       3.095  13.741  19.638  0.00  0.00    +0.000 A 
ATOM     15  S   UNL     1       2.356  14.000  18.120  0.00  0.00    +0.000 S 
ATOM     16  C   UNL     1       0.833  13.529  18.720  0.00  0.00    +0.000 A 
ENDBRANCH   4  12
BRANCH   3  17
ATOM     17  C   UNL     1      -0.028  10.397  20.016  0.00  0.00    +0.000 C 
ATOM     18  O   UNL     1       1.110  10.099  19.686  0.00  0.00    +0.000 OA
BRANCH  17  19
ATOM     19  O   UNL     1      -1.144  10.068  19.341  0.00  0.00    +0.000 OA
BRANCH  19  20
ATOM     20  C   UNL     1      -1.136  10.394  17.943  0.00  0.00    +0.000 C 
BRANCH  20  21
ATOM     21  C   UNL     1      -2.488  10.109  17.303  0.00  0.00    +0.000 C 
ATOM     22  C   UNL     1      -2.504  10.285  15.793  0.00  0.00    +0.000 C 
ATOM     23  C   UNL     1      -3.952  10.628  15.544  0.00  0.00    +0.000 C 
ATOM     24  C   UNL     1      -4.284  11.487  16.745  0.00  0.00    +0.000 C 
ATOM     25  O   UNL     1      -3.479  11.009  17.831  0.00  0.00    +0.000 OA
ENDBRANCH  20  21
ENDBRANCH  19  20
ENDBRANCH  17  19
ENDBRANCH   3  17
BRANCH   6  26
ATOM     26  O   UNL     1       0.174  15.537  23.298  0.00  0.00    +0.000 OA
ATOM     27  H   UNL     1      -0.410  15.523  24.074  0.00  0.00    +0.000 HD
ENDBRANCH   6  26
TORSDOF 6
ENDMDL
MODEL 7
REMARK VINA RESULT:      -6.4      7.399      9.955
REMARK  Name = 
REMARK  7 active torsions:
REMARK  status: ('A' for Active; 'I' for Inactive)
REMARK    1  A    between atoms: C_1  and  C_2
REMARK    2  A    between atoms: C_3  and  C_4
REMARK    3  A    between atoms: C_4  and  O_6
REMARK    4  A    between atoms: O_6  and  C_7
REMARK    5  A    between atoms: C_7  and  C_8
REMARK    6  A    between atoms: C_13  and  C_14
REMARK    7  A    between atoms: C_20  and  O_21
REMARK                            x       y       z     vdW  Elec       q    Type
REMARK                         _______ _______ _______ _____ _____    ______ ____
ROOT
ATOM      1  C   UNL     1      -3.666  14.086  21.552  0.00  0.00    +0.000 C 
ATOM      2  C   UNL     1      -2.927  13.119  20.661  0.00  0.00    +0.000 C 
ATOM      3  C   UNL     1      -1.603  12.849  20.669  0.00  0.00    +0.000 C 
ATOM      4  C   UNL     1      -0.989  12.032  19.542  0.00  0.00    +0.000 C 
ATOM      5  C   UNL     1      -1.927  11.968  18.353  0.00  0.00    +0.000 C 
ATOM      6  C   UNL     1      -1.708  11.289  17.212  0.00  0.00    +0.000 C 
ATOM      7  C   UNL     1      -1.899   9.804  17.327  0.00  0.00    +0.000 C 
ATOM      8  C   UNL     1      -3.393   9.528  17.539  0.00  0.00    +0.000 C 
ATOM      9  C   UNL     1      -4.191  10.719  18.118  0.00  0.00    +0.000 C 
ATOM     10  C   UNL     1      -3.319  11.751  18.844  0.00  0.00    +0.000 C 
ATOM     11  N   UNL     1      -3.799  12.369  19.880  0.00  0.00    +0.000 NA
ENDROOT
BRANCH   4  12
ATOM     12  C   UNL     1       0.328  12.619  19.064  0.00  0.00    +0.000 A 
ATOM     13  C   UNL     1       1.527  11.854  18.848  0.00  0.00    +0.000 A 
ATOM     14  C   UNL     1       2.577  12.629  18.419  0.00  0.00    +0.000 A 
ATOM     15  S   UNL     1       2.143  14.273  18.259  0.00  0.00    +0.000 S 
ATOM     16  C   UNL     1       0.544  13.955  18.754  0.00  0.00    +0.000 A 
ENDBRANCH   4  12
BRANCH   3  17
ATOM     17  C   UNL     1      -0.650  13.144  21.780  0.00  0.00    +0.000 C 
ATOM     18  O   UNL     1      -0.436  14.292  22.142  0.00  0.00    +0.000 OA
BRANCH  17  19
ATOM     19  O   UNL     1      -0.030  12.051  22.259  0.00  0.00    +0.000 OA
BRANCH  19  20
ATOM     20  C   UNL     1      -0.896  11.036  22.791  0.00  0.00    +0.000 C 
BRANCH  20  21
ATOM     21  C   UNL     1      -0.394   9.643  22.439  0.00  0.00    +0.000 C 
ATOM     22  C   UNL     1       1.097   9.451  22.662  0.00  0.00    +0.000 C 
ATOM     23  C   UNL     1       1.417   8.372  21.658  0.00  0.00    +0.000 C 
ATOM     24  C   UNL     1       0.531   8.753  20.492  0.00  0.00    +0.000 C 
ATOM     25  O   UNL     1      -0.638   9.373  21.046  0.00  0.00    +0.000 OA
ENDBRANCH  20  21
ENDBRANCH  19  20
ENDBRANCH  17  19
ENDBRANCH   3  17
BRANCH   6  26
ATOM     26  O   UNL     1      -2.249  11.828  16.041  0.00  0.00    +0.000 OA
ATOM     27  H   UNL     1      -3.048  12.338  16.256  0.00  0.00    +0.000 HD
ENDBRANCH   6  26
TORSDOF 6
ENDMDL
MODEL 8
REMARK VINA RESULT:      -6.3      9.014     11.442
REMARK  Name = 
REMARK  7 active torsions:
REMARK  status: ('A' for Active; 'I' for Inactive)
REMARK    1  A    between atoms: C_1  and  C_2
REMARK    2  A    between atoms: C_3  and  C_4
REMARK    3  A    between atoms: C_4  and  O_6
REMARK    4  A    between atoms: O_6  and  C_7
REMARK    5  A    between atoms: C_7  and  C_8
REMARK    6  A    between atoms: C_13  and  C_14
REMARK    7  A    between atoms: C_20  and  O_21
REMARK                            x       y       z     vdW  Elec       q    Type
REMARK                         _______ _______ _______ _____ _____    ______ ____
ROOT
ATOM      1  C   UNL     1      10.831  16.739  17.170  0.00  0.00    +0.000 C 
ATOM      2  C   UNL     1      10.249  15.566  17.920  0.00  0.00    +0.000 C 
ATOM      3  C   UNL     1       9.266  15.594  18.845  0.00  0.00    +0.000 C 
ATOM      4  C   UNL     1       8.972  14.355  19.677  0.00  0.00    +0.000 C 
ATOM      5  C   UNL     1      10.118  13.368  19.594  0.00  0.00    +0.000 C 
ATOM      6  C   UNL     1      10.158  12.155  20.174  0.00  0.00    +0.000 C 
ATOM      7  C   UNL     1       9.328  11.109  19.486  0.00  0.00    +0.000 C 
ATOM      8  C   UNL     1       9.978  10.797  18.131  0.00  0.00    +0.000 C 
ATOM      9  C   UNL     1      10.889  11.919  17.582  0.00  0.00    +0.000 C 
ATOM     10  C   UNL     1      10.598  13.300  18.182  0.00  0.00    +0.000 C 
ATOM     11  N   UNL     1      10.737  14.356  17.440  0.00  0.00    +0.000 NA
ENDROOT
BRANCH   4  12
ATOM     12  C   UNL     1       8.754  14.690  21.143  0.00  0.00    +0.000 A 
ATOM     13  C   UNL     1       7.504  14.525  21.836  0.00  0.00    +0.000 A 
ATOM     14  C   UNL     1       7.577  14.907  23.154  0.00  0.00    +0.000 A 
ATOM     15  S   UNL     1       9.136  15.455  23.581  0.00  0.00    +0.000 S 
ATOM     16  C   UNL     1       9.726  15.176  22.007  0.00  0.00    +0.000 A 
ENDBRANCH   4  12
BRANCH   3  17
ATOM     17  C   UNL     1       8.288  16.703  19.059  0.00  0.00    +0.000 C 
ATOM     18  O   UNL     1       8.614  17.734  19.628  0.00  0.00    +0.000 OA
BRANCH  17  19
ATOM     19  O   UNL     1       7.045  16.410  18.634  0.00  0.00    +0.000 OA
BRANCH  19  20
ATOM     20  C   UNL     1       5.984  17.101  19.311  0.00  0.00    +0.000 C 
BRANCH  20  21
ATOM     21  C   UNL     1       4.647  16.411  19.088  0.00  0.00    +0.000 C 
ATOM     22  C   UNL     1       4.767  14.984  18.578  0.00  0.00    +0.000 C 
ATOM     23  C   UNL     1       3.469  14.820  17.827  0.00  0.00    +0.000 C 
ATOM     24  C   UNL     1       3.290  16.186  17.204  0.00  0.00    +0.000 C 
ATOM     25  O   UNL     1       3.881  17.133  18.104  0.00  0.00    +0.000 OA
ENDBRANCH  20  21
ENDBRANCH  19  20
ENDBRANCH  17  19
ENDBRANCH   3  17
BRANCH   6  26
ATOM     26  O   UNL     1      11.412  11.687  20.579  0.00  0.00    +0.000 OA
ATOM     27  H   UNL     1      12.094  12.336  20.340  0.00  0.00    +0.000 HD
ENDBRANCH   6  26
TORSDOF 6
ENDMDL
MODEL 9
REMARK VINA RESULT:      -6.3      1.116      1.215
REMARK  Name = 
REMARK  7 active torsions:
REMARK  status: ('A' for Active; 'I' for Inactive)
REMARK    1  A    between atoms: C_1  and  C_2
REMARK    2  A    between atoms: C_3  and  C_4
REMARK    3  A    between atoms: C_4  and  O_6
REMARK    4  A    between atoms: O_6  and  C_7
REMARK    5  A    between atoms: C_7  and  C_8
REMARK    6  A    between atoms: C_13  and  C_14
REMARK    7  A    between atoms: C_20  and  O_21
REMARK                            x       y       z     vdW  Elec       q    Type
REMARK                         _______ _______ _______ _____ _____    ______ ____
ROOT
ATOM      1  C   UNL     1       7.060   5.225  19.155  0.00  0.00    +0.000 C 
ATOM      2  C   UNL     1       5.572   5.062  18.962  0.00  0.00    +0.000 C 
ATOM      3  C   UNL     1       4.729   5.918  18.346  0.00  0.00    +0.000 C 
ATOM      4  C   UNL     1       3.226   5.713  18.457  0.00  0.00    +0.000 C 
ATOM      5  C   UNL     1       2.896   4.765  19.592  0.00  0.00    +0.000 C 
ATOM      6  C   UNL     1       1.665   4.338  19.930  0.00  0.00    +0.000 C 
ATOM      7  C   UNL     1       1.097   3.293  19.014  0.00  0.00    +0.000 C 
ATOM      8  C   UNL     1       1.906   2.002  19.198  0.00  0.00    +0.000 C 
ATOM      9  C   UNL     1       3.326   2.211  19.771  0.00  0.00    +0.000 C 
ATOM     10  C   UNL     1       3.868   3.633  19.577  0.00  0.00    +0.000 C 
ATOM     11  N   UNL     1       5.137   3.805  19.366  0.00  0.00    +0.000 NA
ENDROOT
BRANCH   4  12
ATOM     12  C   UNL     1       2.489   7.017  18.713  0.00  0.00    +0.000 A 
ATOM     13  C   UNL     1       2.135   7.507  20.018  0.00  0.00    +0.000 A 
ATOM     14  C   UNL     1       1.470   8.708  19.969  0.00  0.00    +0.000 A 
ATOM     15  S   UNL     1       1.270   9.270  18.368  0.00  0.00    +0.000 S 
ATOM     16  C   UNL     1       2.082   7.912  17.733  0.00  0.00    +0.000 A 
ENDBRANCH   4  12
BRANCH   3  17
ATOM     17  C   UNL     1       5.115   7.009  17.402  0.00  0.00    +0.000 C 
ATOM     18  O   UNL     1       5.887   7.895  17.740  0.00  0.00    +0.000 OA
BRANCH  17  19
ATOM     19  O   UNL     1       4.481   6.941  16.217  0.00  0.00    +0.000 OA
BRANCH  19  20
ATOM     20  C   UNL     1       5.333   6.972  15.061  0.00  0.00    +0.000 C 
BRANCH  20  21
ATOM     21  C   UNL     1       5.879   5.588  14.742  0.00  0.00    +0.000 C 
ATOM     22  C   UNL     1       5.034   4.451  15.293  0.00  0.00    +0.000 C 
ATOM     23  C   UNL     1       6.064   3.361  15.459  0.00  0.00    +0.000 C 
ATOM     24  C   UNL     1       7.276   4.140  15.922  0.00  0.00    +0.000 C 
ATOM     25  O   UNL     1       7.192   5.436  15.314  0.00  0.00    +0.000 OA
ENDBRANCH  20  21
ENDBRANCH  19  20
ENDBRANCH  17  19
ENDBRANCH   3  17
BRANCH   6  26
ATOM     26  O   UNL     1       1.438   4.070  21.283  0.00  0.00    +0.000 OA
ATOM     27  H   UNL     1       1.822   3.208  21.514  0.00  0.00    +0.000 HD
ENDBRANCH   6  26
TORSDOF 6
ENDMDL
