MODEL 1
REMARK VINA RESULT:      -6.6      0.000      0.000
REMARK  Name = 
REMARK  5 active torsions:
REMARK  status: ('A' for Active; 'I' for Inactive)
REMARK    1  A    between atoms: C_1  and  O_2
REMARK    2  A    between atoms: O_2  and  C_3
REMARK    3  A    between atoms: C_5  and  O_6
REMARK    4  A    between atoms: O_6  and  C_7
REMARK    5  A    between atoms: C_9  and  C_10
REMARK                            x       y       z     vdW  Elec       q    Type
REMARK                         _______ _______ _______ _____ _____    ______ ____
ROOT
ATOM      1  C   UNL     1       5.674   6.434  17.414  0.00  0.00    +0.000 A 
ATOM      2  C   UNL     1       4.376   6.918  17.469  0.00  0.00    +0.000 A 
ATOM      3  C   UNL     1       3.304   6.271  18.167  0.00  0.00    +0.000 A 
ATOM      4  C   UNL     1       3.540   5.056  18.862  0.00  0.00    +0.000 A 
ATOM      5  C   UNL     1       2.677   4.128  19.670  0.00  0.00    +0.000 A 
ATOM      6  C   UNL     1       1.225   4.222  20.025  0.00  0.00    +0.000 C 
ATOM      7  C   UNL     1       3.215   3.008  20.195  0.00  0.00    +0.000 A 
ATOM      8  C   UNL     1       4.600   2.585  20.074  0.00  0.00    +0.000 A 
ATOM      9  O   UNL     1       5.003   1.546  20.584  0.00  0.00    +0.000 OA
ATOM     10  O   UNL     1       5.398   3.432  19.364  0.00  0.00    +0.000 OA
ATOM     11  C   UNL     1       4.896   4.618  18.768  0.00  0.00    +0.000 A 
ATOM     12  C   UNL     1       5.932   5.267  18.081  0.00  0.00    +0.000 A 
ENDROOT
BRANCH   1  14
ATOM     13  C   UNL     1       7.620   7.780  17.452  0.00  0.00    +0.000 C 
ATOM     14  O   UNL     1       6.575   7.168  16.698  0.00  0.00    +0.000 OA
ENDBRANCH   1  14
BRANCH   3  15
ATOM     15  O   UNL     1       2.229   7.076  17.945  0.00  0.00    +0.000 OA
ATOM     16  C   UNL     1       2.201   8.473  17.953  0.00  0.00    +0.000 C 
ENDBRANCH   3  15
TORSDOF 2
ENDMDL
MODEL 2
REMARK VINA RESULT:      -6.6      1.581      4.245
REMARK  Name = 
REMARK  5 active torsions:
REMARK  status: ('A' for Active; 'I' for Inactive)
REMARK    1  A    between atoms: C_1  and  O_2
REMARK    2  A    between atoms: O_2  and  C_3
REMARK    3  A    between atoms: C_5  and  O_6
REMARK    4  A    between atoms: O_6  and  C_7
REMARK    5  A    between atoms: C_9  and  C_10
REMARK                            x       y       z     vdW  Elec       q    Type
REMARK                         _______ _______ _______ _____ _____    ______ ____
ROOT
ATOM      1  C   UNL     1       6.354   5.250  16.668  0.00  0.00    +0.000 A 
ATOM      2  C   UNL     1       6.088   4.381  17.716  0.00  0.00    +0.000 A 
ATOM      3  C   UNL     1       5.007   4.546  18.643  0.00  0.00    +0.000 A 
ATOM      4  C   UNL     1       4.126   5.652  18.519  0.00  0.00    +0.000 A 
ATOM      5  C   UNL     1       2.928   6.127  19.292  0.00  0.00    +0.000 A 
ATOM      6  C   UNL     1       2.249   5.529  20.485  0.00  0.00    +0.000 C 
ATOM      7  C   UNL     1       2.306   7.265  18.921  0.00  0.00    +0.000 A 
ATOM      8  C   UNL     1       2.671   8.113  17.799  0.00  0.00    +0.000 A 
ATOM      9  O   UNL     1       2.048   9.136  17.535  0.00  0.00    +0.000 OA
ATOM     10  O   UNL     1       3.741   7.679  17.075  0.00  0.00    +0.000 OA
ATOM     11  C   UNL     1       4.454   6.501  17.419  0.00  0.00    +0.000 A 
ATOM     12  C   UNL     1       5.517   6.323  16.521  0.00  0.00    +0.000 A 
ENDROOT
BRANCH   1  14
ATOM     13  C   UNL     1       7.157   4.790  14.490  0.00  0.00    +0.000 C 
ATOM     14  O   UNL     1       7.429   4.954  15.881  0.00  0.00    +0.000 OA
ENDBRANCH   1  14
BRANCH   3  15
ATOM     15  O   UNL     1       5.134   3.488  19.491  0.00  0.00    +0.000 OA
ATOM     16  C   UNL     1       4.224   2.446  19.688  0.00  0.00    +0.000 C 
ENDBRANCH   3  15
TORSDOF 2
ENDMDL
MODEL 3
REMARK VINA RESULT:      -6.4      2.036      3.783
REMARK  Name = 
REMARK  5 active torsions:
REMARK  status: ('A' for Active; 'I' for Inactive)
REMARK    1  A    between atoms: C_1  and  O_2
REMARK    2  A    between atoms: O_2  and  C_3
REMARK    3  A    between atoms: C_5  and  O_6
REMARK    4  A    between atoms: O_6  and  C_7
REMARK    5  A    between atoms: C_9  and  C_10
REMARK                            x       y       z     vdW  Elec       q    Type
REMARK                         _______ _______ _______ _____ _____    ______ ____
ROOT
ATOM      1  C   UNL     1       4.692   5.750  16.692  0.00  0.00    +0.000 A 
ATOM      2  C   UNL     1       4.322   4.419  16.809  0.00  0.00    +0.000 A 
ATOM      3  C   UNL     1       3.390   3.925  17.779  0.00  0.00    +0.000 A 
ATOM      4  C   UNL     1       2.779   4.820  18.697  0.00  0.00    +0.000 A 
ATOM      5  C   UNL     1       1.792   4.655  19.819  0.00  0.00    +0.000 A 
ATOM      6  C   UNL     1       1.096   3.428  20.321  0.00  0.00    +0.000 C 
ATOM      7  C   UNL     1       1.419   5.733  20.539  0.00  0.00    +0.000 A 
ATOM      8  C   UNL     1       1.874   7.098  20.336  0.00  0.00    +0.000 A 
ATOM      9  O   UNL     1       1.483   8.020  21.043  0.00  0.00    +0.000 OA
ATOM     10  O   UNL     1       2.750   7.263  19.305  0.00  0.00    +0.000 OA
ATOM     11  C   UNL     1       3.200   6.172  18.518  0.00  0.00    +0.000 A 
ATOM     12  C   UNL     1       4.115   6.636  17.560  0.00  0.00    +0.000 A 
ENDROOT
BRANCH   1  14
ATOM     13  C   UNL     1       6.658   5.112  15.538  0.00  0.00    +0.000 C 
ATOM     14  O   UNL     1       5.601   6.053  15.719  0.00  0.00    +0.000 OA
ENDBRANCH   1  14
BRANCH   3  15
ATOM     15  O   UNL     1       3.341   2.586  17.541  0.00  0.00    +0.000 OA
ATOM     16  C   UNL     1       3.622   1.554  18.440  0.00  0.00    +0.000 C 
ENDBRANCH   3  15
TORSDOF 2
ENDMDL
MODEL 4
REMARK VINA RESULT:      -6.2      1.862      1.987
REMARK  Name = 
REMARK  5 active torsions:
REMARK  status: ('A' for Active; 'I' for Inactive)
REMARK    1  A    between atoms: C_1  and  O_2
REMARK    2  A    between atoms: O_2  and  C_3
REMARK    3  A    between atoms: C_5  and  O_6
REMARK    4  A    between atoms: O_6  and  C_7
REMARK    5  A    between atoms: C_9  and  C_10
REMARK                            x       y       z     vdW  Elec       q    Type
REMARK                         _______ _______ _______ _____ _____    ______ ____
ROOT
ATOM      1  C   UNL     1       5.478   5.584  15.794  0.00  0.00    +0.000 A 
ATOM      2  C   UNL     1       4.885   6.654  16.448  0.00  0.00    +0.000 A 
ATOM      3  C   UNL     1       3.971   6.520  17.544  0.00  0.00    +0.000 A 
ATOM      4  C   UNL     1       3.622   5.231  18.026  0.00  0.00    +0.000 A 
ATOM      5  C   UNL     1       2.717   4.732  19.118  0.00  0.00    +0.000 A 
ATOM      6  C   UNL     1       1.878   5.490  20.100  0.00  0.00    +0.000 C 
ATOM      7  C   UNL     1       2.581   3.404  19.312  0.00  0.00    +0.000 A 
ATOM      8  C   UNL     1       3.250   2.356  18.561  0.00  0.00    +0.000 A 
ATOM      9  O   UNL     1       3.064   1.169  18.806  0.00  0.00    +0.000 OA
ATOM     10  O   UNL     1       4.092   2.797  17.585  0.00  0.00    +0.000 OA
ATOM     11  C   UNL     1       4.270   4.178  17.312  0.00  0.00    +0.000 A 
ATOM     12  C   UNL     1       5.164   4.330  16.242  0.00  0.00    +0.000 A 
ENDROOT
BRANCH   1  14
ATOM     13  C   UNL     1       6.936   4.770  14.118  0.00  0.00    +0.000 C 
ATOM     14  O   UNL     1       6.320   5.883  14.762  0.00  0.00    +0.000 OA
ENDBRANCH   1  14
BRANCH   3  15
ATOM     15  O   UNL     1       3.639   7.803  17.857  0.00  0.00    +0.000 OA
ATOM     16  C   UNL     1       2.372   8.390  17.796  0.00  0.00    +0.000 C 
ENDBRANCH   3  15
TORSDOF 2
ENDMDL
MODEL 5
REMARK VINA RESULT:      -6.2      1.973      2.342
REMARK  Name = 
REMARK  5 active torsions:
REMARK  status: ('A' for Active; 'I' for Inactive)
REMARK    1  A    between atoms: C_1  and  O_2
REMARK    2  A    between atoms: O_2  and  C_3
REMARK    3  A    between atoms: C_5  and  O_6
REMARK    4  A    between atoms: O_6  and  C_7
REMARK    5  A    between atoms: C_9  and  C_10
REMARK                            x       y       z     vdW  Elec       q    Type
REMARK                         _______ _______ _______ _____ _____    ______ ____
ROOT
ATOM      1  C   UNL     1       4.911   4.357  17.063  0.00  0.00    +0.000 A 
ATOM      2  C   UNL     1       4.515   5.686  17.068  0.00  0.00    +0.000 A 
ATOM      3  C   UNL     1       3.657   6.266  18.059  0.00  0.00    +0.000 A 
ATOM      4  C   UNL     1       3.159   5.469  19.122  0.00  0.00    +0.000 A 
ATOM      5  C   UNL     1       2.259   5.736  20.296  0.00  0.00    +0.000 A 
ATOM      6  C   UNL     1       1.595   7.003  20.737  0.00  0.00    +0.000 C 
ATOM      7  C   UNL     1       1.948   4.727  21.137  0.00  0.00    +0.000 A 
ATOM      8  C   UNL     1       2.416   3.355  21.039  0.00  0.00    +0.000 A 
ATOM      9  O   UNL     1       2.079   2.500  21.850  0.00  0.00    +0.000 OA
ATOM     10  O   UNL     1       3.253   3.108  19.993  0.00  0.00    +0.000 OA
ATOM     11  C   UNL     1       3.608   4.115  19.059  0.00  0.00    +0.000 A 
ATOM     12  C   UNL     1       4.450   3.566  18.080  0.00  0.00    +0.000 A 
ENDROOT
BRANCH   1  14
ATOM     13  C   UNL     1       5.611   4.704  14.829  0.00  0.00    +0.000 C 
ATOM     14  O   UNL     1       5.725   3.961  16.041  0.00  0.00    +0.000 OA
ENDBRANCH   1  14
BRANCH   3  15
ATOM     15  O   UNL     1       3.529   7.564  17.668  0.00  0.00    +0.000 OA
ATOM     16  C   UNL     1       2.361   8.330  17.642  0.00  0.00    +0.000 C 
ENDBRANCH   3  15
TORSDOF 2
ENDMDL
MODEL 6
REMARK VINA RESULT:      -6.2      0.979      1.084
REMARK  Name = 
REMARK  5 active torsions:
REMARK  status: ('A' for Active; 'I' for Inactive)
REMARK    1  A    between atoms: C_1  and  O_2
REMARK    2  A    between atoms: O_2  and  C_3
REMARK    3  A    between atoms: C_5  and  O_6
REMARK    4  A    between atoms: O_6  and  C_7
REMARK    5  A    between atoms: C_9  and  C_10
REMARK                            x       y       z     vdW  Elec       q    Type
REMARK                         _______ _______ _______ _____ _____    ______ ____
ROOT
ATOM      1  C   UNL     1       5.501   5.615  17.007  0.00  0.00    +0.000 A 
ATOM      2  C   UNL     1       4.285   6.268  17.139  0.00  0.00    +0.000 A 
ATOM      3  C   UNL     1       3.277   5.908  18.093  0.00  0.00    +0.000 A 
ATOM      4  C   UNL     1       3.494   4.821  18.980  0.00  0.00    +0.000 A 
ATOM      5  C   UNL     1       2.679   4.181  20.067  0.00  0.00    +0.000 A 
ATOM      6  C   UNL     1       1.320   4.530  20.591  0.00  0.00    +0.000 C 
ATOM      7  C   UNL     1       3.175   3.114  20.729  0.00  0.00    +0.000 A 
ATOM      8  C   UNL     1       4.471   2.497  20.508  0.00  0.00    +0.000 A 
ATOM      9  O   UNL     1       4.841   1.525  21.157  0.00  0.00    +0.000 OA
ATOM     10  O   UNL     1       5.230   3.085  19.541  0.00  0.00    +0.000 OA
ATOM     11  C   UNL     1       4.765   4.197  18.792  0.00  0.00    +0.000 A 
ATOM     12  C   UNL     1       5.739   4.566  17.853  0.00  0.00    +0.000 A 
ENDROOT
BRANCH   1  14
ATOM     13  C   UNL     1       6.926   5.089  15.192  0.00  0.00    +0.000 C 
ATOM     14  O   UNL     1       6.348   6.078  16.042  0.00  0.00    +0.000 OA
ENDBRANCH   1  14
BRANCH   3  15
ATOM     15  O   UNL     1       2.270   6.795  17.861  0.00  0.00    +0.000 OA
ATOM     16  C   UNL     1       2.234   8.146  18.212  0.00  0.00    +0.000 C 
ENDBRANCH   3  15
TORSDOF 2
ENDMDL
MODEL 7
REMARK VINA RESULT:      -6.2      2.296      3.523
REMARK  Name = 
REMARK  5 active torsions:
REMARK  status: ('A' for Active; 'I' for Inactive)
REMARK    1  A    between atoms: C_1  and  O_2
REMARK    2  A    between atoms: O_2  and  C_3
REMARK    3  A    between atoms: C_5  and  O_6
REMARK    4  A    between atoms: O_6  and  C_7
REMARK    5  A    between atoms: C_9  and  C_10
REMARK                            x       y       z     vdW  Elec       q    Type
REMARK                         _______ _______ _______ _____ _____    ______ ____
ROOT
ATOM      1  C   UNL     1       2.941   7.071  18.416  0.00  0.00    +0.000 A 
ATOM      2  C   UNL     1       3.545   6.279  17.451  0.00  0.00    +0.000 A 
ATOM      3  C   UNL     1       3.681   4.856  17.547  0.00  0.00    +0.000 A 
ATOM      4  C   UNL     1       3.178   4.168  18.683  0.00  0.00    +0.000 A 
ATOM      5  C   UNL     1       3.153   2.727  19.107  0.00  0.00    +0.000 A 
ATOM      6  C   UNL     1       3.662   1.505  18.407  0.00  0.00    +0.000 C 
ATOM      7  C   UNL     1       2.605   2.393  20.293  0.00  0.00    +0.000 A 
ATOM      8  C   UNL     1       1.996   3.308  21.243  0.00  0.00    +0.000 A 
ATOM      9  O   UNL     1       1.522   2.915  22.304  0.00  0.00    +0.000 OA
ATOM     10  O   UNL     1       1.990   4.615  20.858  0.00  0.00    +0.000 OA
ATOM     11  C   UNL     1       2.566   5.041  19.633  0.00  0.00    +0.000 A 
ATOM     12  C   UNL     1       2.442   6.434  19.520  0.00  0.00    +0.000 A 
ENDROOT
BRANCH   1  14
ATOM     13  C   UNL     1       1.608   8.965  17.933  0.00  0.00    +0.000 C 
ATOM     14  O   UNL     1       2.901   8.413  18.175  0.00  0.00    +0.000 OA
ENDBRANCH   1  14
BRANCH   3  15
ATOM     15  O   UNL     1       4.334   4.507  16.404  0.00  0.00    +0.000 OA
ATOM     16  C   UNL     1       5.624   3.983  16.292  0.00  0.00    +0.000 C 
ENDBRANCH   3  15
TORSDOF 2
ENDMDL
MODEL 8
REMARK VINA RESULT:      -6.2      2.287      3.272
REMARK  Name = 
REMARK  5 active torsions:
REMARK  status: ('A' for Active; 'I' for Inactive)
REMARK    1  A    between atoms: C_1  and  O_2
REMARK    2  A    between atoms: O_2  and  C_3
REMARK    3  A    between atoms: C_5  and  O_6
REMARK    4  A    between atoms: O_6  and  C_7
REMARK    5  A    between atoms: C_9  and  C_10
REMARK                            x       y       z     vdW  Elec       q    Type
REMARK                         _______ _______ _______ _____ _____    ______ ____
ROOT
ATOM      1  C   UNL     1       6.767   6.335  17.080  0.00  0.00    +0.000 A 
ATOM      2  C   UNL     1       6.588   5.288  16.188  0.00  0.00    +0.000 A 
ATOM      3  C   UNL     1       5.579   4.279  16.323  0.00  0.00    +0.000 A 
ATOM      4  C   UNL     1       4.682   4.314  17.423  0.00  0.00    +0.000 A 
ATOM      5  C   UNL     1       3.542   3.443  17.871  0.00  0.00    +0.000 A 
ATOM      6  C   UNL     1       2.960   2.214  17.244  0.00  0.00    +0.000 C 
ATOM      7  C   UNL     1       2.884   3.743  19.010  0.00  0.00    +0.000 A 
ATOM      8  C   UNL     1       3.156   4.872  19.884  0.00  0.00    +0.000 A 
ATOM      9  O   UNL     1       2.506   5.067  20.905  0.00  0.00    +0.000 OA
ATOM     10  O   UNL     1       4.171   5.683  19.474  0.00  0.00    +0.000 OA
ATOM     11  C   UNL     1       4.919   5.418  18.297  0.00  0.00    +0.000 A 
ATOM     12  C   UNL     1       5.912   6.397  18.147  0.00  0.00    +0.000 A 
ENDROOT
BRANCH   1  14
ATOM     13  C   UNL     1       7.885   8.332  17.681  0.00  0.00    +0.000 C 
ATOM     14  O   UNL     1       7.781   7.207  16.810  0.00  0.00    +0.000 OA
ENDBRANCH   1  14
BRANCH   3  15
ATOM     15  O   UNL     1       5.778   3.464  15.251  0.00  0.00    +0.000 OA
ATOM     16  C   UNL     1       6.209   3.834  13.975  0.00  0.00    +0.000 C 
ENDBRANCH   3  15
TORSDOF 2
ENDMDL
MODEL 9
REMARK VINA RESULT:      -6.2      2.446      4.385
REMARK  Name = 
REMARK  5 active torsions:
REMARK  status: ('A' for Active; 'I' for Inactive)
REMARK    1  A    between atoms: C_1  and  O_2
REMARK    2  A    between atoms: O_2  and  C_3
REMARK    3  A    between atoms: C_5  and  O_6
REMARK    4  A    between atoms: O_6  and  C_7
REMARK    5  A    between atoms: C_9  and  C_10
REMARK                            x       y       z     vdW  Elec       q    Type
REMARK                         _______ _______ _______ _____ _____    ______ ____
ROOT
ATOM      1  C   UNL     1       2.207   7.134  19.640  0.00  0.00    +0.000 A 
ATOM      2  C   UNL     1       1.767   5.998  20.301  0.00  0.00    +0.000 A 
ATOM      3  C   UNL     1       2.113   4.660  19.920  0.00  0.00    +0.000 A 
ATOM      4  C   UNL     1       2.961   4.436  18.804  0.00  0.00    +0.000 A 
ATOM      5  C   UNL     1       3.508   3.205  18.136  0.00  0.00    +0.000 A 
ATOM      6  C   UNL     1       3.333   1.759  18.483  0.00  0.00    +0.000 C 
ATOM      7  C   UNL     1       4.291   3.334  17.045  0.00  0.00    +0.000 A 
ATOM      8  C   UNL     1       4.693   4.583  16.422  0.00  0.00    +0.000 A 
ATOM      9  O   UNL     1       5.408   4.606  15.426  0.00  0.00    +0.000 OA
ATOM     10  O   UNL     1       4.223   5.707  17.034  0.00  0.00    +0.000 OA
ATOM     11  C   UNL     1       3.380   5.647  18.174  0.00  0.00    +0.000 A 
ATOM     12  C   UNL     1       3.030   6.948  18.562  0.00  0.00    +0.000 A 
ENDROOT
BRANCH   1  14
ATOM     13  C   UNL     1       1.088   8.292  21.374  0.00  0.00    +0.000 C 
ATOM     14  O   UNL     1       1.777   8.335  20.126  0.00  0.00    +0.000 OA
ENDBRANCH   1  14
BRANCH   3  15
ATOM     15  O   UNL     1       1.459   3.878  20.823  0.00  0.00    +0.000 OA
ATOM     16  C   UNL     1       2.020   2.946  21.699  0.00  0.00    +0.000 C 
ENDBRANCH   3  15
TORSDOF 2
ENDMDL
