MODEL 1
REMARK VINA RESULT:      -7.9      0.000      0.000
REMARK  Name = 
REMARK  8 active torsions:
REMARK  status: ('A' for Active; 'I' for Inactive)
REMARK    1  A    between atoms: C_1  and  C_2
REMARK    2  A    between atoms: C_2  and  O_3
REMARK    3  A    between atoms: O_3  and  C_4
REMARK    4  A    between atoms: C_4  and  C_6
REMARK    5  A    between atoms: C_6  and  S_7
REMARK    6  A    between atoms: S_7  and  C_8
REMARK    7  A    between atoms: C_10  and  C_11
REMARK    8  A    between atoms: C_21  and  C_22
REMARK                            x       y       z     vdW  Elec       q    Type
REMARK                         _______ _______ _______ _____ _____    ______ ____
ROOT
ATOM      1  C   UNL     1       4.630   4.329  18.104  0.00  0.00    +0.000 A 
ATOM      2  N   UNL     1       5.300   4.060  16.976  0.00  0.00    +0.000 NA
ATOM      3  C   UNL     1       5.290   5.003  16.025  0.00  0.00    +0.000 A 
ATOM      4  N   UNL     1       4.678   6.196  16.134  0.00  0.00    +0.000 NA
ATOM      5  C   UNL     1       4.008   6.443  17.256  0.00  0.00    +0.000 A 
ATOM      6  C   UNL     1       3.297   7.636  17.345  0.00  0.00    +0.000 A 
ATOM      7  C   UNL     1       2.526   7.953  18.465  0.00  0.00    +0.000 A 
ATOM      8  C   UNL     1       2.477   7.080  19.547  0.00  0.00    +0.000 A 
ATOM      9  C   UNL     1       1.681   7.397  20.777  0.00  0.00    +0.000 C 
ATOM     10  C   UNL     1       3.199   5.882  19.475  0.00  0.00    +0.000 A 
ATOM     11  C   UNL     1       3.946   5.538  18.322  0.00  0.00    +0.000 A 
ENDROOT
BRANCH   3  12
ATOM     12  C   UNL     1       5.985   4.703  14.772  0.00  0.00    +0.000 A 
ATOM     13  C   UNL     1       7.205   5.328  14.447  0.00  0.00    +0.000 A 
ATOM     14  C   UNL     1       7.823   5.107  13.218  0.00  0.00    +0.000 A 
ATOM     15  C   UNL     1       7.238   4.242  12.295  0.00  0.00    +0.000 A 
ATOM     16  C   UNL     1       6.057   3.581  12.609  0.00  0.00    +0.000 A 
ATOM     17  C   UNL     1       5.443   3.801  13.839  0.00  0.00    +0.000 A 
ENDBRANCH   3  12
BRANCH   1  18
ATOM     18  S   UNL     1       4.482   2.932  19.233  0.00  0.00    +0.000 S 
BRANCH  18  19
ATOM     19  C   UNL     1       3.401   1.804  18.264  0.00  0.00    +0.000 C 
BRANCH  19  20
ATOM     20  C   UNL     1       2.028   2.412  18.103  0.00  0.00    +0.000 C 
ATOM     21  O   UNL     1       1.698   3.154  17.175  0.00  0.00    +0.000 OA
BRANCH  20  22
ATOM     22  O   UNL     1       1.185   2.026  19.102  0.00  0.00    +0.000 OA
BRANCH  22  24
ATOM     23  C   UNL     1       1.347   2.864  21.381  0.00  0.00    +0.000 C 
ATOM     24  C   UNL     1       0.819   3.105  19.978  0.00  0.00    +0.000 C 
ENDBRANCH  22  24
ENDBRANCH  20  22
ENDBRANCH  19  20
ENDBRANCH  18  19
ENDBRANCH   1  18
TORSDOF 6
ENDMDL
MODEL 2
REMARK VINA RESULT:      -7.7      0.242      1.014
REMARK  Name = 
REMARK  8 active torsions:
REMARK  status: ('A' for Active; 'I' for Inactive)
REMARK    1  A    between atoms: C_1  and  C_2
REMARK    2  A    between atoms: C_2  and  O_3
REMARK    3  A    between atoms: O_3  and  C_4
REMARK    4  A    between atoms: C_4  and  C_6
REMARK    5  A    between atoms: C_6  and  S_7
REMARK    6  A    between atoms: S_7  and  C_8
REMARK    7  A    between atoms: C_10  and  C_11
REMARK    8  A    between atoms: C_21  and  C_22
REMARK                            x       y       z     vdW  Elec       q    Type
REMARK                         _______ _______ _______ _____ _____    ______ ____
ROOT
ATOM      1  C   UNL     1       4.635   4.413  18.137  0.00  0.00    +0.000 A 
ATOM      2  N   UNL     1       5.289   4.156  16.996  0.00  0.00    +0.000 NA
ATOM      3  C   UNL     1       5.243   5.098  16.045  0.00  0.00    +0.000 A 
ATOM      4  N   UNL     1       4.610   6.279  16.165  0.00  0.00    +0.000 NA
ATOM      5  C   UNL     1       3.957   6.514  17.299  0.00  0.00    +0.000 A 
ATOM      6  C   UNL     1       3.226   7.694  17.402  0.00  0.00    +0.000 A 
ATOM      7  C   UNL     1       2.470   7.996  18.536  0.00  0.00    +0.000 A 
ATOM      8  C   UNL     1       2.458   7.124  19.619  0.00  0.00    +0.000 A 
ATOM      9  C   UNL     1       1.679   7.427  20.863  0.00  0.00    +0.000 C 
ATOM     10  C   UNL     1       3.201   5.940  19.533  0.00  0.00    +0.000 A 
ATOM     11  C   UNL     1       3.933   5.609  18.366  0.00  0.00    +0.000 A 
ENDROOT
BRANCH   3  12
ATOM     12  C   UNL     1       5.919   4.810  14.779  0.00  0.00    +0.000 A 
ATOM     13  C   UNL     1       5.382   3.889  13.858  0.00  0.00    +0.000 A 
ATOM     14  C   UNL     1       6.068   3.552  12.693  0.00  0.00    +0.000 A 
ATOM     15  C   UNL     1       7.299   4.144  12.419  0.00  0.00    +0.000 A 
ATOM     16  C   UNL     1       7.829   5.088  13.290  0.00  0.00    +0.000 A 
ATOM     17  C   UNL     1       7.141   5.426  14.452  0.00  0.00    +0.000 A 
ENDBRANCH   3  12
BRANCH   1  18
ATOM     18  S   UNL     1       4.534   3.014  19.269  0.00  0.00    +0.000 S 
BRANCH  18  19
ATOM     19  C   UNL     1       3.607   1.797  18.249  0.00  0.00    +0.000 C 
BRANCH  19  20
ATOM     20  C   UNL     1       2.240   2.340  17.909  0.00  0.00    +0.000 C 
ATOM     21  O   UNL     1       1.998   3.065  16.941  0.00  0.00    +0.000 OA
BRANCH  20  22
ATOM     22  O   UNL     1       1.294   1.916  18.792  0.00  0.00    +0.000 OA
BRANCH  22  24
ATOM     23  C   UNL     1       1.193   3.244  20.829  0.00  0.00    +0.000 C 
ATOM     24  C   UNL     1       0.611   2.996  19.449  0.00  0.00    +0.000 C 
ENDBRANCH  22  24
ENDBRANCH  20  22
ENDBRANCH  19  20
ENDBRANCH  18  19
ENDBRANCH   1  18
TORSDOF 6
ENDMDL
MODEL 3
REMARK VINA RESULT:      -7.6      1.863      3.048
REMARK  Name = 
REMARK  8 active torsions:
REMARK  status: ('A' for Active; 'I' for Inactive)
REMARK    1  A    between atoms: C_1  and  C_2
REMARK    2  A    between atoms: C_2  and  O_3
REMARK    3  A    between atoms: O_3  and  C_4
REMARK    4  A    between atoms: C_4  and  C_6
REMARK    5  A    between atoms: C_6  and  S_7
REMARK    6  A    between atoms: S_7  and  C_8
REMARK    7  A    between atoms: C_10  and  C_11
REMARK    8  A    between atoms: C_21  and  C_22
REMARK                            x       y       z     vdW  Elec       q    Type
REMARK                         _______ _______ _______ _____ _____    ______ ____
ROOT
ATOM      1  C   UNL     1       2.722   6.304  19.770  0.00  0.00    +0.000 A 
ATOM      2  N   UNL     1       3.655   5.652  19.063  0.00  0.00    +0.000 NA
ATOM      3  C   UNL     1       4.089   6.241  17.942  0.00  0.00    +0.000 A 
ATOM      4  N   UNL     1       3.672   7.439  17.494  0.00  0.00    +0.000 NA
ATOM      5  C   UNL     1       2.738   8.069  18.201  0.00  0.00    +0.000 A 
ATOM      6  C   UNL     1       2.234   9.266  17.702  0.00  0.00    +0.000 A 
ATOM      7  C   UNL     1       1.217   9.966  18.352  0.00  0.00    +0.000 A 
ATOM      8  C   UNL     1       0.699   9.489  19.552  0.00  0.00    +0.000 A 
ATOM      9  C   UNL     1      -0.376  10.227  20.292  0.00  0.00    +0.000 C 
ATOM     10  C   UNL     1       1.206   8.292  20.071  0.00  0.00    +0.000 A 
ATOM     11  C   UNL     1       2.207   7.556  19.390  0.00  0.00    +0.000 A 
ENDROOT
BRANCH   3  12
ATOM     12  C   UNL     1       5.078   5.518  17.140  0.00  0.00    +0.000 A 
ATOM     13  C   UNL     1       6.326   5.150  17.681  0.00  0.00    +0.000 A 
ATOM     14  C   UNL     1       7.299   4.538  16.895  0.00  0.00    +0.000 A 
ATOM     15  C   UNL     1       7.036   4.268  15.554  0.00  0.00    +0.000 A 
ATOM     16  C   UNL     1       5.797   4.582  15.008  0.00  0.00    +0.000 A 
ATOM     17  C   UNL     1       4.825   5.191  15.797  0.00  0.00    +0.000 A 
ENDBRANCH   3  12
BRANCH   1  18
ATOM     18  S   UNL     1       2.012   5.351  21.125  0.00  0.00    +0.000 S 
BRANCH  18  19
ATOM     19  C   UNL     1       1.083   4.060  20.203  0.00  0.00    +0.000 C 
BRANCH  19  20
ATOM     20  C   UNL     1       1.478   2.687  20.692  0.00  0.00    +0.000 C 
ATOM     21  O   UNL     1       1.532   2.359  21.880  0.00  0.00    +0.000 OA
BRANCH  20  22
ATOM     22  O   UNL     1       1.751   1.842  19.659  0.00  0.00    +0.000 OA
BRANCH  22  24
ATOM     23  C   UNL     1       3.273   2.242  17.803  0.00  0.00    +0.000 C 
ATOM     24  C   UNL     1       1.907   2.521  18.402  0.00  0.00    +0.000 C 
ENDBRANCH  22  24
ENDBRANCH  20  22
ENDBRANCH  19  20
ENDBRANCH  18  19
ENDBRANCH   1  18
TORSDOF 6
ENDMDL
MODEL 4
REMARK VINA RESULT:      -7.5      1.630      2.690
REMARK  Name = 
REMARK  8 active torsions:
REMARK  status: ('A' for Active; 'I' for Inactive)
REMARK    1  A    between atoms: C_1  and  C_2
REMARK    2  A    between atoms: C_2  and  O_3
REMARK    3  A    between atoms: O_3  and  C_4
REMARK    4  A    between atoms: C_4  and  C_6
REMARK    5  A    between atoms: C_6  and  S_7
REMARK    6  A    between atoms: S_7  and  C_8
REMARK    7  A    between atoms: C_10  and  C_11
REMARK    8  A    between atoms: C_21  and  C_22
REMARK                            x       y       z     vdW  Elec       q    Type
REMARK                         _______ _______ _______ _____ _____    ______ ____
ROOT
ATOM      1  C   UNL     1       2.898   5.999  19.713  0.00  0.00    +0.000 A 
ATOM      2  N   UNL     1       3.820   5.458  18.905  0.00  0.00    +0.000 NA
ATOM      3  C   UNL     1       4.180   6.173  17.831  0.00  0.00    +0.000 A 
ATOM      4  N   UNL     1       3.700   7.391  17.525  0.00  0.00    +0.000 NA
ATOM      5  C   UNL     1       2.778   7.910  18.330  0.00  0.00    +0.000 A 
ATOM      6  C   UNL     1       2.210   9.130  17.976  0.00  0.00    +0.000 A 
ATOM      7  C   UNL     1       1.199   9.721  18.737  0.00  0.00    +0.000 A 
ATOM      8  C   UNL     1       0.754   9.106  19.903  0.00  0.00    +0.000 A 
ATOM      9  C   UNL     1      -0.311   9.723  20.759  0.00  0.00    +0.000 C 
ATOM     10  C   UNL     1       1.328   7.885  20.277  0.00  0.00    +0.000 A 
ATOM     11  C   UNL     1       2.322   7.261  19.484  0.00  0.00    +0.000 A 
ENDROOT
BRANCH   3  12
ATOM     12  C   UNL     1       5.157   5.573  16.920  0.00  0.00    +0.000 A 
ATOM     13  C   UNL     1       6.266   4.856  17.410  0.00  0.00    +0.000 A 
ATOM     14  C   UNL     1       7.240   4.358  16.546  0.00  0.00    +0.000 A 
ATOM     15  C   UNL     1       7.113   4.556  15.173  0.00  0.00    +0.000 A 
ATOM     16  C   UNL     1       6.006   5.223  14.662  0.00  0.00    +0.000 A 
ATOM     17  C   UNL     1       5.033   5.716  15.527  0.00  0.00    +0.000 A 
ENDBRANCH   3  12
BRANCH   1  18
ATOM     18  S   UNL     1       2.286   4.889  20.994  0.00  0.00    +0.000 S 
BRANCH  18  19
ATOM     19  C   UNL     1       0.841   4.132  20.147  0.00  0.00    +0.000 C 
BRANCH  19  20
ATOM     20  C   UNL     1       1.307   3.257  19.008  0.00  0.00    +0.000 C 
ATOM     21  O   UNL     1       1.157   3.528  17.814  0.00  0.00    +0.000 OA
BRANCH  20  22
ATOM     22  O   UNL     1       1.933   2.134  19.457  0.00  0.00    +0.000 OA
BRANCH  22  24
ATOM     23  C   UNL     1       4.358   2.066  19.659  0.00  0.00    +0.000 C 
ATOM     24  C   UNL     1       3.156   1.852  18.757  0.00  0.00    +0.000 C 
ENDBRANCH  22  24
ENDBRANCH  20  22
ENDBRANCH  19  20
ENDBRANCH  18  19
ENDBRANCH   1  18
TORSDOF 6
ENDMDL
MODEL 5
REMARK VINA RESULT:      -7.5      3.385      4.973
REMARK  Name = 
REMARK  8 active torsions:
REMARK  status: ('A' for Active; 'I' for Inactive)
REMARK    1  A    between atoms: C_1  and  C_2
REMARK    2  A    between atoms: C_2  and  O_3
REMARK    3  A    between atoms: O_3  and  C_4
REMARK    4  A    between atoms: C_4  and  C_6
REMARK    5  A    between atoms: C_6  and  S_7
REMARK    6  A    between atoms: S_7  and  C_8
REMARK    7  A    between atoms: C_10  and  C_11
REMARK    8  A    between atoms: C_21  and  C_22
REMARK                            x       y       z     vdW  Elec       q    Type
REMARK                         _______ _______ _______ _____ _____    ______ ____
ROOT
ATOM      1  C   UNL     1       5.454   4.955  18.028  0.00  0.00    +0.000 A 
ATOM      2  N   UNL     1       6.029   4.929  16.818  0.00  0.00    +0.000 NA
ATOM      3  C   UNL     1       5.357   4.307  15.840  0.00  0.00    +0.000 A 
ATOM      4  N   UNL     1       4.150   3.732  15.985  0.00  0.00    +0.000 NA
ATOM      5  C   UNL     1       3.598   3.756  17.194  0.00  0.00    +0.000 A 
ATOM      6  C   UNL     1       2.391   3.088  17.377  0.00  0.00    +0.000 A 
ATOM      7  C   UNL     1       1.768   3.019  18.625  0.00  0.00    +0.000 A 
ATOM      8  C   UNL     1       2.336   3.656  19.723  0.00  0.00    +0.000 A 
ATOM      9  C   UNL     1       1.683   3.626  21.073  0.00  0.00    +0.000 C 
ATOM     10  C   UNL     1       3.543   4.343  19.549  0.00  0.00    +0.000 A 
ATOM     11  C   UNL     1       4.201   4.377  18.295  0.00  0.00    +0.000 A 
ENDROOT
BRANCH   3  12
ATOM     12  C   UNL     1       5.995   4.238  14.524  0.00  0.00    +0.000 A 
ATOM     13  C   UNL     1       7.124   5.024  14.219  0.00  0.00    +0.000 A 
ATOM     14  C   UNL     1       7.679   5.021  12.941  0.00  0.00    +0.000 A 
ATOM     15  C   UNL     1       7.123   4.219  11.947  0.00  0.00    +0.000 A 
ATOM     16  C   UNL     1       6.036   3.403  12.235  0.00  0.00    +0.000 A 
ATOM     17  C   UNL     1       5.485   3.404  13.513  0.00  0.00    +0.000 A 
ENDBRANCH   3  12
BRANCH   1  18
ATOM     18  S   UNL     1       6.512   5.588  19.342  0.00  0.00    +0.000 S 
BRANCH  18  19
ATOM     19  C   UNL     1       7.991   6.114  18.386  0.00  0.00    +0.000 C 
BRANCH  19  20
ATOM     20  C   UNL     1       7.872   7.571  18.006  0.00  0.00    +0.000 C 
ATOM     21  O   UNL     1       7.181   7.995  17.077  0.00  0.00    +0.000 OA
BRANCH  20  22
ATOM     22  O   UNL     1       8.609   8.370  18.828  0.00  0.00    +0.000 OA
BRANCH  22  24
ATOM     23  C   UNL     1       9.474  10.585  19.344  0.00  0.00    +0.000 C 
ATOM     24  C   UNL     1       8.724   9.719  18.348  0.00  0.00    +0.000 C 
ENDBRANCH  22  24
ENDBRANCH  20  22
ENDBRANCH  19  20
ENDBRANCH  18  19
ENDBRANCH   1  18
TORSDOF 6
ENDMDL
MODEL 6
REMARK VINA RESULT:      -7.5      2.900      7.323
REMARK  Name = 
REMARK  8 active torsions:
REMARK  status: ('A' for Active; 'I' for Inactive)
REMARK    1  A    between atoms: C_1  and  C_2
REMARK    2  A    between atoms: C_2  and  O_3
REMARK    3  A    between atoms: O_3  and  C_4
REMARK    4  A    between atoms: C_4  and  C_6
REMARK    5  A    between atoms: C_6  and  S_7
REMARK    6  A    between atoms: S_7  and  C_8
REMARK    7  A    between atoms: C_10  and  C_11
REMARK    8  A    between atoms: C_21  and  C_22
REMARK                            x       y       z     vdW  Elec       q    Type
REMARK                         _______ _______ _______ _____ _____    ______ ____
ROOT
ATOM      1  C   UNL     1       3.461   6.215  18.534  0.00  0.00    +0.000 A 
ATOM      2  N   UNL     1       2.921   7.344  19.009  0.00  0.00    +0.000 NA
ATOM      3  C   UNL     1       2.007   7.218  19.981  0.00  0.00    +0.000 A 
ATOM      4  N   UNL     1       1.617   6.049  20.519  0.00  0.00    +0.000 NA
ATOM      5  C   UNL     1       2.155   4.936  20.029  0.00  0.00    +0.000 A 
ATOM      6  C   UNL     1       1.694   3.716  20.515  0.00  0.00    +0.000 A 
ATOM      7  C   UNL     1       2.166   2.499  20.020  0.00  0.00    +0.000 A 
ATOM      8  C   UNL     1       3.148   2.481  19.035  0.00  0.00    +0.000 A 
ATOM      9  C   UNL     1       3.698   1.194  18.497  0.00  0.00    +0.000 C 
ATOM     10  C   UNL     1       3.629   3.702  18.547  0.00  0.00    +0.000 A 
ATOM     11  C   UNL     1       3.120   4.938  19.015  0.00  0.00    +0.000 A 
ENDROOT
BRANCH   3  12
ATOM     12  C   UNL     1       1.381   8.444  20.479  0.00  0.00    +0.000 A 
ATOM     13  C   UNL     1       1.088   8.608  21.847  0.00  0.00    +0.000 A 
ATOM     14  C   UNL     1       0.415   9.738  22.309  0.00  0.00    +0.000 A 
ATOM     15  C   UNL     1       0.037  10.733  21.411  0.00  0.00    +0.000 A 
ATOM     16  C   UNL     1       0.352  10.614  20.062  0.00  0.00    +0.000 A 
ATOM     17  C   UNL     1       1.027   9.486  19.604  0.00  0.00    +0.000 A 
ENDBRANCH   3  12
BRANCH   1  18
ATOM     18  S   UNL     1       4.493   6.439  17.073  0.00  0.00    +0.000 S 
BRANCH  18  19
ATOM     19  C   UNL     1       6.172   6.207  17.785  0.00  0.00    +0.000 C 
BRANCH  19  20
ATOM     20  C   UNL     1       7.046   5.447  16.815  0.00  0.00    +0.000 C 
ATOM     21  O   UNL     1       7.819   4.541  17.136  0.00  0.00    +0.000 OA
BRANCH  20  22
ATOM     22  O   UNL     1       6.866   5.872  15.534  0.00  0.00    +0.000 OA
BRANCH  22  24
ATOM     23  C   UNL     1       5.675   4.177  14.256  0.00  0.00    +0.000 C 
ATOM     24  C   UNL     1       7.015   4.820  14.566  0.00  0.00    +0.000 C 
ENDBRANCH  22  24
ENDBRANCH  20  22
ENDBRANCH  19  20
ENDBRANCH  18  19
ENDBRANCH   1  18
TORSDOF 6
ENDMDL
MODEL 7
REMARK VINA RESULT:      -7.5      3.334      5.091
REMARK  Name = 
REMARK  8 active torsions:
REMARK  status: ('A' for Active; 'I' for Inactive)
REMARK    1  A    between atoms: C_1  and  C_2
REMARK    2  A    between atoms: C_2  and  O_3
REMARK    3  A    between atoms: O_3  and  C_4
REMARK    4  A    between atoms: C_4  and  C_6
REMARK    5  A    between atoms: C_6  and  S_7
REMARK    6  A    between atoms: S_7  and  C_8
REMARK    7  A    between atoms: C_10  and  C_11
REMARK    8  A    between atoms: C_21  and  C_22
REMARK                            x       y       z     vdW  Elec       q    Type
REMARK                         _______ _______ _______ _____ _____    ______ ____
ROOT
ATOM      1  C   UNL     1       5.406   4.881  18.063  0.00  0.00    +0.000 A 
ATOM      2  N   UNL     1       5.941   4.909  16.834  0.00  0.00    +0.000 NA
ATOM      3  C   UNL     1       5.271   4.269  15.866  0.00  0.00    +0.000 A 
ATOM      4  N   UNL     1       4.102   3.627  16.039  0.00  0.00    +0.000 NA
ATOM      5  C   UNL     1       3.590   3.600  17.266  0.00  0.00    +0.000 A 
ATOM      6  C   UNL     1       2.427   2.864  17.474  0.00  0.00    +0.000 A 
ATOM      7  C   UNL     1       1.850   2.739  18.739  0.00  0.00    +0.000 A 
ATOM      8  C   UNL     1       2.420   3.386  19.832  0.00  0.00    +0.000 A 
ATOM      9  C   UNL     1       1.815   3.295  21.200  0.00  0.00    +0.000 C 
ATOM     10  C   UNL     1       3.582   4.139  19.632  0.00  0.00    +0.000 A 
ATOM     11  C   UNL     1       4.195   4.232  18.358  0.00  0.00    +0.000 A 
ENDROOT
BRANCH   3  12
ATOM     12  C   UNL     1       5.867   4.259  14.529  0.00  0.00    +0.000 A 
ATOM     13  C   UNL     1       5.312   3.487  13.490  0.00  0.00    +0.000 A 
ATOM     14  C   UNL     1       5.926   3.410  12.242  0.00  0.00    +0.000 A 
ATOM     15  C   UNL     1       7.103   4.118  12.006  0.00  0.00    +0.000 A 
ATOM     16  C   UNL     1       7.647   4.921  13.001  0.00  0.00    +0.000 A 
ATOM     17  C   UNL     1       7.029   4.999  14.246  0.00  0.00    +0.000 A 
ENDBRANCH   3  12
BRANCH   1  18
ATOM     18  S   UNL     1       6.472   5.547  19.354  0.00  0.00    +0.000 S 
BRANCH  18  19
ATOM     19  C   UNL     1       7.945   6.050  18.376  0.00  0.00    +0.000 C 
BRANCH  19  20
ATOM     20  C   UNL     1       7.810   7.489  17.937  0.00  0.00    +0.000 C 
ATOM     21  O   UNL     1       7.098   7.870  17.005  0.00  0.00    +0.000 OA
BRANCH  20  22
ATOM     22  O   UNL     1       8.557   8.325  18.710  0.00  0.00    +0.000 OA
BRANCH  22  24
ATOM     23  C   UNL     1       9.653  10.496  18.801  0.00  0.00    +0.000 C 
ATOM     24  C   UNL     1       8.454   9.702  18.314  0.00  0.00    +0.000 C 
ENDBRANCH  22  24
ENDBRANCH  20  22
ENDBRANCH  19  20
ENDBRANCH  18  19
ENDBRANCH   1  18
TORSDOF 6
ENDMDL
MODEL 8
REMARK VINA RESULT:      -7.4      1.663      2.852
REMARK  Name = 
REMARK  8 active torsions:
REMARK  status: ('A' for Active; 'I' for Inactive)
REMARK    1  A    between atoms: C_1  and  C_2
REMARK    2  A    between atoms: C_2  and  O_3
REMARK    3  A    between atoms: O_3  and  C_4
REMARK    4  A    between atoms: C_4  and  C_6
REMARK    5  A    between atoms: C_6  and  S_7
REMARK    6  A    between atoms: S_7  and  C_8
REMARK    7  A    between atoms: C_10  and  C_11
REMARK    8  A    between atoms: C_21  and  C_22
REMARK                            x       y       z     vdW  Elec       q    Type
REMARK                         _______ _______ _______ _____ _____    ______ ____
ROOT
ATOM      1  C   UNL     1       2.928   5.997  19.705  0.00  0.00    +0.000 A 
ATOM      2  N   UNL     1       3.866   5.493  18.891  0.00  0.00    +0.000 NA
ATOM      3  C   UNL     1       4.221   6.240  17.838  0.00  0.00    +0.000 A 
ATOM      4  N   UNL     1       3.720   7.456  17.556  0.00  0.00    +0.000 NA
ATOM      5  C   UNL     1       2.782   7.938  18.367  0.00  0.00    +0.000 A 
ATOM      6  C   UNL     1       2.194   9.155  18.037  0.00  0.00    +0.000 A 
ATOM      7  C   UNL     1       1.166   9.708  18.803  0.00  0.00    +0.000 A 
ATOM      8  C   UNL     1       0.724   9.058  19.951  0.00  0.00    +0.000 A 
ATOM      9  C   UNL     1      -0.359   9.634  20.812  0.00  0.00    +0.000 C 
ATOM     10  C   UNL     1       1.318   7.839  20.300  0.00  0.00    +0.000 A 
ATOM     11  C   UNL     1       2.329   7.253  19.500  0.00  0.00    +0.000 A 
ENDROOT
BRANCH   3  12
ATOM     12  C   UNL     1       5.215   5.681  16.921  0.00  0.00    +0.000 A 
ATOM     13  C   UNL     1       5.031   5.733  15.525  0.00  0.00    +0.000 A 
ATOM     14  C   UNL     1       5.935   5.127  14.655  0.00  0.00    +0.000 A 
ATOM     15  C   UNL     1       7.051   4.468  15.167  0.00  0.00    +0.000 A 
ATOM     16  C   UNL     1       7.278   4.439  16.537  0.00  0.00    +0.000 A 
ATOM     17  C   UNL     1       6.375   5.049  17.404  0.00  0.00    +0.000 A 
ENDBRANCH   3  12
BRANCH   1  18
ATOM     18  S   UNL     1       2.327   4.845  20.954  0.00  0.00    +0.000 S 
BRANCH  18  19
ATOM     19  C   UNL     1       0.862   4.131  20.103  0.00  0.00    +0.000 C 
BRANCH  19  20
ATOM     20  C   UNL     1       1.252   2.870  19.368  0.00  0.00    +0.000 C 
ATOM     21  O   UNL     1       0.534   2.288  18.552  0.00  0.00    +0.000 OA
BRANCH  20  22
ATOM     22  O   UNL     1       2.508   2.459  19.701  0.00  0.00    +0.000 OA
BRANCH  22  24
ATOM     23  C   UNL     1       3.685   2.440  17.571  0.00  0.00    +0.000 C 
ATOM     24  C   UNL     1       3.106   1.614  18.705  0.00  0.00    +0.000 C 
ENDBRANCH  22  24
ENDBRANCH  20  22
ENDBRANCH  19  20
ENDBRANCH  18  19
ENDBRANCH   1  18
TORSDOF 6
ENDMDL
MODEL 9
REMARK VINA RESULT:      -7.4      3.175      7.483
REMARK  Name = 
REMARK  8 active torsions:
REMARK  status: ('A' for Active; 'I' for Inactive)
REMARK    1  A    between atoms: C_1  and  C_2
REMARK    2  A    between atoms: C_2  and  O_3
REMARK    3  A    between atoms: O_3  and  C_4
REMARK    4  A    between atoms: C_4  and  C_6
REMARK    5  A    between atoms: C_6  and  S_7
REMARK    6  A    between atoms: S_7  and  C_8
REMARK    7  A    between atoms: C_10  and  C_11
REMARK    8  A    between atoms: C_21  and  C_22
REMARK                            x       y       z     vdW  Elec       q    Type
REMARK                         _______ _______ _______ _____ _____    ______ ____
ROOT
ATOM      1  C   UNL     1       3.216   6.398  18.712  0.00  0.00    +0.000 A 
ATOM      2  N   UNL     1       2.658   7.507  19.215  0.00  0.00    +0.000 NA
ATOM      3  C   UNL     1       1.747   7.342  20.183  0.00  0.00    +0.000 A 
ATOM      4  N   UNL     1       1.376   6.153  20.692  0.00  0.00    +0.000 NA
ATOM      5  C   UNL     1       1.931   5.062  20.174  0.00  0.00    +0.000 A 
ATOM      6  C   UNL     1       1.491   3.823  20.631  0.00  0.00    +0.000 A 
ATOM      7  C   UNL     1       1.982   2.626  20.106  0.00  0.00    +0.000 A 
ATOM      8  C   UNL     1       2.964   2.649  19.120  0.00  0.00    +0.000 A 
ATOM      9  C   UNL     1       3.534   1.385  18.551  0.00  0.00    +0.000 C 
ATOM     10  C   UNL     1       3.425   3.889  18.663  0.00  0.00    +0.000 A 
ATOM     11  C   UNL     1       2.896   5.105  19.161  0.00  0.00    +0.000 A 
ENDROOT
BRANCH   3  12
ATOM     12  C   UNL     1       1.101   8.544  20.712  0.00  0.00    +0.000 A 
ATOM     13  C   UNL     1       0.897   9.678  19.901  0.00  0.00    +0.000 A 
ATOM     14  C   UNL     1       0.359  10.852  20.426  0.00  0.00    +0.000 A 
ATOM     15  C   UNL     1       0.000  10.907  21.771  0.00  0.00    +0.000 A 
ATOM     16  C   UNL     1       0.151   9.788  22.581  0.00  0.00    +0.000 A 
ATOM     17  C   UNL     1       0.685   8.615  22.053  0.00  0.00    +0.000 A 
ENDBRANCH   3  12
BRANCH   1  18
ATOM     18  S   UNL     1       4.244   6.675  17.258  0.00  0.00    +0.000 S 
BRANCH  18  19
ATOM     19  C   UNL     1       5.899   6.192  17.894  0.00  0.00    +0.000 C 
BRANCH  19  20
ATOM     20  C   UNL     1       6.983   6.775  17.019  0.00  0.00    +0.000 C 
ATOM     21  O   UNL     1       7.480   7.893  17.177  0.00  0.00    +0.000 OA
BRANCH  20  22
ATOM     22  O   UNL     1       7.362   5.909  16.039  0.00  0.00    +0.000 OA
BRANCH  22  24
ATOM     23  C   UNL     1       6.250   3.946  15.126  0.00  0.00    +0.000 C 
ATOM     24  C   UNL     1       6.983   4.550  16.310  0.00  0.00    +0.000 C 
ENDBRANCH  22  24
ENDBRANCH  20  22
ENDBRANCH  19  20
ENDBRANCH  18  19
ENDBRANCH   1  18
TORSDOF 6
ENDMDL
