MODEL 1
REMARK VINA RESULT:      -8.7      0.000      0.000
REMARK  Name = 
REMARK  8 active torsions:
REMARK  status: ('A' for Active; 'I' for Inactive)
REMARK    1  A    between atoms: C_1  and  C_2
REMARK    2  A    between atoms: C_2  and  O_3
REMARK    3  A    between atoms: O_3  and  C_4
REMARK    4  A    between atoms: C_4  and  C_5
REMARK    5  A    between atoms: C_5  and  C_6
REMARK    6  A    between atoms: C_9  and  C_10
REMARK    7  A    between atoms: C_13  and  C_14
REMARK    8  A    between atoms: C_16  and  C_17
REMARK                            x       y       z     vdW  Elec       q    Type
REMARK                         _______ _______ _______ _____ _____    ______ ____
ROOT
ATOM      1  C   UNL     1       0.136  10.897  20.337  0.00  0.00    +0.000 C 
ATOM      2  N   UNL     1       1.067   9.737  20.116  0.00  0.00    +0.000 NA
ATOM      3  C   UNL     1       1.340   9.414  18.695  0.00  0.00    +0.000 C 
ATOM      4  C   UNL     1       0.056   9.078  17.884  0.00  0.00    +0.000 C 
ATOM      5  C   UNL     1      -0.983  10.101  18.137  0.00  0.00    +0.000 A 
ATOM      6  C   UNL     1      -0.926  10.912  19.250  0.00  0.00    +0.000 A 
ATOM      7  N   UNL     1      -2.009  11.757  19.197  0.00  0.00    +0.000 N 
ATOM      8  C   UNL     1      -2.798  11.442  18.110  0.00  0.00    +0.000 A 
ATOM      9  C   UNL     1      -4.016  11.990  17.688  0.00  0.00    +0.000 A 
ATOM     10  C   UNL     1      -4.587  11.477  16.518  0.00  0.00    +0.000 A 
ATOM     11  C   UNL     1      -3.964  10.460  15.798  0.00  0.00    +0.000 A 
ATOM     12  C   UNL     1      -2.750   9.920  16.235  0.00  0.00    +0.000 A 
ATOM     13  C   UNL     1      -2.159  10.415  17.412  0.00  0.00    +0.000 A 
ATOM     14  H   UNL     1       0.641   8.915  20.541  0.00  0.00    +0.000 HD
ATOM     15  H   UNL     1      -2.211  12.504  19.850  0.00  0.00    +0.000 HD
ENDROOT
BRANCH   1  16
ATOM     16  C   UNL     1       0.866  12.225  20.394  0.00  0.00    +0.000 A 
ATOM     17  N   UNL     1       1.802  12.617  21.243  0.00  0.00    +0.000 NA
ATOM     18  N   UNL     1       2.166  13.893  20.865  0.00  0.00    +0.000 NA
ATOM     19  C   UNL     1       1.432  14.191  19.815  0.00  0.00    +0.000 A 
ATOM     20  C   UNL     1       1.423  15.405  18.981  0.00  0.00    +0.000 C 
ATOM     21  O   UNL     1       0.571  13.190  19.460  0.00  0.00    +0.000 OA
ENDBRANCH   1  16
BRANCH   3  22
ATOM     22  C   UNL     1       2.260   8.223  18.654  0.00  0.00    +0.000 A 
ATOM     23  N   UNL     1       2.949   7.801  17.612  0.00  0.00    +0.000 NA
ATOM     24  C   UNL     1       3.538   6.618  17.995  0.00  0.00    +0.000 A 
ATOM     25  C   UNL     1       3.226   6.338  19.306  0.00  0.00    +0.000 A 
ATOM     26  N   UNL     1       2.416   7.365  19.717  0.00  0.00    +0.000 N 
ATOM     27  H   UNL     1       1.950   7.458  20.609  0.00  0.00    +0.000 HD
BRANCH  24  28
ATOM     28  C   UNL     1       4.342   5.807  17.094  0.00  0.00    +0.000 A 
ATOM     29  C   UNL     1       5.058   6.425  16.066  0.00  0.00    +0.000 A 
ATOM     30  C   UNL     1       5.822   5.642  15.203  0.00  0.00    +0.000 A 
ATOM     31  C   UNL     1       5.839   4.271  15.396  0.00  0.00    +0.000 A 
ATOM     32  F   UNL     1       6.560   3.485  14.589  0.00  0.00    +0.000 F 
ATOM     33  C   UNL     1       5.098   3.728  16.433  0.00  0.00    +0.000 A 
ATOM     34  N   UNL     1       4.349   4.463  17.292  0.00  0.00    +0.000 NA
ENDBRANCH  24  28
ENDBRANCH   3  22
BRANCH   1  35
ATOM     35  C   UNL     1      -0.589  10.664  21.712  0.00  0.00    +0.000 C 
BRANCH  35  36
ATOM     36  O   UNL     1      -1.553  11.684  22.014  0.00  0.00    +0.000 OA
BRANCH  36  38
ATOM     37  C   UNL     1      -3.287  12.419  23.491  0.00  0.00    +0.000 C 
ATOM     38  C   UNL     1      -2.066  11.536  23.338  0.00  0.00    +0.000 C 
ENDBRANCH  36  38
ENDBRANCH  35  36
ENDBRANCH   1  35
TORSDOF 6
ENDMDL
MODEL 2
REMARK VINA RESULT:      -8.6      1.614      1.993
REMARK  Name = 
REMARK  8 active torsions:
REMARK  status: ('A' for Active; 'I' for Inactive)
REMARK    1  A    between atoms: C_1  and  C_2
REMARK    2  A    between atoms: C_2  and  O_3
REMARK    3  A    between atoms: O_3  and  C_4
REMARK    4  A    between atoms: C_4  and  C_5
REMARK    5  A    between atoms: C_5  and  C_6
REMARK    6  A    between atoms: C_9  and  C_10
REMARK    7  A    between atoms: C_13  and  C_14
REMARK    8  A    between atoms: C_16  and  C_17
REMARK                            x       y       z     vdW  Elec       q    Type
REMARK                         _______ _______ _______ _____ _____    ______ ____
ROOT
ATOM      1  C   UNL     1       0.411  10.457  20.005  0.00  0.00    +0.000 C 
ATOM      2  N   UNL     1       1.322   9.332  19.601  0.00  0.00    +0.000 NA
ATOM      3  C   UNL     1       1.516   9.175  18.140  0.00  0.00    +0.000 C 
ATOM      4  C   UNL     1       0.188   8.935  17.366  0.00  0.00    +0.000 C 
ATOM      5  C   UNL     1      -0.831   9.920  17.793  0.00  0.00    +0.000 A 
ATOM      6  C   UNL     1      -0.709  10.597  18.987  0.00  0.00    +0.000 A 
ATOM      7  N   UNL     1      -1.788  11.442  19.091  0.00  0.00    +0.000 N 
ATOM      8  C   UNL     1      -2.637  11.254  18.020  0.00  0.00    +0.000 A 
ATOM      9  C   UNL     1      -3.873  11.847  17.731  0.00  0.00    +0.000 A 
ATOM     10  C   UNL     1      -4.510  11.472  16.543  0.00  0.00    +0.000 A 
ATOM     11  C   UNL     1      -3.932  10.546  15.677  0.00  0.00    +0.000 A 
ATOM     12  C   UNL     1      -2.700   9.959  15.982  0.00  0.00    +0.000 A 
ATOM     13  C   UNL     1      -2.043  10.316  17.174  0.00  0.00    +0.000 A 
ATOM     14  H   UNL     1       0.915   8.466  19.951  0.00  0.00    +0.000 HD
ATOM     15  H   UNL     1      -1.949  12.108  19.837  0.00  0.00    +0.000 HD
ENDROOT
BRANCH   1  16
ATOM     16  C   UNL     1       1.150  11.770  20.175  0.00  0.00    +0.000 A 
ATOM     17  N   UNL     1       1.697  12.275  21.269  0.00  0.00    +0.000 NA
ATOM     18  N   UNL     1       2.271  13.475  20.905  0.00  0.00    +0.000 NA
ATOM     19  C   UNL     1       2.039  13.621  19.618  0.00  0.00    +0.000 A 
ATOM     20  C   UNL     1       2.448  14.696  18.700  0.00  0.00    +0.000 C 
ATOM     21  O   UNL     1       1.320  12.588  19.083  0.00  0.00    +0.000 OA
ENDBRANCH   1  16
BRANCH   3  22
ATOM     22  C   UNL     1       2.425   7.998  17.911  0.00  0.00    +0.000 A 
ATOM     23  N   UNL     1       2.142   6.731  18.144  0.00  0.00    +0.000 NA
ATOM     24  C   UNL     1       3.303   6.029  17.916  0.00  0.00    +0.000 A 
ATOM     25  C   UNL     1       4.299   6.886  17.505  0.00  0.00    +0.000 A 
ATOM     26  N   UNL     1       3.730   8.134  17.502  0.00  0.00    +0.000 N 
ATOM     27  H   UNL     1       4.187   9.014  17.308  0.00  0.00    +0.000 HD
BRANCH  24  28
ATOM     28  C   UNL     1       3.412   4.594  18.124  0.00  0.00    +0.000 A 
ATOM     29  C   UNL     1       2.601   3.728  17.387  0.00  0.00    +0.000 A 
ATOM     30  C   UNL     1       2.708   2.355  17.596  0.00  0.00    +0.000 A 
ATOM     31  C   UNL     1       3.616   1.897  18.534  0.00  0.00    +0.000 A 
ATOM     32  F   UNL     1       3.748   0.585  18.762  0.00  0.00    +0.000 F 
ATOM     33  C   UNL     1       4.383   2.816  19.232  0.00  0.00    +0.000 A 
ATOM     34  N   UNL     1       4.307   4.157  19.050  0.00  0.00    +0.000 NA
ENDBRANCH  24  28
ENDBRANCH   3  22
BRANCH   1  35
ATOM     35  C   UNL     1      -0.239  10.067  21.382  0.00  0.00    +0.000 C 
BRANCH  35  36
ATOM     36  O   UNL     1      -1.340  10.917  21.740  0.00  0.00    +0.000 OA
BRANCH  36  38
ATOM     37  C   UNL     1      -1.302  12.854  23.146  0.00  0.00    +0.000 C 
ATOM     38  C   UNL     1      -1.244  11.341  23.100  0.00  0.00    +0.000 C 
ENDBRANCH  36  38
ENDBRANCH  35  36
ENDBRANCH   1  35
TORSDOF 6
ENDMDL
MODEL 3
REMARK VINA RESULT:      -8.4      0.967      1.241
REMARK  Name = 
REMARK  8 active torsions:
REMARK  status: ('A' for Active; 'I' for Inactive)
REMARK    1  A    between atoms: C_1  and  C_2
REMARK    2  A    between atoms: C_2  and  O_3
REMARK    3  A    between atoms: O_3  and  C_4
REMARK    4  A    between atoms: C_4  and  C_5
REMARK    5  A    between atoms: C_5  and  C_6
REMARK    6  A    between atoms: C_9  and  C_10
REMARK    7  A    between atoms: C_13  and  C_14
REMARK    8  A    between atoms: C_16  and  C_17
REMARK                            x       y       z     vdW  Elec       q    Type
REMARK                         _______ _______ _______ _____ _____    ______ ____
ROOT
ATOM      1  C   UNL     1       0.160  11.117  20.506  0.00  0.00    +0.000 C 
ATOM      2  N   UNL     1       1.053   9.930  20.277  0.00  0.00    +0.000 NA
ATOM      3  C   UNL     1       1.222   9.537  18.858  0.00  0.00    +0.000 C 
ATOM      4  C   UNL     1      -0.121   9.191  18.152  0.00  0.00    +0.000 C 
ATOM      5  C   UNL     1      -1.123  10.245  18.428  0.00  0.00    +0.000 A 
ATOM      6  C   UNL     1      -0.975  11.105  19.495  0.00  0.00    +0.000 A 
ATOM      7  N   UNL     1      -2.044  11.969  19.475  0.00  0.00    +0.000 N 
ATOM      8  C   UNL     1      -2.911  11.621  18.461  0.00  0.00    +0.000 A 
ATOM      9  C   UNL     1      -4.145  12.175  18.097  0.00  0.00    +0.000 A 
ATOM     10  C   UNL     1      -4.805  11.620  16.995  0.00  0.00    +0.000 A 
ATOM     11  C   UNL     1      -4.250  10.559  16.282  0.00  0.00    +0.000 A 
ATOM     12  C   UNL     1      -3.019  10.014  16.660  0.00  0.00    +0.000 A 
ATOM     13  C   UNL     1      -2.340  10.551  17.770  0.00  0.00    +0.000 A 
ATOM     14  H   UNL     1       0.643   9.137  20.768  0.00  0.00    +0.000 HD
ATOM     15  H   UNL     1      -2.186  12.749  20.106  0.00  0.00    +0.000 HD
ENDROOT
BRANCH   1  16
ATOM     16  C   UNL     1       0.915  12.431  20.451  0.00  0.00    +0.000 A 
ATOM     17  N   UNL     1       0.640  13.513  19.739  0.00  0.00    +0.000 NA
ATOM     18  N   UNL     1       1.605  14.447  20.054  0.00  0.00    +0.000 NA
ATOM     19  C   UNL     1       2.399  13.877  20.934  0.00  0.00    +0.000 A 
ATOM     20  C   UNL     1       3.572  14.418  21.639  0.00  0.00    +0.000 C 
ATOM     21  O   UNL     1       2.037  12.591  21.229  0.00  0.00    +0.000 OA
ENDBRANCH   1  16
BRANCH   3  22
ATOM     22  C   UNL     1       2.116   8.327  18.810  0.00  0.00    +0.000 A 
ATOM     23  N   UNL     1       2.796   7.896  17.766  0.00  0.00    +0.000 NA
ATOM     24  C   UNL     1       3.359   6.698  18.142  0.00  0.00    +0.000 A 
ATOM     25  C   UNL     1       3.039   6.417  19.451  0.00  0.00    +0.000 A 
ATOM     26  N   UNL     1       2.252   7.459  19.867  0.00  0.00    +0.000 N 
ATOM     27  H   UNL     1       1.787   7.557  20.760  0.00  0.00    +0.000 HD
BRANCH  24  28
ATOM     28  C   UNL     1       4.146   5.876  17.237  0.00  0.00    +0.000 A 
ATOM     29  C   UNL     1       4.114   4.485  17.366  0.00  0.00    +0.000 A 
ATOM     30  C   UNL     1       4.874   3.704  16.499  0.00  0.00    +0.000 A 
ATOM     31  C   UNL     1       5.642   4.339  15.538  0.00  0.00    +0.000 A 
ATOM     32  F   UNL     1       6.385   3.623  14.687  0.00  0.00    +0.000 F 
ATOM     33  C   UNL     1       5.629   5.723  15.474  0.00  0.00    +0.000 A 
ATOM     34  N   UNL     1       4.898   6.512  16.299  0.00  0.00    +0.000 NA
ENDBRANCH  24  28
ENDBRANCH   3  22
BRANCH   1  35
ATOM     35  C   UNL     1      -0.473  10.963  21.937  0.00  0.00    +0.000 C 
BRANCH  35  36
ATOM     36  O   UNL     1      -1.105  12.166  22.400  0.00  0.00    +0.000 OA
BRANCH  36  38
ATOM     37  C   UNL     1      -2.953  13.178  23.536  0.00  0.00    +0.000 C 
ATOM     38  C   UNL     1      -2.288  11.875  23.144  0.00  0.00    +0.000 C 
ENDBRANCH  36  38
ENDBRANCH  35  36
ENDBRANCH   1  35
TORSDOF 6
ENDMDL
MODEL 4
REMARK VINA RESULT:      -8.3      2.457      4.962
REMARK  Name = 
REMARK  8 active torsions:
REMARK  status: ('A' for Active; 'I' for Inactive)
REMARK    1  A    between atoms: C_1  and  C_2
REMARK    2  A    between atoms: C_2  and  O_3
REMARK    3  A    between atoms: O_3  and  C_4
REMARK    4  A    between atoms: C_4  and  C_5
REMARK    5  A    between atoms: C_5  and  C_6
REMARK    6  A    between atoms: C_9  and  C_10
REMARK    7  A    between atoms: C_13  and  C_14
REMARK    8  A    between atoms: C_16  and  C_17
REMARK                            x       y       z     vdW  Elec       q    Type
REMARK                         _______ _______ _______ _____ _____    ______ ____
ROOT
ATOM      1  C   UNL     1      -1.299  11.883  19.606  0.00  0.00    +0.000 C 
ATOM      2  N   UNL     1      -0.537  10.637  19.249  0.00  0.00    +0.000 NA
ATOM      3  C   UNL     1       0.924  10.707  19.482  0.00  0.00    +0.000 C 
ATOM      4  C   UNL     1       1.617  11.859  18.698  0.00  0.00    +0.000 C 
ATOM      5  C   UNL     1       0.861  13.118  18.878  0.00  0.00    +0.000 A 
ATOM      6  C   UNL     1      -0.453  13.106  19.290  0.00  0.00    +0.000 A 
ATOM      7  N   UNL     1      -0.867  14.414  19.379  0.00  0.00    +0.000 N 
ATOM      8  C   UNL     1       0.138  15.255  18.951  0.00  0.00    +0.000 A 
ATOM      9  C   UNL     1       0.154  16.649  18.816  0.00  0.00    +0.000 A 
ATOM     10  C   UNL     1       1.340  17.244  18.370  0.00  0.00    +0.000 A 
ATOM     11  C   UNL     1       2.464  16.476  18.076  0.00  0.00    +0.000 A 
ATOM     12  C   UNL     1       2.431  15.084  18.211  0.00  0.00    +0.000 A 
ATOM     13  C   UNL     1       1.248  14.463  18.652  0.00  0.00    +0.000 A 
ATOM     14  H   UNL     1      -0.681  10.463  18.255  0.00  0.00    +0.000 HD
ATOM     15  H   UNL     1      -1.773  14.727  19.707  0.00  0.00    +0.000 HD
ENDROOT
BRANCH   1  16
ATOM     16  C   UNL     1      -1.743  11.896  21.056  0.00  0.00    +0.000 A 
ATOM     17  N   UNL     1      -1.201  11.277  22.092  0.00  0.00    +0.000 NA
ATOM     18  N   UNL     1      -1.953  11.623  23.195  0.00  0.00    +0.000 NA
ATOM     19  C   UNL     1      -2.898  12.428  22.761  0.00  0.00    +0.000 A 
ATOM     20  C   UNL     1      -3.960  13.127  23.504  0.00  0.00    +0.000 C 
ATOM     21  O   UNL     1      -2.843  12.642  21.412  0.00  0.00    +0.000 OA
ENDBRANCH   1  16
BRANCH   3  22
ATOM     22  C   UNL     1       1.531   9.399  19.050  0.00  0.00    +0.000 A 
ATOM     23  N   UNL     1       1.563   8.281  19.748  0.00  0.00    +0.000 NA
ATOM     24  C   UNL     1       2.325   7.396  19.021  0.00  0.00    +0.000 A 
ATOM     25  C   UNL     1       2.734   7.980  17.844  0.00  0.00    +0.000 A 
ATOM     26  N   UNL     1       2.222   9.252  17.870  0.00  0.00    +0.000 N 
ATOM     27  H   UNL     1       2.372   9.986  17.192  0.00  0.00    +0.000 HD
BRANCH  24  28
ATOM     28  C   UNL     1       2.644   6.057  19.491  0.00  0.00    +0.000 A 
ATOM     29  C   UNL     1       1.871   5.479  20.501  0.00  0.00    +0.000 A 
ATOM     30  C   UNL     1       2.186   4.198  20.950  0.00  0.00    +0.000 A 
ATOM     31  C   UNL     1       3.263   3.544  20.378  0.00  0.00    +0.000 A 
ATOM     32  F   UNL     1       3.597   2.313  20.782  0.00  0.00    +0.000 F 
ATOM     33  C   UNL     1       3.988   4.182  19.386  0.00  0.00    +0.000 A 
ATOM     34  N   UNL     1       3.706   5.425  18.924  0.00  0.00    +0.000 NA
ENDBRANCH  24  28
ENDBRANCH   3  22
BRANCH   1  35
ATOM     35  C   UNL     1      -2.576  11.934  18.691  0.00  0.00    +0.000 C 
BRANCH  35  36
ATOM     36  O   UNL     1      -2.301  11.571  17.329  0.00  0.00    +0.000 OA
BRANCH  36  38
ATOM     37  C   UNL     1      -3.125  10.722  15.248  0.00  0.00    +0.000 C 
ATOM     38  C   UNL     1      -3.483  11.125  16.664  0.00  0.00    +0.000 C 
ENDBRANCH  36  38
ENDBRANCH  35  36
ENDBRANCH   1  35
TORSDOF 6
ENDMDL
MODEL 5
REMARK VINA RESULT:      -8.2      1.305      1.666
REMARK  Name = 
REMARK  8 active torsions:
REMARK  status: ('A' for Active; 'I' for Inactive)
REMARK    1  A    between atoms: C_1  and  C_2
REMARK    2  A    between atoms: C_2  and  O_3
REMARK    3  A    between atoms: O_3  and  C_4
REMARK    4  A    between atoms: C_4  and  C_5
REMARK    5  A    between atoms: C_5  and  C_6
REMARK    6  A    between atoms: C_9  and  C_10
REMARK    7  A    between atoms: C_13  and  C_14
REMARK    8  A    between atoms: C_16  and  C_17
REMARK                            x       y       z     vdW  Elec       q    Type
REMARK                         _______ _______ _______ _____ _____    ______ ____
ROOT
ATOM      1  C   UNL     1       0.428  11.820  19.981  0.00  0.00    +0.000 C 
ATOM      2  N   UNL     1       1.256  10.572  19.852  0.00  0.00    +0.000 NA
ATOM      3  C   UNL     1       1.080   9.831  18.581  0.00  0.00    +0.000 C 
ATOM      4  C   UNL     1      -0.388   9.384  18.328  0.00  0.00    +0.000 C 
ATOM      5  C   UNL     1      -1.309  10.519  18.560  0.00  0.00    +0.000 A 
ATOM      6  C   UNL     1      -0.919  11.609  19.308  0.00  0.00    +0.000 A 
ATOM      7  N   UNL     1      -1.974  12.491  19.327  0.00  0.00    +0.000 N 
ATOM      8  C   UNL     1      -3.056  11.943  18.672  0.00  0.00    +0.000 A 
ATOM      9  C   UNL     1      -4.350  12.446  18.487  0.00  0.00    +0.000 A 
ATOM     10  C   UNL     1      -5.250  11.666  17.751  0.00  0.00    +0.000 A 
ATOM     11  C   UNL     1      -4.869  10.437  17.218  0.00  0.00    +0.000 A 
ATOM     12  C   UNL     1      -3.575   9.946  17.416  0.00  0.00    +0.000 A 
ATOM     13  C   UNL     1      -2.654  10.709  18.158  0.00  0.00    +0.000 A 
ATOM     14  H   UNL     1       0.991   9.946  20.611  0.00  0.00    +0.000 HD
ATOM     15  H   UNL     1      -1.970  13.409  19.755  0.00  0.00    +0.000 HD
ENDROOT
BRANCH   1  16
ATOM     16  C   UNL     1       1.126  13.042  19.417  0.00  0.00    +0.000 A 
ATOM     17  N   UNL     1       0.628  14.247  19.190  0.00  0.00    +0.000 NA
ATOM     18  N   UNL     1       1.663  15.014  18.698  0.00  0.00    +0.000 NA
ATOM     19  C   UNL     1       2.719  14.231  18.660  0.00  0.00    +0.000 A 
ATOM     20  C   UNL     1       4.103  14.527  18.254  0.00  0.00    +0.000 C 
ATOM     21  O   UNL     1       2.458  12.958  19.086  0.00  0.00    +0.000 OA
ENDBRANCH   1  16
BRANCH   3  22
ATOM     22  C   UNL     1       1.954   8.606  18.628  0.00  0.00    +0.000 A 
ATOM     23  N   UNL     1       2.679   8.122  17.638  0.00  0.00    +0.000 NA
ATOM     24  C   UNL     1       3.202   6.933  18.091  0.00  0.00    +0.000 A 
ATOM     25  C   UNL     1       2.811   6.710  19.392  0.00  0.00    +0.000 A 
ATOM     26  N   UNL     1       2.022   7.781  19.725  0.00  0.00    +0.000 N 
ATOM     27  H   UNL     1       1.514   7.922  20.588  0.00  0.00    +0.000 HD
BRANCH  24  28
ATOM     28  C   UNL     1       4.019   6.061  17.261  0.00  0.00    +0.000 A 
ATOM     29  C   UNL     1       3.951   4.678  17.440  0.00  0.00    +0.000 A 
ATOM     30  C   UNL     1       4.740   3.850  16.645  0.00  0.00    +0.000 A 
ATOM     31  C   UNL     1       5.571   4.433  15.705  0.00  0.00    +0.000 A 
ATOM     32  F   UNL     1       6.345   3.672  14.923  0.00  0.00    +0.000 F 
ATOM     33  C   UNL     1       5.591   5.814  15.589  0.00  0.00    +0.000 A 
ATOM     34  N   UNL     1       4.833   6.647  16.343  0.00  0.00    +0.000 NA
ENDBRANCH  24  28
ENDBRANCH   3  22
BRANCH   1  35
ATOM     35  C   UNL     1       0.165  12.056  21.513  0.00  0.00    +0.000 C 
BRANCH  35  36
ATOM     36  O   UNL     1      -0.991  11.355  21.995  0.00  0.00    +0.000 OA
BRANCH  36  38
ATOM     37  C   UNL     1      -0.505   9.047  22.405  0.00  0.00    +0.000 C 
ATOM     38  C   UNL     1      -0.642  10.425  23.020  0.00  0.00    +0.000 C 
ENDBRANCH  36  38
ENDBRANCH  35  36
ENDBRANCH   1  35
TORSDOF 6
ENDMDL
MODEL 6
REMARK VINA RESULT:      -8.2      1.763      2.137
REMARK  Name = 
REMARK  8 active torsions:
REMARK  status: ('A' for Active; 'I' for Inactive)
REMARK    1  A    between atoms: C_1  and  C_2
REMARK    2  A    between atoms: C_2  and  O_3
REMARK    3  A    between atoms: O_3  and  C_4
REMARK    4  A    between atoms: C_4  and  C_5
REMARK    5  A    between atoms: C_5  and  C_6
REMARK    6  A    between atoms: C_9  and  C_10
REMARK    7  A    between atoms: C_13  and  C_14
REMARK    8  A    between atoms: C_16  and  C_17
REMARK                            x       y       z     vdW  Elec       q    Type
REMARK                         _______ _______ _______ _____ _____    ______ ____
ROOT
ATOM      1  C   UNL     1       0.434  11.002  20.265  0.00  0.00    +0.000 C 
ATOM      2  N   UNL     1       1.287   9.860  19.787  0.00  0.00    +0.000 NA
ATOM      3  C   UNL     1       1.250   9.619  18.325  0.00  0.00    +0.000 C 
ATOM      4  C   UNL     1      -0.180   9.326  17.786  0.00  0.00    +0.000 C 
ATOM      5  C   UNL     1      -1.133  10.329  18.311  0.00  0.00    +0.000 A 
ATOM      6  C   UNL     1      -0.834  11.076  19.430  0.00  0.00    +0.000 A 
ATOM      7  N   UNL     1      -1.896  11.920  19.655  0.00  0.00    +0.000 N 
ATOM      8  C   UNL     1      -2.900  11.664  18.744  0.00  0.00    +0.000 A 
ATOM      9  C   UNL     1      -4.174  12.232  18.621  0.00  0.00    +0.000 A 
ATOM     10  C   UNL     1      -4.985  11.784  17.572  0.00  0.00    +0.000 A 
ATOM     11  C   UNL     1      -4.537  10.812  16.680  0.00  0.00    +0.000 A 
ATOM     12  C   UNL     1      -3.264  10.251  16.819  0.00  0.00    +0.000 A 
ATOM     13  C   UNL     1      -2.433  10.681  17.870  0.00  0.00    +0.000 A 
ATOM     14  H   UNL     1       0.953   9.014  20.246  0.00  0.00    +0.000 HD
ATOM     15  H   UNL     1      -1.948  12.628  20.377  0.00  0.00    +0.000 HD
ENDROOT
BRANCH   1  16
ATOM     16  C   UNL     1       1.171  12.327  20.240  0.00  0.00    +0.000 A 
ATOM     17  N   UNL     1       0.935  13.390  19.488  0.00  0.00    +0.000 NA
ATOM     18  N   UNL     1       1.860  14.346  19.856  0.00  0.00    +0.000 NA
ATOM     19  C   UNL     1       2.592  13.806  20.805  0.00  0.00    +0.000 A 
ATOM     20  C   UNL     1       3.701  14.380  21.586  0.00  0.00    +0.000 C 
ATOM     21  O   UNL     1       2.228  12.521  21.098  0.00  0.00    +0.000 OA
ENDBRANCH   1  16
BRANCH   3  22
ATOM     22  C   UNL     1       2.129   8.435  18.023  0.00  0.00    +0.000 A 
ATOM     23  N   UNL     1       1.841   7.168  18.246  0.00  0.00    +0.000 NA
ATOM     24  C   UNL     1       2.979   6.456  17.940  0.00  0.00    +0.000 A 
ATOM     25  C   UNL     1       3.963   7.308  17.493  0.00  0.00    +0.000 A 
ATOM     26  N   UNL     1       3.412   8.563  17.547  0.00  0.00    +0.000 N 
ATOM     27  H   UNL     1       3.870   9.441  17.345  0.00  0.00    +0.000 HD
BRANCH  24  28
ATOM     28  C   UNL     1       3.080   5.015  18.113  0.00  0.00    +0.000 A 
ATOM     29  C   UNL     1       2.011   4.200  17.732  0.00  0.00    +0.000 A 
ATOM     30  C   UNL     1       2.113   2.822  17.905  0.00  0.00    +0.000 A 
ATOM     31  C   UNL     1       3.274   2.309  18.456  0.00  0.00    +0.000 A 
ATOM     32  F   UNL     1       3.410   0.990  18.637  0.00  0.00    +0.000 F 
ATOM     33  C   UNL     1       4.290   3.179  18.816  0.00  0.00    +0.000 A 
ATOM     34  N   UNL     1       4.224   4.524  18.657  0.00  0.00    +0.000 NA
ENDBRANCH  24  28
ENDBRANCH   3  22
BRANCH   1  35
ATOM     35  C   UNL     1       0.014  10.690  21.747  0.00  0.00    +0.000 C 
BRANCH  35  36
ATOM     36  O   UNL     1      -0.704  11.771  22.363  0.00  0.00    +0.000 OA
BRANCH  36  38
ATOM     37  C   UNL     1      -2.905  12.213  23.192  0.00  0.00    +0.000 C 
ATOM     38  C   UNL     1      -1.710  11.283  23.250  0.00  0.00    +0.000 C 
ENDBRANCH  36  38
ENDBRANCH  35  36
ENDBRANCH   1  35
TORSDOF 6
ENDMDL
MODEL 7
REMARK VINA RESULT:      -8.0      2.328      3.049
REMARK  Name = 
REMARK  8 active torsions:
REMARK  status: ('A' for Active; 'I' for Inactive)
REMARK    1  A    between atoms: C_1  and  C_2
REMARK    2  A    between atoms: C_2  and  O_3
REMARK    3  A    between atoms: O_3  and  C_4
REMARK    4  A    between atoms: C_4  and  C_5
REMARK    5  A    between atoms: C_5  and  C_6
REMARK    6  A    between atoms: C_9  and  C_10
REMARK    7  A    between atoms: C_13  and  C_14
REMARK    8  A    between atoms: C_16  and  C_17
REMARK                            x       y       z     vdW  Elec       q    Type
REMARK                         _______ _______ _______ _____ _____    ______ ____
ROOT
ATOM      1  C   UNL     1      -0.510  12.542  20.426  0.00  0.00    +0.000 C 
ATOM      2  N   UNL     1       0.370  11.387  20.035  0.00  0.00    +0.000 NA
ATOM      3  C   UNL     1       0.121  10.840  18.681  0.00  0.00    +0.000 C 
ATOM      4  C   UNL     1      -1.338  10.339  18.479  0.00  0.00    +0.000 C 
ATOM      5  C   UNL     1      -2.294  11.361  18.961  0.00  0.00    +0.000 A 
ATOM      6  C   UNL     1      -1.898  12.347  19.838  0.00  0.00    +0.000 A 
ATOM      7  N   UNL     1      -2.993  13.142  20.082  0.00  0.00    +0.000 N 
ATOM      8  C   UNL     1      -4.099  12.629  19.437  0.00  0.00    +0.000 A 
ATOM      9  C   UNL     1      -5.429  13.066  19.438  0.00  0.00    +0.000 A 
ATOM     10  C   UNL     1      -6.348  12.350  18.664  0.00  0.00    +0.000 A 
ATOM     11  C   UNL     1      -5.951  11.245  17.914  0.00  0.00    +0.000 A 
ATOM     12  C   UNL     1      -4.620  10.817  17.927  0.00  0.00    +0.000 A 
ATOM     13  C   UNL     1      -3.679  11.518  18.704  0.00  0.00    +0.000 A 
ATOM     14  H   UNL     1       0.208  10.636  20.704  0.00  0.00    +0.000 HD
ATOM     15  H   UNL     1      -3.001  13.982  20.648  0.00  0.00    +0.000 HD
ENDROOT
BRANCH   1  16
ATOM     16  C   UNL     1       0.068  13.880  20.008  0.00  0.00    +0.000 A 
ATOM     17  N   UNL     1       1.280  14.362  20.230  0.00  0.00    +0.000 NA
ATOM     18  N   UNL     1       1.326  15.603  19.629  0.00  0.00    +0.000 NA
ATOM     19  C   UNL     1       0.145  15.793  19.081  0.00  0.00    +0.000 A 
ATOM     20  C   UNL     1      -0.356  16.925  18.284  0.00  0.00    +0.000 C 
ATOM     21  O   UNL     1      -0.716  14.751  19.288  0.00  0.00    +0.000 OA
ENDBRANCH   1  16
BRANCH   3  22
ATOM     22  C   UNL     1       1.060   9.683  18.463  0.00  0.00    +0.000 A 
ATOM     23  N   UNL     1       1.054   8.536  19.111  0.00  0.00    +0.000 NA
ATOM     24  C   UNL     1       2.160   7.843  18.676  0.00  0.00    +0.000 A 
ATOM     25  C   UNL     1       2.829   8.574  17.721  0.00  0.00    +0.000 A 
ATOM     26  N   UNL     1       2.121   9.740  17.590  0.00  0.00    +0.000 N 
ATOM     27  H   UNL     1       2.356  10.538  17.016  0.00  0.00    +0.000 HD
BRANCH  24  28
ATOM     28  C   UNL     1       2.537   6.541  19.206  0.00  0.00    +0.000 A 
ATOM     29  C   UNL     1       1.857   6.025  20.311  0.00  0.00    +0.000 A 
ATOM     30  C   UNL     1       2.227   4.781  20.816  0.00  0.00    +0.000 A 
ATOM     31  C   UNL     1       3.264   4.100  20.203  0.00  0.00    +0.000 A 
ATOM     32  F   UNL     1       3.647   2.902  20.658  0.00  0.00    +0.000 F 
ATOM     33  C   UNL     1       3.896   4.677  19.114  0.00  0.00    +0.000 A 
ATOM     34  N   UNL     1       3.558   5.884  18.595  0.00  0.00    +0.000 NA
ENDBRANCH  24  28
ENDBRANCH   3  22
BRANCH   1  35
ATOM     35  C   UNL     1      -0.646  12.523  21.992  0.00  0.00    +0.000 C 
BRANCH  35  36
ATOM     36  O   UNL     1       0.026  11.407  22.596  0.00  0.00    +0.000 OA
BRANCH  36  38
ATOM     37  C   UNL     1      -0.501   9.072  22.582  0.00  0.00    +0.000 C 
ATOM     38  C   UNL     1      -0.908  10.443  23.082  0.00  0.00    +0.000 C 
ENDBRANCH  36  38
ENDBRANCH  35  36
ENDBRANCH   1  35
TORSDOF 6
ENDMDL
MODEL 8
REMARK VINA RESULT:      -8.0      4.028      9.349
REMARK  Name = 
REMARK  8 active torsions:
REMARK  status: ('A' for Active; 'I' for Inactive)
REMARK    1  A    between atoms: C_1  and  C_2
REMARK    2  A    between atoms: C_2  and  O_3
REMARK    3  A    between atoms: O_3  and  C_4
REMARK    4  A    between atoms: C_4  and  C_5
REMARK    5  A    between atoms: C_5  and  C_6
REMARK    6  A    between atoms: C_9  and  C_10
REMARK    7  A    between atoms: C_13  and  C_14
REMARK    8  A    between atoms: C_16  and  C_17
REMARK                            x       y       z     vdW  Elec       q    Type
REMARK                         _______ _______ _______ _____ _____    ______ ____
ROOT
ATOM      1  C   UNL     1       4.814   6.613  16.890  0.00  0.00    +0.000 C 
ATOM      2  N   UNL     1       3.860   7.766  17.033  0.00  0.00    +0.000 NA
ATOM      3  C   UNL     1       3.042   7.754  18.268  0.00  0.00    +0.000 C 
ATOM      4  C   UNL     1       2.172   6.473  18.416  0.00  0.00    +0.000 C 
ATOM      5  C   UNL     1       2.996   5.270  18.163  0.00  0.00    +0.000 A 
ATOM      6  C   UNL     1       4.186   5.357  17.473  0.00  0.00    +0.000 A 
ATOM      7  N   UNL     1       4.719   4.091  17.415  0.00  0.00    +0.000 N 
ATOM      8  C   UNL     1       3.848   3.188  17.987  0.00  0.00    +0.000 A 
ATOM      9  C   UNL     1       3.940   1.796  18.107  0.00  0.00    +0.000 A 
ATOM     10  C   UNL     1       2.897   1.131  18.762  0.00  0.00    +0.000 A 
ATOM     11  C   UNL     1       1.809   1.832  19.280  0.00  0.00    +0.000 A 
ATOM     12  C   UNL     1       1.730   3.221  19.148  0.00  0.00    +0.000 A 
ATOM     13  C   UNL     1       2.763   3.911  18.487  0.00  0.00    +0.000 A 
ATOM     14  H   UNL     1       3.220   7.735  16.240  0.00  0.00    +0.000 HD
ATOM     15  H   UNL     1       5.617   3.844  17.016  0.00  0.00    +0.000 HD
ENDROOT
BRANCH   1  16
ATOM     16  C   UNL     1       6.159   6.890  17.533  0.00  0.00    +0.000 A 
ATOM     17  N   UNL     1       6.974   6.043  18.142  0.00  0.00    +0.000 NA
ATOM     18  N   UNL     1       8.079   6.771  18.531  0.00  0.00    +0.000 NA
ATOM     19  C   UNL     1       7.867   8.006  18.134  0.00  0.00    +0.000 A 
ATOM     20  C   UNL     1       8.725   9.197  18.250  0.00  0.00    +0.000 C 
ATOM     21  O   UNL     1       6.665   8.168  17.503  0.00  0.00    +0.000 OA
ENDBRANCH   1  16
BRANCH   3  22
ATOM     22  C   UNL     1       2.131   8.952  18.238  0.00  0.00    +0.000 A 
ATOM     23  N   UNL     1       0.819   8.944  18.375  0.00  0.00    +0.000 NA
ATOM     24  C   UNL     1       0.401  10.235  18.150  0.00  0.00    +0.000 A 
ATOM     25  C   UNL     1       1.486  11.046  17.904  0.00  0.00    +0.000 A 
ATOM     26  N   UNL     1       2.580  10.223  17.965  0.00  0.00    +0.000 N 
ATOM     27  H   UNL     1       3.542  10.469  17.777  0.00  0.00    +0.000 HD
BRANCH  24  28
ATOM     28  C   UNL     1      -1.001  10.624  18.154  0.00  0.00    +0.000 A 
ATOM     29  C   UNL     1      -1.882  10.031  17.247  0.00  0.00    +0.000 A 
ATOM     30  C   UNL     1      -3.222  10.412  17.253  0.00  0.00    +0.000 A 
ATOM     31  C   UNL     1      -3.631  11.374  18.160  0.00  0.00    +0.000 A 
ATOM     32  F   UNL     1      -4.910  11.766  18.197  0.00  0.00    +0.000 F 
ATOM     33  C   UNL     1      -2.699  11.923  19.025  0.00  0.00    +0.000 A 
ATOM     34  N   UNL     1      -1.390  11.571  19.048  0.00  0.00    +0.000 NA
ENDBRANCH  24  28
ENDBRANCH   3  22
BRANCH   1  35
ATOM     35  C   UNL     1       5.034   6.369  15.353  0.00  0.00    +0.000 C 
BRANCH  35  36
ATOM     36  O   UNL     1       5.278   4.990  15.037  0.00  0.00    +0.000 OA
BRANCH  36  38
ATOM     37  C   UNL     1       6.376   3.872  13.227  0.00  0.00    +0.000 C 
ATOM     38  C   UNL     1       6.542   4.823  14.394  0.00  0.00    +0.000 C 
ENDBRANCH  36  38
ENDBRANCH  35  36
ENDBRANCH   1  35
TORSDOF 6
ENDMDL
MODEL 9
REMARK VINA RESULT:      -8.0      1.969      4.747
REMARK  Name = 
REMARK  8 active torsions:
REMARK  status: ('A' for Active; 'I' for Inactive)
REMARK    1  A    between atoms: C_1  and  C_2
REMARK    2  A    between atoms: C_2  and  O_3
REMARK    3  A    between atoms: O_3  and  C_4
REMARK    4  A    between atoms: C_4  and  C_5
REMARK    5  A    between atoms: C_5  and  C_6
REMARK    6  A    between atoms: C_9  and  C_10
REMARK    7  A    between atoms: C_13  and  C_14
REMARK    8  A    between atoms: C_16  and  C_17
REMARK                            x       y       z     vdW  Elec       q    Type
REMARK                         _______ _______ _______ _____ _____    ______ ____
ROOT
ATOM      1  C   UNL     1      -1.267  12.081  18.603  0.00  0.00    +0.000 C 
ATOM      2  N   UNL     1      -0.268  10.991  18.876  0.00  0.00    +0.000 NA
ATOM      3  C   UNL     1      -0.604  10.104  20.015  0.00  0.00    +0.000 C 
ATOM      4  C   UNL     1      -0.766  10.867  21.361  0.00  0.00    +0.000 C 
ATOM      5  C   UNL     1      -1.636  12.049  21.169  0.00  0.00    +0.000 A 
ATOM      6  C   UNL     1      -1.849  12.579  19.915  0.00  0.00    +0.000 A 
ATOM      7  N   UNL     1      -2.703  13.646  20.062  0.00  0.00    +0.000 N 
ATOM      8  C   UNL     1      -2.973  13.852  21.399  0.00  0.00    +0.000 A 
ATOM      9  C   UNL     1      -3.740  14.844  22.024  0.00  0.00    +0.000 A 
ATOM     10  C   UNL     1      -3.854  14.793  23.418  0.00  0.00    +0.000 A 
ATOM     11  C   UNL     1      -3.231  13.788  24.155  0.00  0.00    +0.000 A 
ATOM     12  C   UNL     1      -2.464  12.808  23.517  0.00  0.00    +0.000 A 
ATOM     13  C   UNL     1      -2.329  12.843  22.116  0.00  0.00    +0.000 A 
ATOM     14  H   UNL     1       0.624  11.436  19.086  0.00  0.00    +0.000 HD
ATOM     15  H   UNL     1      -3.086  14.206  19.310  0.00  0.00    +0.000 HD
ENDROOT
BRANCH   1  16
ATOM     16  C   UNL     1      -2.368  11.637  17.660  0.00  0.00    +0.000 A 
ATOM     17  N   UNL     1      -3.678  11.751  17.809  0.00  0.00    +0.000 NA
ATOM     18  N   UNL     1      -4.251  11.222  16.670  0.00  0.00    +0.000 NA
ATOM     19  C   UNL     1      -3.256  10.826  15.906  0.00  0.00    +0.000 A 
ATOM     20  C   UNL     1      -3.278  10.221  14.564  0.00  0.00    +0.000 C 
ATOM     21  O   UNL     1      -2.029  11.042  16.468  0.00  0.00    +0.000 OA
ENDBRANCH   1  16
BRANCH   3  22
ATOM     22  C   UNL     1       0.503   9.095  20.165  0.00  0.00    +0.000 A 
ATOM     23  N   UNL     1       1.322   8.683  19.217  0.00  0.00    +0.000 NA
ATOM     24  C   UNL     1       2.074   7.672  19.772  0.00  0.00    +0.000 A 
ATOM     25  C   UNL     1       1.724   7.494  21.091  0.00  0.00    +0.000 A 
ATOM     26  N   UNL     1       0.728   8.404  21.332  0.00  0.00    +0.000 N 
ATOM     27  H   UNL     1       0.194   8.516  22.183  0.00  0.00    +0.000 HD
BRANCH  24  28
ATOM     28  C   UNL     1       3.061   6.916  19.017  0.00  0.00    +0.000 A 
ATOM     29  C   UNL     1       3.483   7.387  17.771  0.00  0.00    +0.000 A 
ATOM     30  C   UNL     1       4.425   6.655  17.052  0.00  0.00    +0.000 A 
ATOM     31  C   UNL     1       4.907   5.479  17.600  0.00  0.00    +0.000 A 
ATOM     32  F   UNL     1       5.813   4.748  16.939  0.00  0.00    +0.000 F 
ATOM     33  C   UNL     1       4.437   5.071  18.838  0.00  0.00    +0.000 A 
ATOM     34  N   UNL     1       3.525   5.762  19.565  0.00  0.00    +0.000 NA
ENDBRANCH  24  28
ENDBRANCH   3  22
BRANCH   1  35
ATOM     35  C   UNL     1      -0.491  13.276  17.939  0.00  0.00    +0.000 C 
BRANCH  35  36
ATOM     36  O   UNL     1      -0.035  14.245  18.896  0.00  0.00    +0.000 OA
BRANCH  36  38
ATOM     37  C   UNL     1       1.739  13.656  20.391  0.00  0.00    +0.000 C 
ATOM     38  C   UNL     1       1.386  14.212  19.027  0.00  0.00    +0.000 C 
ENDBRANCH  36  38
ENDBRANCH  35  36
ENDBRANCH   1  35
TORSDOF 6
ENDMDL
