MODEL 1
REMARK VINA RESULT:      -8.7      0.000      0.000
REMARK  Name = 
REMARK  8 active torsions:
REMARK  status: ('A' for Active; 'I' for Inactive)
REMARK    1  A    between atoms: C_1  and  O_2
REMARK    2  A    between atoms: O_2  and  C_3
REMARK    3  A    between atoms: C_6  and  C_7
REMARK    4  A    between atoms: C_8  and  C_9
REMARK    5  A    between atoms: N_11  and  C_12
REMARK    6  A    between atoms: C_12  and  N_14
REMARK    7  A    between atoms: N_14  and  N_15
REMARK    8  A    between atoms: C_16  and  C_18
REMARK                            x       y       z     vdW  Elec       q    Type
REMARK                         _______ _______ _______ _____ _____    ______ ____
ROOT
ATOM      1  C   UNL     1       7.746   7.016  17.791  0.00  0.00    +0.000 C 
ATOM      2  O   UNL     1       7.993   6.352  18.798  0.00  0.00    +0.000 OA
ATOM      3  N   UNL     1       7.356   6.473  16.571  0.00  0.00    +0.000 N 
ATOM      4  H   UNL     1       7.213   7.094  15.796  0.00  0.00    +0.000 HD
ENDROOT
BRANCH   1   6
ATOM      5  C   UNL     1       8.786   9.014  18.740  0.00  0.00    +0.000 C 
ATOM      6  C   UNL     1       7.991   8.494  17.778  0.00  0.00    +0.000 C 
BRANCH   5  10
ATOM      7  C   UNL     1       9.905  13.122  19.400  0.00  0.00    +0.000 A 
ATOM      8  C   UNL     1      10.069  12.161  20.398  0.00  0.00    +0.000 A 
ATOM      9  C   UNL     1       9.715  10.822  20.160  0.00  0.00    +0.000 A 
ATOM     10  C   UNL     1       9.139  10.431  18.942  0.00  0.00    +0.000 A 
ATOM     11  C   UNL     1       8.983  11.406  17.948  0.00  0.00    +0.000 A 
ATOM     12  C   UNL     1       9.355  12.742  18.181  0.00  0.00    +0.000 A 
BRANCH   7  14
ATOM     13  C   UNL     1      11.679  14.650  19.739  0.00  0.00    +0.000 C 
ATOM     14  O   UNL     1      10.278  14.394  19.740  0.00  0.00    +0.000 OA
ENDBRANCH   7  14
ENDBRANCH   5  10
ENDBRANCH   1   6
BRANCH   3  15
ATOM     15  C   UNL     1       6.929   5.178  16.294  0.00  0.00    +0.000 C 
ATOM     16  S   UNL     1       6.645   4.476  14.809  0.00  0.00    +0.000 S 
BRANCH  15  17
ATOM     17  N   UNL     1       6.748   4.436  17.454  0.00  0.00    +0.000 N 
ATOM     18  H   UNL     1       7.548   3.944  17.864  0.00  0.00    +0.000 HD
BRANCH  17  19
ATOM     19  N   UNL     1       5.479   3.881  17.705  0.00  0.00    +0.000 N 
ATOM     20  C   UNL     1       4.670   4.419  18.687  0.00  0.00    +0.000 C 
ATOM     21  O   UNL     1       4.991   5.361  19.397  0.00  0.00    +0.000 OA
ATOM     22  H   UNL     1       5.179   3.060  17.172  0.00  0.00    +0.000 HD
BRANCH  20  23
ATOM     23  C   UNL     1       3.326   3.766  18.819  0.00  0.00    +0.000 A 
ATOM     24  C   UNL     1       2.378   3.932  17.828  0.00  0.00    +0.000 A 
ATOM     25  N   UNL     1       1.157   3.334  17.886  0.00  0.00    +0.000 NA
ATOM     26  C   UNL     1       0.937   2.565  18.971  0.00  0.00    +0.000 A 
ATOM     27  C   UNL     1       1.889   2.400  19.972  0.00  0.00    +0.000 A 
ATOM     28  N   UNL     1       3.116   2.978  19.918  0.00  0.00    +0.000 NA
ENDBRANCH  20  23
ENDBRANCH  17  19
ENDBRANCH  15  17
ENDBRANCH   3  15
TORSDOF 7
ENDMDL
MODEL 2
REMARK VINA RESULT:      -8.3      1.062      1.531
REMARK  Name = 
REMARK  8 active torsions:
REMARK  status: ('A' for Active; 'I' for Inactive)
REMARK    1  A    between atoms: C_1  and  O_2
REMARK    2  A    between atoms: O_2  and  C_3
REMARK    3  A    between atoms: C_6  and  C_7
REMARK    4  A    between atoms: C_8  and  C_9
REMARK    5  A    between atoms: N_11  and  C_12
REMARK    6  A    between atoms: C_12  and  N_14
REMARK    7  A    between atoms: N_14  and  N_15
REMARK    8  A    between atoms: C_16  and  C_18
REMARK                            x       y       z     vdW  Elec       q    Type
REMARK                         _______ _______ _______ _____ _____    ______ ____
ROOT
ATOM      1  C   UNL     1       7.626   6.791  17.637  0.00  0.00    +0.000 C 
ATOM      2  O   UNL     1       7.866   6.104  18.630  0.00  0.00    +0.000 OA
ATOM      3  N   UNL     1       7.233   6.276  16.405  0.00  0.00    +0.000 N 
ATOM      4  H   UNL     1       7.097   6.914  15.643  0.00  0.00    +0.000 HD
ENDROOT
BRANCH   1   6
ATOM      5  C   UNL     1       8.658   8.764  18.645  0.00  0.00    +0.000 C 
ATOM      6  C   UNL     1       7.884   8.267  17.654  0.00  0.00    +0.000 C 
BRANCH   5  10
ATOM      7  C   UNL     1       9.630  12.917  19.253  0.00  0.00    +0.000 A 
ATOM      8  C   UNL     1       9.200  12.452  18.011  0.00  0.00    +0.000 A 
ATOM      9  C   UNL     1       8.870  11.097  17.834  0.00  0.00    +0.000 A 
ATOM     10  C   UNL     1       9.018  10.173  18.879  0.00  0.00    +0.000 A 
ATOM     11  C   UNL     1       9.449  10.655  20.123  0.00  0.00    +0.000 A 
ATOM     12  C   UNL     1       9.761  12.015  20.303  0.00  0.00    +0.000 A 
BRANCH   7  14
ATOM     13  C   UNL     1       8.879  15.137  18.936  0.00  0.00    +0.000 C 
ATOM     14  O   UNL     1       9.928  14.251  19.312  0.00  0.00    +0.000 OA
ENDBRANCH   7  14
ENDBRANCH   5  10
ENDBRANCH   1   6
BRANCH   3  15
ATOM     15  C   UNL     1       6.795   4.991  16.101  0.00  0.00    +0.000 C 
ATOM     16  S   UNL     1       6.469   4.335  14.605  0.00  0.00    +0.000 S 
BRANCH  15  17
ATOM     17  N   UNL     1       6.643   4.215  17.244  0.00  0.00    +0.000 N 
ATOM     18  H   UNL     1       7.341   3.495  17.456  0.00  0.00    +0.000 HD
BRANCH  17  19
ATOM     19  N   UNL     1       5.343   3.987  17.733  0.00  0.00    +0.000 N 
ATOM     20  C   UNL     1       5.092   4.062  19.089  0.00  0.00    +0.000 C 
ATOM     21  O   UNL     1       5.946   4.298  19.931  0.00  0.00    +0.000 OA
ATOM     22  H   UNL     1       4.599   3.738  17.077  0.00  0.00    +0.000 HD
BRANCH  20  23
ATOM     23  C   UNL     1       3.658   3.847  19.474  0.00  0.00    +0.000 A 
ATOM     24  C   UNL     1       3.122   2.574  19.453  0.00  0.00    +0.000 A 
ATOM     25  N   UNL     1       1.837   2.323  19.826  0.00  0.00    +0.000 NA
ATOM     26  C   UNL     1       1.125   3.398  20.220  0.00  0.00    +0.000 A 
ATOM     27  C   UNL     1       1.662   4.681  20.238  0.00  0.00    +0.000 A 
ATOM     28  N   UNL     1       2.947   4.942  19.885  0.00  0.00    +0.000 NA
ENDBRANCH  20  23
ENDBRANCH  17  19
ENDBRANCH  15  17
ENDBRANCH   3  15
TORSDOF 7
ENDMDL
MODEL 3
REMARK VINA RESULT:      -8.0      1.165      1.322
REMARK  Name = 
REMARK  8 active torsions:
REMARK  status: ('A' for Active; 'I' for Inactive)
REMARK    1  A    between atoms: C_1  and  O_2
REMARK    2  A    between atoms: O_2  and  C_3
REMARK    3  A    between atoms: C_6  and  C_7
REMARK    4  A    between atoms: C_8  and  C_9
REMARK    5  A    between atoms: N_11  and  C_12
REMARK    6  A    between atoms: C_12  and  N_14
REMARK    7  A    between atoms: N_14  and  N_15
REMARK    8  A    between atoms: C_16  and  C_18
REMARK                            x       y       z     vdW  Elec       q    Type
REMARK                         _______ _______ _______ _____ _____    ______ ____
ROOT
ATOM      1  C   UNL     1       7.678   7.013  17.766  0.00  0.00    +0.000 C 
ATOM      2  O   UNL     1       7.939   6.395  18.799  0.00  0.00    +0.000 OA
ATOM      3  N   UNL     1       7.288   6.412  16.573  0.00  0.00    +0.000 N 
ATOM      4  H   UNL     1       7.134   6.998  15.773  0.00  0.00    +0.000 HD
ENDROOT
BRANCH   1   6
ATOM      5  C   UNL     1       8.718   9.058  18.609  0.00  0.00    +0.000 C 
ATOM      6  C   UNL     1       7.905   8.492  17.688  0.00  0.00    +0.000 C 
BRANCH   5  10
ATOM      7  C   UNL     1       9.815  13.200  19.058  0.00  0.00    +0.000 A 
ATOM      8  C   UNL     1      10.212  12.244  19.993  0.00  0.00    +0.000 A 
ATOM      9  C   UNL     1       9.860  10.894  19.823  0.00  0.00    +0.000 A 
ATOM     10  C   UNL     1       9.059  10.485  18.746  0.00  0.00    +0.000 A 
ATOM     11  C   UNL     1       8.670  11.456  17.812  0.00  0.00    +0.000 A 
ATOM     12  C   UNL     1       9.038  12.804  17.975  0.00  0.00    +0.000 A 
BRANCH   7  14
ATOM     13  C   UNL     1      10.990  14.660  20.502  0.00  0.00    +0.000 C 
ATOM     14  O   UNL     1      10.208  14.484  19.325  0.00  0.00    +0.000 OA
ENDBRANCH   7  14
ENDBRANCH   5  10
ENDBRANCH   1   6
BRANCH   3  15
ATOM     15  C   UNL     1       6.875   5.102  16.354  0.00  0.00    +0.000 C 
ATOM     16  S   UNL     1       6.569   4.341  14.904  0.00  0.00    +0.000 S 
BRANCH  15  17
ATOM     17  N   UNL     1       6.733   4.401  17.545  0.00  0.00    +0.000 N 
ATOM     18  H   UNL     1       7.210   3.501  17.656  0.00  0.00    +0.000 HD
BRANCH  17  19
ATOM     19  N   UNL     1       5.554   4.579  18.292  0.00  0.00    +0.000 N 
ATOM     20  C   UNL     1       4.469   3.751  18.080  0.00  0.00    +0.000 C 
ATOM     21  O   UNL     1       4.445   2.855  17.248  0.00  0.00    +0.000 OA
ATOM     22  H   UNL     1       5.502   5.345  18.968  0.00  0.00    +0.000 HD
BRANCH  20  23
ATOM     23  C   UNL     1       3.294   4.015  18.973  0.00  0.00    +0.000 A 
ATOM     24  C   UNL     1       3.266   5.152  19.758  0.00  0.00    +0.000 A 
ATOM     25  N   UNL     1       2.208   5.454  20.559  0.00  0.00    +0.000 NA
ATOM     26  C   UNL     1       1.188   4.573  20.531  0.00  0.00    +0.000 A 
ATOM     27  C   UNL     1       1.216   3.426  19.745  0.00  0.00    +0.000 A 
ATOM     28  N   UNL     1       2.258   3.122  18.930  0.00  0.00    +0.000 NA
ENDBRANCH  20  23
ENDBRANCH  17  19
ENDBRANCH  15  17
ENDBRANCH   3  15
TORSDOF 7
ENDMDL
MODEL 4
REMARK VINA RESULT:      -8.0      4.689      5.983
REMARK  Name = 
REMARK  8 active torsions:
REMARK  status: ('A' for Active; 'I' for Inactive)
REMARK    1  A    between atoms: C_1  and  O_2
REMARK    2  A    between atoms: O_2  and  C_3
REMARK    3  A    between atoms: C_6  and  C_7
REMARK    4  A    between atoms: C_8  and  C_9
REMARK    5  A    between atoms: N_11  and  C_12
REMARK    6  A    between atoms: C_12  and  N_14
REMARK    7  A    between atoms: N_14  and  N_15
REMARK    8  A    between atoms: C_16  and  C_18
REMARK                            x       y       z     vdW  Elec       q    Type
REMARK                         _______ _______ _______ _____ _____    ______ ____
ROOT
ATOM      1  C   UNL     1       5.567   6.499  16.674  0.00  0.00    +0.000 C 
ATOM      2  O   UNL     1       6.751   6.742  16.441  0.00  0.00    +0.000 OA
ATOM      3  N   UNL     1       4.888   5.382  16.196  0.00  0.00    +0.000 N 
ATOM      4  H   UNL     1       3.912   5.290  16.409  0.00  0.00    +0.000 HD
ENDROOT
BRANCH   1   6
ATOM      5  C   UNL     1       3.501   7.093  17.837  0.00  0.00    +0.000 C 
ATOM      6  C   UNL     1       4.716   7.495  17.400  0.00  0.00    +0.000 C 
BRANCH   5  10
ATOM      7  C   UNL     1       0.485   9.469  19.792  0.00  0.00    +0.000 A 
ATOM      8  C   UNL     1       0.855   9.718  18.470  0.00  0.00    +0.000 A 
ATOM      9  C   UNL     1       1.828   8.923  17.842  0.00  0.00    +0.000 A 
ATOM     10  C   UNL     1       2.488   7.901  18.540  0.00  0.00    +0.000 A 
ATOM     11  C   UNL     1       2.105   7.659  19.866  0.00  0.00    +0.000 A 
ATOM     12  C   UNL     1       1.118   8.445  20.487  0.00  0.00    +0.000 A 
BRANCH   7  14
ATOM     13  C   UNL     1      -0.426  10.501  21.715  0.00  0.00    +0.000 C 
ATOM     14  O   UNL     1      -0.468  10.307  20.305  0.00  0.00    +0.000 OA
ENDBRANCH   7  14
ENDBRANCH   5  10
ENDBRANCH   1   6
BRANCH   3  15
ATOM     15  C   UNL     1       5.410   4.233  15.611  0.00  0.00    +0.000 C 
ATOM     16  S   UNL     1       5.977   4.026  14.058  0.00  0.00    +0.000 S 
BRANCH  15  17
ATOM     17  N   UNL     1       5.438   3.168  16.504  0.00  0.00    +0.000 N 
ATOM     18  H   UNL     1       5.902   2.296  16.229  0.00  0.00    +0.000 HD
BRANCH  17  19
ATOM     19  N   UNL     1       4.397   3.052  17.443  0.00  0.00    +0.000 N 
ATOM     20  C   UNL     1       4.578   3.503  18.736  0.00  0.00    +0.000 C 
ATOM     21  O   UNL     1       5.618   3.994  19.150  0.00  0.00    +0.000 OA
ATOM     22  H   UNL     1       3.520   2.605  17.164  0.00  0.00    +0.000 HD
BRANCH  20  23
ATOM     23  C   UNL     1       3.375   3.366  19.622  0.00  0.00    +0.000 A 
ATOM     24  C   UNL     1       3.483   2.711  20.834  0.00  0.00    +0.000 A 
ATOM     25  N   UNL     1       2.431   2.590  21.688  0.00  0.00    +0.000 NA
ATOM     26  C   UNL     1       1.279   3.156  21.275  0.00  0.00    +0.000 A 
ATOM     27  C   UNL     1       1.167   3.812  20.054  0.00  0.00    +0.000 A 
ATOM     28  N   UNL     1       2.214   3.954  19.201  0.00  0.00    +0.000 NA
ENDBRANCH  20  23
ENDBRANCH  17  19
ENDBRANCH  15  17
ENDBRANCH   3  15
TORSDOF 7
ENDMDL
MODEL 5
REMARK VINA RESULT:      -8.0      1.330      1.599
REMARK  Name = 
REMARK  8 active torsions:
REMARK  status: ('A' for Active; 'I' for Inactive)
REMARK    1  A    between atoms: C_1  and  O_2
REMARK    2  A    between atoms: O_2  and  C_3
REMARK    3  A    between atoms: C_6  and  C_7
REMARK    4  A    between atoms: C_8  and  C_9
REMARK    5  A    between atoms: N_11  and  C_12
REMARK    6  A    between atoms: C_12  and  N_14
REMARK    7  A    between atoms: N_14  and  N_15
REMARK    8  A    between atoms: C_16  and  C_18
REMARK                            x       y       z     vdW  Elec       q    Type
REMARK                         _______ _______ _______ _____ _____    ______ ____
ROOT
ATOM      1  C   UNL     1       7.621   7.472  17.770  0.00  0.00    +0.000 C 
ATOM      2  O   UNL     1       7.941   6.677  18.654  0.00  0.00    +0.000 OA
ATOM      3  N   UNL     1       6.884   7.132  16.640  0.00  0.00    +0.000 N 
ATOM      4  H   UNL     1       6.705   7.843  15.956  0.00  0.00    +0.000 HD
ENDROOT
BRANCH   1   6
ATOM      5  C   UNL     1       8.866   9.272  18.861  0.00  0.00    +0.000 C 
ATOM      6  C   UNL     1       8.142   8.877  17.788  0.00  0.00    +0.000 C 
BRANCH   5  10
ATOM      7  C   UNL     1      10.615  13.122  19.682  0.00  0.00    +0.000 A 
ATOM      8  C   UNL     1      10.231  12.270  20.717  0.00  0.00    +0.000 A 
ATOM      9  C   UNL     1       9.677  11.010  20.432  0.00  0.00    +0.000 A 
ATOM     10  C   UNL     1       9.447  10.603  19.109  0.00  0.00    +0.000 A 
ATOM     11  C   UNL     1       9.841  11.468  18.079  0.00  0.00    +0.000 A 
ATOM     12  C   UNL     1      10.411  12.721  18.366  0.00  0.00    +0.000 A 
BRANCH   7  14
ATOM     13  C   UNL     1      11.072  15.371  19.108  0.00  0.00    +0.000 C 
ATOM     14  O   UNL     1      11.138  14.325  20.072  0.00  0.00    +0.000 OA
ENDBRANCH   7  14
ENDBRANCH   5  10
ENDBRANCH   1   6
BRANCH   3  15
ATOM     15  C   UNL     1       6.163   5.968  16.392  0.00  0.00    +0.000 C 
ATOM     16  S   UNL     1       6.737   4.470  15.945  0.00  0.00    +0.000 S 
BRANCH  15  17
ATOM     17  N   UNL     1       4.798   6.160  16.570  0.00  0.00    +0.000 N 
ATOM     18  H   UNL     1       4.407   7.101  16.465  0.00  0.00    +0.000 HD
BRANCH  17  19
ATOM     19  N   UNL     1       4.105   5.288  17.430  0.00  0.00    +0.000 N 
ATOM     20  C   UNL     1       3.207   5.792  18.351  0.00  0.00    +0.000 C 
ATOM     21  O   UNL     1       2.975   6.984  18.497  0.00  0.00    +0.000 OA
ATOM     22  H   UNL     1       4.297   4.284  17.383  0.00  0.00    +0.000 HD
BRANCH  20  23
ATOM     23  C   UNL     1       2.501   4.755  19.172  0.00  0.00    +0.000 A 
ATOM     24  C   UNL     1       2.585   4.791  20.550  0.00  0.00    +0.000 A 
ATOM     25  N   UNL     1       1.935   3.893  21.340  0.00  0.00    +0.000 NA
ATOM     26  C   UNL     1       1.200   2.970  20.687  0.00  0.00    +0.000 A 
ATOM     27  C   UNL     1       1.117   2.930  19.299  0.00  0.00    +0.000 A 
ATOM     28  N   UNL     1       1.747   3.830  18.502  0.00  0.00    +0.000 NA
ENDBRANCH  20  23
ENDBRANCH  17  19
ENDBRANCH  15  17
ENDBRANCH   3  15
TORSDOF 7
ENDMDL
MODEL 6
REMARK VINA RESULT:      -7.9      1.376      1.885
REMARK  Name = 
REMARK  8 active torsions:
REMARK  status: ('A' for Active; 'I' for Inactive)
REMARK    1  A    between atoms: C_1  and  O_2
REMARK    2  A    between atoms: O_2  and  C_3
REMARK    3  A    between atoms: C_6  and  C_7
REMARK    4  A    between atoms: C_8  and  C_9
REMARK    5  A    between atoms: N_11  and  C_12
REMARK    6  A    between atoms: C_12  and  N_14
REMARK    7  A    between atoms: N_14  and  N_15
REMARK    8  A    between atoms: C_16  and  C_18
REMARK                            x       y       z     vdW  Elec       q    Type
REMARK                         _______ _______ _______ _____ _____    ______ ____
ROOT
ATOM      1  C   UNL     1       7.723   7.604  17.772  0.00  0.00    +0.000 C 
ATOM      2  O   UNL     1       8.101   6.817  18.641  0.00  0.00    +0.000 OA
ATOM      3  N   UNL     1       6.927   7.248  16.687  0.00  0.00    +0.000 N 
ATOM      4  H   UNL     1       6.702   7.953  16.010  0.00  0.00    +0.000 HD
ENDROOT
BRANCH   1   6
ATOM      5  C   UNL     1       8.914   9.457  18.832  0.00  0.00    +0.000 C 
ATOM      6  C   UNL     1       8.227   9.014  17.754  0.00  0.00    +0.000 C 
BRANCH   5  10
ATOM      7  C   UNL     1      10.469  13.436  19.388  0.00  0.00    +0.000 A 
ATOM      8  C   UNL     1       9.945  13.032  18.160  0.00  0.00    +0.000 A 
ATOM      9  C   UNL     1       9.426  11.735  18.000  0.00  0.00    +0.000 A 
ATOM     10  C   UNL     1       9.472  10.803  19.048  0.00  0.00    +0.000 A 
ATOM     11  C   UNL     1       9.998  11.224  20.277  0.00  0.00    +0.000 A 
ATOM     12  C   UNL     1      10.501  12.527  20.440  0.00  0.00    +0.000 A 
BRANCH   7  14
ATOM     13  C   UNL     1      11.468  15.224  18.205  0.00  0.00    +0.000 C 
ATOM     14  O   UNL     1      10.951  14.716  19.431  0.00  0.00    +0.000 OA
ENDBRANCH   7  14
ENDBRANCH   5  10
ENDBRANCH   1   6
BRANCH   3  15
ATOM     15  C   UNL     1       6.208   6.075  16.485  0.00  0.00    +0.000 C 
ATOM     16  S   UNL     1       6.784   4.559  16.103  0.00  0.00    +0.000 S 
BRANCH  15  17
ATOM     17  N   UNL     1       4.842   6.273  16.650  0.00  0.00    +0.000 N 
ATOM     18  H   UNL     1       4.466   7.225  16.611  0.00  0.00    +0.000 HD
BRANCH  17  19
ATOM     19  N   UNL     1       4.119   5.348  17.426  0.00  0.00    +0.000 N 
ATOM     20  C   UNL     1       2.893   5.699  17.956  0.00  0.00    +0.000 C 
ATOM     21  O   UNL     1       2.377   6.798  17.817  0.00  0.00    +0.000 OA
ATOM     22  H   UNL     1       4.526   4.429  17.615  0.00  0.00    +0.000 HD
BRANCH  20  23
ATOM     23  C   UNL     1       2.205   4.607  18.721  0.00  0.00    +0.000 A 
ATOM     24  C   UNL     1       2.181   4.642  20.102  0.00  0.00    +0.000 A 
ATOM     25  N   UNL     1       1.542   3.694  20.840  0.00  0.00    +0.000 NA
ATOM     26  C   UNL     1       0.929   2.723  20.134  0.00  0.00    +0.000 A 
ATOM     27  C   UNL     1       0.955   2.684  18.743  0.00  0.00    +0.000 A 
ATOM     28  N   UNL     1       1.575   3.633  17.996  0.00  0.00    +0.000 NA
ENDBRANCH  20  23
ENDBRANCH  17  19
ENDBRANCH  15  17
ENDBRANCH   3  15
TORSDOF 7
ENDMDL
MODEL 7
REMARK VINA RESULT:      -7.9      2.939      4.400
REMARK  Name = 
REMARK  8 active torsions:
REMARK  status: ('A' for Active; 'I' for Inactive)
REMARK    1  A    between atoms: C_1  and  O_2
REMARK    2  A    between atoms: O_2  and  C_3
REMARK    3  A    between atoms: C_6  and  C_7
REMARK    4  A    between atoms: C_8  and  C_9
REMARK    5  A    between atoms: N_11  and  C_12
REMARK    6  A    between atoms: C_12  and  N_14
REMARK    7  A    between atoms: N_14  and  N_15
REMARK    8  A    between atoms: C_16  and  C_18
REMARK                            x       y       z     vdW  Elec       q    Type
REMARK                         _______ _______ _______ _____ _____    ______ ____
ROOT
ATOM      1  C   UNL     1       7.241   7.333  17.595  0.00  0.00    +0.000 C 
ATOM      2  O   UNL     1       6.423   7.468  16.684  0.00  0.00    +0.000 OA
ATOM      3  N   UNL     1       7.119   6.406  18.625  0.00  0.00    +0.000 N 
ATOM      4  H   UNL     1       7.819   6.397  19.344  0.00  0.00    +0.000 HD
ENDROOT
BRANCH   1   6
ATOM      5  C   UNL     1       8.293   9.264  18.663  0.00  0.00    +0.000 C 
ATOM      6  C   UNL     1       8.389   8.287  17.732  0.00  0.00    +0.000 C 
BRANCH   5  10
ATOM      7  C   UNL     1      11.134  12.416  19.409  0.00  0.00    +0.000 A 
ATOM      8  C   UNL     1      10.848  11.996  18.110  0.00  0.00    +0.000 A 
ATOM      9  C   UNL     1       9.907  10.978  17.883  0.00  0.00    +0.000 A 
ATOM     10  C   UNL     1       9.275  10.324  18.952  0.00  0.00    +0.000 A 
ATOM     11  C   UNL     1       9.569  10.759  20.252  0.00  0.00    +0.000 A 
ATOM     12  C   UNL     1      10.498  11.790  20.476  0.00  0.00    +0.000 A 
BRANCH   7  14
ATOM     13  C   UNL     1      11.916  14.503  18.616  0.00  0.00    +0.000 C 
ATOM     14  O   UNL     1      12.069  13.409  19.515  0.00  0.00    +0.000 OA
ENDBRANCH   7  14
ENDBRANCH   5  10
ENDBRANCH   1   6
BRANCH   3  15
ATOM     15  C   UNL     1       6.256   5.319  18.718  0.00  0.00    +0.000 C 
ATOM     16  S   UNL     1       4.748   5.251  19.424  0.00  0.00    +0.000 S 
BRANCH  15  17
ATOM     17  N   UNL     1       6.785   4.187  18.111  0.00  0.00    +0.000 N 
ATOM     18  H   UNL     1       7.312   3.515  18.678  0.00  0.00    +0.000 HD
BRANCH  17  19
ATOM     19  N   UNL     1       7.123   4.253  16.747  0.00  0.00    +0.000 N 
ATOM     20  C   UNL     1       6.134   4.176  15.785  0.00  0.00    +0.000 C 
ATOM     21  O   UNL     1       4.946   4.028  16.036  0.00  0.00    +0.000 OA
ATOM     22  H   UNL     1       8.107   4.328  16.478  0.00  0.00    +0.000 HD
BRANCH  20  23
ATOM     23  C   UNL     1       6.621   4.307  14.372  0.00  0.00    +0.000 A 
ATOM     24  C   UNL     1       6.076   3.517  13.379  0.00  0.00    +0.000 A 
ATOM     25  N   UNL     1       6.459   3.623  12.077  0.00  0.00    +0.000 NA
ATOM     26  C   UNL     1       7.402   4.552  11.822  0.00  0.00    +0.000 A 
ATOM     27  C   UNL     1       7.955   5.346  12.822  0.00  0.00    +0.000 A 
ATOM     28  N   UNL     1       7.568   5.262  14.121  0.00  0.00    +0.000 NA
ENDBRANCH  20  23
ENDBRANCH  17  19
ENDBRANCH  15  17
ENDBRANCH   3  15
TORSDOF 7
ENDMDL
MODEL 8
REMARK VINA RESULT:      -7.9      1.111      1.682
REMARK  Name = 
REMARK  8 active torsions:
REMARK  status: ('A' for Active; 'I' for Inactive)
REMARK    1  A    between atoms: C_1  and  O_2
REMARK    2  A    between atoms: O_2  and  C_3
REMARK    3  A    between atoms: C_6  and  C_7
REMARK    4  A    between atoms: C_8  and  C_9
REMARK    5  A    between atoms: N_11  and  C_12
REMARK    6  A    between atoms: C_12  and  N_14
REMARK    7  A    between atoms: N_14  and  N_15
REMARK    8  A    between atoms: C_16  and  C_18
REMARK                            x       y       z     vdW  Elec       q    Type
REMARK                         _______ _______ _______ _____ _____    ______ ____
ROOT
ATOM      1  C   UNL     1       6.394   7.326  17.163  0.00  0.00    +0.000 C 
ATOM      2  O   UNL     1       5.246   7.010  17.476  0.00  0.00    +0.000 OA
ATOM      3  N   UNL     1       7.320   6.452  16.600  0.00  0.00    +0.000 N 
ATOM      4  H   UNL     1       8.245   6.793  16.414  0.00  0.00    +0.000 HD
ENDROOT
BRANCH   1   6
ATOM      5  C   UNL     1       8.161   8.756  18.060  0.00  0.00    +0.000 C 
ATOM      6  C   UNL     1       6.929   8.682  17.507  0.00  0.00    +0.000 C 
BRANCH   5  10
ATOM      7  C   UNL     1      10.166  12.363  19.298  0.00  0.00    +0.000 A 
ATOM      8  C   UNL     1       9.596  12.254  18.030  0.00  0.00    +0.000 A 
ATOM      9  C   UNL     1       8.930  11.077  17.648  0.00  0.00    +0.000 A 
ATOM     10  C   UNL     1       8.871   9.968  18.506  0.00  0.00    +0.000 A 
ATOM     11  C   UNL     1       9.446  10.092  19.778  0.00  0.00    +0.000 A 
ATOM     12  C   UNL     1      10.096  11.278  20.165  0.00  0.00    +0.000 A 
BRANCH   7  14
ATOM     13  C   UNL     1      10.160  14.714  19.041  0.00  0.00    +0.000 C 
ATOM     14  O   UNL     1      10.793  13.551  19.563  0.00  0.00    +0.000 OA
ENDBRANCH   7  14
ENDBRANCH   5  10
ENDBRANCH   1   6
BRANCH   3  15
ATOM     15  C   UNL     1       7.105   5.190  16.056  0.00  0.00    +0.000 C 
ATOM     16  S   UNL     1       7.103   4.741  14.451  0.00  0.00    +0.000 S 
BRANCH  15  17
ATOM     17  N   UNL     1       6.880   4.236  17.041  0.00  0.00    +0.000 N 
ATOM     18  H   UNL     1       7.600   3.532  17.229  0.00  0.00    +0.000 HD
BRANCH  17  19
ATOM     19  N   UNL     1       5.553   3.863  17.323  0.00  0.00    +0.000 N 
ATOM     20  C   UNL     1       5.089   3.890  18.624  0.00  0.00    +0.000 C 
ATOM     21  O   UNL     1       5.772   4.204  19.588  0.00  0.00    +0.000 OA
ATOM     22  H   UNL     1       4.950   3.546  16.560  0.00  0.00    +0.000 HD
BRANCH  20  23
ATOM     23  C   UNL     1       3.644   3.517  18.782  0.00  0.00    +0.000 A 
ATOM     24  C   UNL     1       3.257   2.679  19.809  0.00  0.00    +0.000 A 
ATOM     25  N   UNL     1       1.956   2.338  20.016  0.00  0.00    +0.000 NA
ATOM     26  C   UNL     1       1.070   2.878  19.154  0.00  0.00    +0.000 A 
ATOM     27  C   UNL     1       1.458   3.719  18.117  0.00  0.00    +0.000 A 
ATOM     28  N   UNL     1       2.751   4.080  17.912  0.00  0.00    +0.000 NA
ENDBRANCH  20  23
ENDBRANCH  17  19
ENDBRANCH  15  17
ENDBRANCH   3  15
TORSDOF 7
ENDMDL
MODEL 9
REMARK VINA RESULT:      -7.9      1.441      1.511
REMARK  Name = 
REMARK  8 active torsions:
REMARK  status: ('A' for Active; 'I' for Inactive)
REMARK    1  A    between atoms: C_1  and  O_2
REMARK    2  A    between atoms: O_2  and  C_3
REMARK    3  A    between atoms: C_6  and  C_7
REMARK    4  A    between atoms: C_8  and  C_9
REMARK    5  A    between atoms: N_11  and  C_12
REMARK    6  A    between atoms: C_12  and  N_14
REMARK    7  A    between atoms: N_14  and  N_15
REMARK    8  A    between atoms: C_16  and  C_18
REMARK                            x       y       z     vdW  Elec       q    Type
REMARK                         _______ _______ _______ _____ _____    ______ ____
ROOT
ATOM      1  C   UNL     1       7.606   7.458  17.773  0.00  0.00    +0.000 C 
ATOM      2  O   UNL     1       7.979   6.678  18.649  0.00  0.00    +0.000 OA
ATOM      3  N   UNL     1       6.852   7.087  16.663  0.00  0.00    +0.000 N 
ATOM      4  H   UNL     1       6.628   7.790  15.983  0.00  0.00    +0.000 HD
ENDROOT
BRANCH   1   6
ATOM      5  C   UNL     1       8.830   9.300  18.815  0.00  0.00    +0.000 C 
ATOM      6  C   UNL     1       8.074   8.882  17.774  0.00  0.00    +0.000 C 
BRANCH   5  10
ATOM      7  C   UNL     1      10.498  13.204  19.544  0.00  0.00    +0.000 A 
ATOM      8  C   UNL     1      10.608  12.185  20.490  0.00  0.00    +0.000 A 
ATOM      9  C   UNL     1      10.073  10.912  20.230  0.00  0.00    +0.000 A 
ATOM     10  C   UNL     1       9.371  10.651  19.044  0.00  0.00    +0.000 A 
ATOM     11  C   UNL     1       9.270  11.684  18.101  0.00  0.00    +0.000 A 
ATOM     12  C   UNL     1       9.822  12.952  18.356  0.00  0.00    +0.000 A 
BRANCH   7  14
ATOM     13  C   UNL     1      10.359  15.124  20.920  0.00  0.00    +0.000 C 
ATOM     14  O   UNL     1      11.050  14.404  19.903  0.00  0.00    +0.000 OA
ENDBRANCH   7  14
ENDBRANCH   5  10
ENDBRANCH   1   6
BRANCH   3  15
ATOM     15  C   UNL     1       6.169   5.897  16.436  0.00  0.00    +0.000 C 
ATOM     16  S   UNL     1       6.796   4.394  16.083  0.00  0.00    +0.000 S 
BRANCH  15  17
ATOM     17  N   UNL     1       4.794   6.063  16.545  0.00  0.00    +0.000 N 
ATOM     18  H   UNL     1       4.343   6.840  16.053  0.00  0.00    +0.000 HD
BRANCH  17  19
ATOM     19  N   UNL     1       4.154   5.608  17.713  0.00  0.00    +0.000 N 
ATOM     20  C   UNL     1       3.523   4.378  17.722  0.00  0.00    +0.000 C 
ATOM     21  O   UNL     1       3.456   3.637  16.752  0.00  0.00    +0.000 OA
ATOM     22  H   UNL     1       4.138   6.209  18.541  0.00  0.00    +0.000 HD
BRANCH  20  23
ATOM     23  C   UNL     1       2.923   3.991  19.041  0.00  0.00    +0.000 A 
ATOM     24  C   UNL     1       1.701   4.510  19.422  0.00  0.00    +0.000 A 
ATOM     25  N   UNL     1       1.100   4.163  20.592  0.00  0.00    +0.000 NA
ATOM     26  C   UNL     1       1.773   3.276  21.352  0.00  0.00    +0.000 A 
ATOM     27  C   UNL     1       3.006   2.755  20.972  0.00  0.00    +0.000 A 
ATOM     28  N   UNL     1       3.608   3.081  19.799  0.00  0.00    +0.000 NA
ENDBRANCH  20  23
ENDBRANCH  17  19
ENDBRANCH  15  17
ENDBRANCH   3  15
TORSDOF 7
ENDMDL
