MODEL 1
REMARK VINA RESULT:      -7.8      0.000      0.000
REMARK  Name = 
REMARK  4 active torsions:
REMARK  status: ('A' for Active; 'I' for Inactive)
REMARK    1  A    between atoms: C_1  and  C_2
REMARK    2  A    between atoms: C_2  and  O_3
REMARK    3  A    between atoms: O_3  and  C_4
REMARK    4  A    between atoms: C_4  and  C_6
REMARK                            x       y       z     vdW  Elec       q    Type
REMARK                         _______ _______ _______ _____ _____    ______ ____
ROOT
ATOM      1  C   UNL     1       5.906   4.753  16.851  0.00  0.00    +0.000 C 
ATOM      2  N   UNL     1       5.372   5.915  16.068  0.00  0.00    +0.000 NA
ATOM      3  C   UNL     1       4.602   6.878  16.886  0.00  0.00    +0.000 C 
ATOM      4  C   UNL     1       3.365   6.237  17.558  0.00  0.00    +0.000 C 
ATOM      5  C   UNL     1       3.812   5.044  18.321  0.00  0.00    +0.000 A 
ATOM      6  C   UNL     1       4.995   4.410  17.996  0.00  0.00    +0.000 A 
ATOM      7  N   UNL     1       5.201   3.418  18.918  0.00  0.00    +0.000 N 
ATOM      8  C   UNL     1       4.106   3.322  19.753  0.00  0.00    +0.000 A 
ATOM      9  C   UNL     1       3.837   2.418  20.789  0.00  0.00    +0.000 A 
ATOM     10  C   UNL     1       2.619   2.549  21.463  0.00  0.00    +0.000 A 
ATOM     11  C   UNL     1       1.718   3.558  21.133  0.00  0.00    +0.000 A 
ATOM     12  C   UNL     1       2.011   4.469  20.112  0.00  0.00    +0.000 A 
ATOM     13  C   UNL     1       3.219   4.343  19.400  0.00  0.00    +0.000 A 
ATOM     14  H   UNL     1       4.737   5.528  15.372  0.00  0.00    +0.000 HD
ATOM     15  H   UNL     1       6.034   2.846  18.991  0.00  0.00    +0.000 HD
ENDROOT
BRANCH   1  16
ATOM     16  C   UNL     1       7.366   4.969  17.294  0.00  0.00    +0.000 C 
ATOM     17  O   UNL     1       8.128   4.088  17.682  0.00  0.00    +0.000 OA
BRANCH  16  18
ATOM     18  O   UNL     1       7.739   6.271  17.087  0.00  0.00    +0.000 OA
BRANCH  18  20
ATOM     19  C   UNL     1       8.009   8.518  17.857  0.00  0.00    +0.000 C 
ATOM     20  C   UNL     1       7.950   7.059  18.265  0.00  0.00    +0.000 C 
ENDBRANCH  18  20
ENDBRANCH  16  18
ENDBRANCH   1  16
TORSDOF 3
ENDMDL
MODEL 2
REMARK VINA RESULT:      -7.8      1.661      1.787
REMARK  Name = 
REMARK  4 active torsions:
REMARK  status: ('A' for Active; 'I' for Inactive)
REMARK    1  A    between atoms: C_1  and  C_2
REMARK    2  A    between atoms: C_2  and  O_3
REMARK    3  A    between atoms: O_3  and  C_4
REMARK    4  A    between atoms: C_4  and  C_6
REMARK                            x       y       z     vdW  Elec       q    Type
REMARK                         _______ _______ _______ _____ _____    ______ ____
ROOT
ATOM      1  C   UNL     1       5.403   5.157  15.825  0.00  0.00    +0.000 C 
ATOM      2  N   UNL     1       5.239   6.645  15.751  0.00  0.00    +0.000 NA
ATOM      3  C   UNL     1       4.834   7.262  17.034  0.00  0.00    +0.000 C 
ATOM      4  C   UNL     1       3.479   6.729  17.552  0.00  0.00    +0.000 C 
ATOM      5  C   UNL     1       3.550   5.247  17.610  0.00  0.00    +0.000 A 
ATOM      6  C   UNL     1       4.464   4.560  16.835  0.00  0.00    +0.000 A 
ATOM      7  N   UNL     1       4.373   3.234  17.164  0.00  0.00    +0.000 N 
ATOM      8  C   UNL     1       3.328   3.041  18.045  0.00  0.00    +0.000 A 
ATOM      9  C   UNL     1       2.818   1.858  18.595  0.00  0.00    +0.000 A 
ATOM     10  C   UNL     1       1.723   1.965  19.458  0.00  0.00    +0.000 A 
ATOM     11  C   UNL     1       1.176   3.205  19.777  0.00  0.00    +0.000 A 
ATOM     12  C   UNL     1       1.711   4.380  19.238  0.00  0.00    +0.000 A 
ATOM     13  C   UNL     1       2.797   4.298  18.346  0.00  0.00    +0.000 A 
ATOM     14  H   UNL     1       4.495   6.822  15.078  0.00  0.00    +0.000 HD
ATOM     15  H   UNL     1       4.986   2.501  16.826  0.00  0.00    +0.000 HD
ENDROOT
BRANCH   1  16
ATOM     16  C   UNL     1       6.869   4.741  16.055  0.00  0.00    +0.000 C 
ATOM     17  O   UNL     1       7.781   4.875  15.243  0.00  0.00    +0.000 OA
BRANCH  16  18
ATOM     18  O   UNL     1       7.044   4.303  17.341  0.00  0.00    +0.000 OA
BRANCH  18  20
ATOM     19  C   UNL     1       6.885   5.471  19.421  0.00  0.00    +0.000 C 
ATOM     20  C   UNL     1       7.758   5.186  18.214  0.00  0.00    +0.000 C 
ENDBRANCH  18  20
ENDBRANCH  16  18
ENDBRANCH   1  16
TORSDOF 3
ENDMDL
MODEL 3
REMARK VINA RESULT:      -7.7      2.634      5.295
REMARK  Name = 
REMARK  4 active torsions:
REMARK  status: ('A' for Active; 'I' for Inactive)
REMARK    1  A    between atoms: C_1  and  C_2
REMARK    2  A    between atoms: C_2  and  O_3
REMARK    3  A    between atoms: O_3  and  C_4
REMARK    4  A    between atoms: C_4  and  C_6
REMARK                            x       y       z     vdW  Elec       q    Type
REMARK                         _______ _______ _______ _____ _____    ______ ____
ROOT
ATOM      1  C   UNL     1       6.308   6.046  17.606  0.00  0.00    +0.000 C 
ATOM      2  N   UNL     1       5.100   5.562  18.350  0.00  0.00    +0.000 NA
ATOM      3  C   UNL     1       4.710   4.175  18.011  0.00  0.00    +0.000 C 
ATOM      4  C   UNL     1       4.364   3.999  16.515  0.00  0.00    +0.000 C 
ATOM      5  C   UNL     1       5.505   4.503  15.708  0.00  0.00    +0.000 A 
ATOM      6  C   UNL     1       6.395   5.410  16.247  0.00  0.00    +0.000 A 
ATOM      7  N   UNL     1       7.387   5.616  15.325  0.00  0.00    +0.000 N 
ATOM      8  C   UNL     1       7.080   4.954  14.153  0.00  0.00    +0.000 A 
ATOM      9  C   UNL     1       7.755   4.933  12.926  0.00  0.00    +0.000 A 
ATOM     10  C   UNL     1       7.193   4.178  11.891  0.00  0.00    +0.000 A 
ATOM     11  C   UNL     1       6.019   3.454  12.084  0.00  0.00    +0.000 A 
ATOM     12  C   UNL     1       5.369   3.466  13.323  0.00  0.00    +0.000 A 
ATOM     13  C   UNL     1       5.900   4.239  14.373  0.00  0.00    +0.000 A 
ATOM     14  H   UNL     1       4.329   6.171  18.079  0.00  0.00    +0.000 HD
ATOM     15  H   UNL     1       8.228   6.160  15.477  0.00  0.00    +0.000 HD
ENDROOT
BRANCH   1  16
ATOM     16  C   UNL     1       7.603   5.882  18.426  0.00  0.00    +0.000 C 
ATOM     17  O   UNL     1       8.133   4.811  18.709  0.00  0.00    +0.000 OA
BRANCH  16  18
ATOM     18  O   UNL     1       8.149   7.107  18.702  0.00  0.00    +0.000 OA
BRANCH  18  20
ATOM     19  C   UNL     1       8.517   9.426  18.250  0.00  0.00    +0.000 C 
ATOM     20  C   UNL     1       7.895   8.140  17.742  0.00  0.00    +0.000 C 
ENDBRANCH  18  20
ENDBRANCH  16  18
ENDBRANCH   1  16
TORSDOF 3
ENDMDL
MODEL 4
REMARK VINA RESULT:      -7.7      1.661      1.979
REMARK  Name = 
REMARK  4 active torsions:
REMARK  status: ('A' for Active; 'I' for Inactive)
REMARK    1  A    between atoms: C_1  and  C_2
REMARK    2  A    between atoms: C_2  and  O_3
REMARK    3  A    between atoms: O_3  and  C_4
REMARK    4  A    between atoms: C_4  and  C_6
REMARK                            x       y       z     vdW  Elec       q    Type
REMARK                         _______ _______ _______ _____ _____    ______ ____
ROOT
ATOM      1  C   UNL     1       7.228   4.625  17.712  0.00  0.00    +0.000 C 
ATOM      2  N   UNL     1       7.393   4.889  16.246  0.00  0.00    +0.000 NA
ATOM      3  C   UNL     1       6.147   5.323  15.577  0.00  0.00    +0.000 C 
ATOM      4  C   UNL     1       5.017   4.272  15.677  0.00  0.00    +0.000 C 
ATOM      5  C   UNL     1       4.826   3.925  17.108  0.00  0.00    +0.000 A 
ATOM      6  C   UNL     1       5.843   4.131  18.019  0.00  0.00    +0.000 A 
ATOM      7  N   UNL     1       5.357   3.819  19.261  0.00  0.00    +0.000 N 
ATOM      8  C   UNL     1       4.085   3.295  19.147  0.00  0.00    +0.000 A 
ATOM      9  C   UNL     1       3.231   2.777  20.129  0.00  0.00    +0.000 A 
ATOM     10  C   UNL     1       1.988   2.290  19.715  0.00  0.00    +0.000 A 
ATOM     11  C   UNL     1       1.604   2.342  18.377  0.00  0.00    +0.000 A 
ATOM     12  C   UNL     1       2.458   2.884  17.411  0.00  0.00    +0.000 A 
ATOM     13  C   UNL     1       3.726   3.358  17.798  0.00  0.00    +0.000 A 
ATOM     14  H   UNL     1       7.676   4.007  15.822  0.00  0.00    +0.000 HD
ATOM     15  H   UNL     1       5.846   3.962  20.137  0.00  0.00    +0.000 HD
ENDROOT
BRANCH   1  16
ATOM     16  C   UNL     1       7.634   5.837  18.573  0.00  0.00    +0.000 C 
ATOM     17  O   UNL     1       7.575   5.890  19.798  0.00  0.00    +0.000 OA
BRANCH  16  18
ATOM     18  O   UNL     1       8.182   6.817  17.788  0.00  0.00    +0.000 OA
BRANCH  18  20
ATOM     19  C   UNL     1       8.363   9.178  18.116  0.00  0.00    +0.000 C 
ATOM     20  C   UNL     1       7.445   8.043  17.707  0.00  0.00    +0.000 C 
ENDBRANCH  18  20
ENDBRANCH  16  18
ENDBRANCH   1  16
TORSDOF 3
ENDMDL
MODEL 5
REMARK VINA RESULT:      -7.6      2.058      2.751
REMARK  Name = 
REMARK  4 active torsions:
REMARK  status: ('A' for Active; 'I' for Inactive)
REMARK    1  A    between atoms: C_1  and  C_2
REMARK    2  A    between atoms: C_2  and  O_3
REMARK    3  A    between atoms: O_3  and  C_4
REMARK    4  A    between atoms: C_4  and  C_6
REMARK                            x       y       z     vdW  Elec       q    Type
REMARK                         _______ _______ _______ _____ _____    ______ ____
ROOT
ATOM      1  C   UNL     1       5.369   5.176  15.672  0.00  0.00    +0.000 C 
ATOM      2  N   UNL     1       5.325   6.675  15.697  0.00  0.00    +0.000 NA
ATOM      3  C   UNL     1       5.134   7.240  17.051  0.00  0.00    +0.000 C 
ATOM      4  C   UNL     1       3.812   6.783  17.710  0.00  0.00    +0.000 C 
ATOM      5  C   UNL     1       3.763   5.299  17.680  0.00  0.00    +0.000 A 
ATOM      6  C   UNL     1       4.513   4.593  16.760  0.00  0.00    +0.000 A 
ATOM      7  N   UNL     1       4.351   3.260  17.028  0.00  0.00    +0.000 N 
ATOM      8  C   UNL     1       3.410   3.094  18.024  0.00  0.00    +0.000 A 
ATOM      9  C   UNL     1       2.872   1.922  18.572  0.00  0.00    +0.000 A 
ATOM     10  C   UNL     1       1.904   2.060  19.572  0.00  0.00    +0.000 A 
ATOM     11  C   UNL     1       1.508   3.317  20.022  0.00  0.00    +0.000 A 
ATOM     12  C   UNL     1       2.071   4.478  19.482  0.00  0.00    +0.000 A 
ATOM     13  C   UNL     1       3.029   4.367  18.456  0.00  0.00    +0.000 A 
ATOM     14  H   UNL     1       4.521   6.951  15.134  0.00  0.00    +0.000 HD
ATOM     15  H   UNL     1       4.853   2.503  16.577  0.00  0.00    +0.000 HD
ENDROOT
BRANCH   1  16
ATOM     16  C   UNL     1       6.812   4.635  15.691  0.00  0.00    +0.000 C 
ATOM     17  O   UNL     1       7.486   4.446  16.700  0.00  0.00    +0.000 OA
BRANCH  16  18
ATOM     18  O   UNL     1       7.205   4.281  14.428  0.00  0.00    +0.000 OA
BRANCH  18  20
ATOM     19  C   UNL     1       6.760   3.632  12.169  0.00  0.00    +0.000 C 
ATOM     20  C   UNL     1       6.167   3.823  13.552  0.00  0.00    +0.000 C 
ENDBRANCH  18  20
ENDBRANCH  16  18
ENDBRANCH   1  16
TORSDOF 3
ENDMDL
MODEL 6
REMARK VINA RESULT:      -7.5      1.350      1.350
REMARK  Name = 
REMARK  4 active torsions:
REMARK  status: ('A' for Active; 'I' for Inactive)
REMARK    1  A    between atoms: C_1  and  C_2
REMARK    2  A    between atoms: C_2  and  O_3
REMARK    3  A    between atoms: O_3  and  C_4
REMARK    4  A    between atoms: C_4  and  C_6
REMARK                            x       y       z     vdW  Elec       q    Type
REMARK                         _______ _______ _______ _____ _____    ______ ____
ROOT
ATOM      1  C   UNL     1       5.540   5.524  16.145  0.00  0.00    +0.000 C 
ATOM      2  N   UNL     1       5.105   6.952  16.002  0.00  0.00    +0.000 NA
ATOM      3  C   UNL     1       4.378   7.471  17.182  0.00  0.00    +0.000 C 
ATOM      4  C   UNL     1       3.086   6.680  17.485  0.00  0.00    +0.000 C 
ATOM      5  C   UNL     1       3.434   5.240  17.597  0.00  0.00    +0.000 A 
ATOM      6  C   UNL     1       4.580   4.750  17.003  0.00  0.00    +0.000 A 
ATOM      7  N   UNL     1       4.696   3.431  17.351  0.00  0.00    +0.000 N 
ATOM      8  C   UNL     1       3.577   3.032  18.053  0.00  0.00    +0.000 A 
ATOM      9  C   UNL     1       3.222   1.770  18.546  0.00  0.00    +0.000 A 
ATOM     10  C   UNL     1       1.999   1.655  19.213  0.00  0.00    +0.000 A 
ATOM     11  C   UNL     1       1.175   2.762  19.402  0.00  0.00    +0.000 A 
ATOM     12  C   UNL     1       1.553   4.022  18.924  0.00  0.00    +0.000 A 
ATOM     13  C   UNL     1       2.768   4.159  18.227  0.00  0.00    +0.000 A 
ATOM     14  H   UNL     1       4.463   6.981  15.211  0.00  0.00    +0.000 HD
ATOM     15  H   UNL     1       5.488   2.834  17.141  0.00  0.00    +0.000 HD
ENDROOT
BRANCH   1  16
ATOM     16  C   UNL     1       7.000   5.405  16.625  0.00  0.00    +0.000 C 
ATOM     17  O   UNL     1       7.593   4.351  16.839  0.00  0.00    +0.000 OA
BRANCH  16  18
ATOM     18  O   UNL     1       7.588   6.641  16.674  0.00  0.00    +0.000 OA
BRANCH  18  20
ATOM     19  C   UNL     1       8.069   8.653  17.873  0.00  0.00    +0.000 C 
ATOM     20  C   UNL     1       7.861   7.156  17.983  0.00  0.00    +0.000 C 
ENDBRANCH  18  20
ENDBRANCH  16  18
ENDBRANCH   1  16
TORSDOF 3
ENDMDL
MODEL 7
REMARK VINA RESULT:      -7.3      2.450      3.482
REMARK  Name = 
REMARK  4 active torsions:
REMARK  status: ('A' for Active; 'I' for Inactive)
REMARK    1  A    between atoms: C_1  and  C_2
REMARK    2  A    between atoms: C_2  and  O_3
REMARK    3  A    between atoms: O_3  and  C_4
REMARK    4  A    between atoms: C_4  and  C_6
REMARK                            x       y       z     vdW  Elec       q    Type
REMARK                         _______ _______ _______ _____ _____    ______ ____
ROOT
ATOM      1  C   UNL     1       5.898   5.781  16.004  0.00  0.00    +0.000 C 
ATOM      2  N   UNL     1       6.874   6.581  16.812  0.00  0.00    +0.000 NA
ATOM      3  C   UNL     1       7.385   5.866  18.003  0.00  0.00    +0.000 C 
ATOM      4  C   UNL     1       6.264   5.473  18.992  0.00  0.00    +0.000 C 
ATOM      5  C   UNL     1       5.229   4.711  18.247  0.00  0.00    +0.000 A 
ATOM      6  C   UNL     1       5.111   4.847  16.878  0.00  0.00    +0.000 A 
ATOM      7  N   UNL     1       4.156   3.962  16.454  0.00  0.00    +0.000 N 
ATOM      8  C   UNL     1       3.568   3.351  17.543  0.00  0.00    +0.000 A 
ATOM      9  C   UNL     1       2.508   2.437  17.603  0.00  0.00    +0.000 A 
ATOM     10  C   UNL     1       2.106   1.993  18.867  0.00  0.00    +0.000 A 
ATOM     11  C   UNL     1       2.753   2.425  20.021  0.00  0.00    +0.000 A 
ATOM     12  C   UNL     1       3.826   3.320  19.945  0.00  0.00    +0.000 A 
ATOM     13  C   UNL     1       4.234   3.802  18.686  0.00  0.00    +0.000 A 
ATOM     14  H   UNL     1       6.372   7.404  17.142  0.00  0.00    +0.000 HD
ATOM     15  H   UNL     1       3.919   3.769  15.488  0.00  0.00    +0.000 HD
ENDROOT
BRANCH   1  16
ATOM     16  C   UNL     1       6.571   5.065  14.817  0.00  0.00    +0.000 C 
ATOM     17  O   UNL     1       7.762   5.141  14.525  0.00  0.00    +0.000 OA
BRANCH  16  18
ATOM     18  O   UNL     1       5.679   4.234  14.194  0.00  0.00    +0.000 OA
BRANCH  18  20
ATOM     19  C   UNL     1       4.959   3.412  12.067  0.00  0.00    +0.000 C 
ATOM     20  C   UNL     1       6.143   3.599  12.996  0.00  0.00    +0.000 C 
ENDBRANCH  18  20
ENDBRANCH  16  18
ENDBRANCH   1  16
TORSDOF 3
ENDMDL
MODEL 8
REMARK VINA RESULT:      -7.3      1.567      2.060
REMARK  Name = 
REMARK  4 active torsions:
REMARK  status: ('A' for Active; 'I' for Inactive)
REMARK    1  A    between atoms: C_1  and  C_2
REMARK    2  A    between atoms: C_2  and  O_3
REMARK    3  A    between atoms: O_3  and  C_4
REMARK    4  A    between atoms: C_4  and  C_6
REMARK                            x       y       z     vdW  Elec       q    Type
REMARK                         _______ _______ _______ _____ _____    ______ ____
ROOT
ATOM      1  C   UNL     1       5.527   5.127  16.176  0.00  0.00    +0.000 C 
ATOM      2  N   UNL     1       5.143   6.517  15.766  0.00  0.00    +0.000 NA
ATOM      3  C   UNL     1       4.841   7.410  16.906  0.00  0.00    +0.000 C 
ATOM      4  C   UNL     1       3.665   6.901  17.770  0.00  0.00    +0.000 C 
ATOM      5  C   UNL     1       3.956   5.503  18.180  0.00  0.00    +0.000 A 
ATOM      6  C   UNL     1       4.838   4.731  17.451  0.00  0.00    +0.000 A 
ATOM      7  N   UNL     1       4.987   3.539  18.108  0.00  0.00    +0.000 N 
ATOM      8  C   UNL     1       4.118   3.484  19.179  0.00  0.00    +0.000 A 
ATOM      9  C   UNL     1       3.867   2.446  20.087  0.00  0.00    +0.000 A 
ATOM     10  C   UNL     1       2.903   2.668  21.075  0.00  0.00    +0.000 A 
ATOM     11  C   UNL     1       2.235   3.887  21.168  0.00  0.00    +0.000 A 
ATOM     12  C   UNL     1       2.513   4.923  20.269  0.00  0.00    +0.000 A 
ATOM     13  C   UNL     1       3.461   4.715  19.249  0.00  0.00    +0.000 A 
ATOM     14  H   UNL     1       4.292   6.430  15.211  0.00  0.00    +0.000 HD
ATOM     15  H   UNL     1       5.644   2.808  17.861  0.00  0.00    +0.000 HD
ENDROOT
BRANCH   1  16
ATOM     16  C   UNL     1       7.056   4.939  16.240  0.00  0.00    +0.000 C 
ATOM     17  O   UNL     1       7.673   4.455  17.186  0.00  0.00    +0.000 OA
BRANCH  16  18
ATOM     18  O   UNL     1       7.629   5.284  15.045  0.00  0.00    +0.000 OA
BRANCH  18  20
ATOM     19  C   UNL     1       7.780   5.217  12.660  0.00  0.00    +0.000 C 
ATOM     20  C   UNL     1       7.086   4.648  13.882  0.00  0.00    +0.000 C 
ENDBRANCH  18  20
ENDBRANCH  16  18
ENDBRANCH   1  16
TORSDOF 3
ENDMDL
MODEL 9
REMARK VINA RESULT:      -7.1      1.937      2.618
REMARK  Name = 
REMARK  4 active torsions:
REMARK  status: ('A' for Active; 'I' for Inactive)
REMARK    1  A    between atoms: C_1  and  C_2
REMARK    2  A    between atoms: C_2  and  O_3
REMARK    3  A    between atoms: O_3  and  C_4
REMARK    4  A    between atoms: C_4  and  C_6
REMARK                            x       y       z     vdW  Elec       q    Type
REMARK                         _______ _______ _______ _____ _____    ______ ____
ROOT
ATOM      1  C   UNL     1       6.931   5.632  17.606  0.00  0.00    +0.000 C 
ATOM      2  N   UNL     1       7.606   4.892  16.490  0.00  0.00    +0.000 NA
ATOM      3  C   UNL     1       6.676   4.427  15.438  0.00  0.00    +0.000 C 
ATOM      4  C   UNL     1       5.600   3.457  15.977  0.00  0.00    +0.000 C 
ATOM      5  C   UNL     1       4.914   4.108  17.122  0.00  0.00    +0.000 A 
ATOM      6  C   UNL     1       5.535   5.123  17.824  0.00  0.00    +0.000 A 
ATOM      7  N   UNL     1       4.641   5.596  18.747  0.00  0.00    +0.000 N 
ATOM      8  C   UNL     1       3.501   4.818  18.736  0.00  0.00    +0.000 A 
ATOM      9  C   UNL     1       2.359   4.877  19.545  0.00  0.00    +0.000 A 
ATOM     10  C   UNL     1       1.353   3.934  19.316  0.00  0.00    +0.000 A 
ATOM     11  C   UNL     1       1.472   2.985  18.303  0.00  0.00    +0.000 A 
ATOM     12  C   UNL     1       2.608   2.953  17.487  0.00  0.00    +0.000 A 
ATOM     13  C   UNL     1       3.647   3.876  17.714  0.00  0.00    +0.000 A 
ATOM     14  H   UNL     1       8.034   4.067  16.907  0.00  0.00    +0.000 HD
ATOM     15  H   UNL     1       4.782   6.404  19.342  0.00  0.00    +0.000 HD
ENDROOT
BRANCH   1  16
ATOM     16  C   UNL     1       6.986   7.160  17.410  0.00  0.00    +0.000 C 
ATOM     17  O   UNL     1       6.157   7.827  16.797  0.00  0.00    +0.000 OA
BRANCH  16  18
ATOM     18  O   UNL     1       8.032   7.693  18.114  0.00  0.00    +0.000 OA
BRANCH  18  20
ATOM     19  C   UNL     1       9.051   9.612  19.114  0.00  0.00    +0.000 C 
ATOM     20  C   UNL     1       8.270   9.093  17.922  0.00  0.00    +0.000 C 
ENDBRANCH  18  20
ENDBRANCH  16  18
ENDBRANCH   1  16
TORSDOF 3
ENDMDL
