MODEL 1
REMARK VINA RESULT:      -9.2      0.000      0.000
REMARK  Name = 
REMARK  9 active torsions:
REMARK  status: ('A' for Active; 'I' for Inactive)
REMARK    1  A    between atoms: C_1  and  C_2
REMARK    2  A    between atoms: C_5  and  C_6
REMARK    3  A    between atoms: C_6  and  C_7
REMARK    4  A    between atoms: C_7  and  O_8
REMARK    5  A    between atoms: O_8  and  C_9
REMARK    6  A    between atoms: C_11  and  C_12
REMARK    7  A    between atoms: N_14  and  C_15
REMARK    8  A    between atoms: C_15  and  C_16
REMARK    9  A    between atoms: N_19  and  C_20
REMARK                            x       y       z     vdW  Elec       q    Type
REMARK                         _______ _______ _______ _____ _____    ______ ____
ROOT
ATOM      1  C   UNL     1       1.391   9.027  20.021  0.00  0.00    +0.000 A 
ATOM      2  C   UNL     1       1.443   7.734  20.551  0.00  0.00    +0.000 A 
ATOM      3  C   UNL     1       1.979   6.673  19.808  0.00  0.00    +0.000 A 
ATOM      4  C   UNL     1       2.515   6.917  18.538  0.00  0.00    +0.000 A 
ATOM      5  C   UNL     1       2.480   8.203  18.002  0.00  0.00    +0.000 A 
ATOM      6  C   UNL     1       1.914   9.246  18.741  0.00  0.00    +0.000 A 
ATOM      7  F   UNL     1       1.884  10.472  18.200  0.00  0.00    +0.000 F 
ENDROOT
BRANCH   3   8
ATOM      8  C   UNL     1       2.007   5.287  20.351  0.00  0.00    +0.000 C 
ATOM      9  O   UNL     1       2.341   5.094  21.513  0.00  0.00    +0.000 OA
ATOM     10  N   UNL     1       1.677   4.276  19.467  0.00  0.00    +0.000 N 
ATOM     11  H   UNL     1       1.480   4.484  18.501  0.00  0.00    +0.000 HD
BRANCH  10  12
ATOM     12  C   UNL     1       1.648   2.883  19.868  0.00  0.00    +0.000 C 
BRANCH  12  13
ATOM     13  C   UNL     1       2.687   2.035  19.113  0.00  0.00    +0.000 C 
ATOM     14  C   UNL     1       4.111   2.375  19.594  0.00  0.00    +0.000 C 
ATOM     15  C   UNL     1       4.609   3.731  19.077  0.00  0.00    +0.000 C 
ATOM     16  N   UNL     1       4.460   3.764  17.623  0.00  0.00    +0.000 N 
ATOM     17  C   UNL     1       3.096   3.564  17.122  0.00  0.00    +0.000 C 
ATOM     18  C   UNL     1       2.613   2.189  17.582  0.00  0.00    +0.000 C 
BRANCH  16  19
ATOM     19  C   UNL     1       5.478   4.191  16.788  0.00  0.00    +0.000 A 
ATOM     20  C   UNL     1       6.391   5.172  17.194  0.00  0.00    +0.000 A 
ATOM     21  C   UNL     1       7.371   5.617  16.317  0.00  0.00    +0.000 A 
ATOM     22  N   UNL     1       7.519   5.158  15.060  0.00  0.00    +0.000 NA
ATOM     23  C   UNL     1       6.644   4.211  14.675  0.00  0.00    +0.000 A 
ATOM     24  C   UNL     1       5.633   3.709  15.486  0.00  0.00    +0.000 A 
ENDBRANCH  16  19
ENDBRANCH  12  13
ENDBRANCH  10  12
ENDBRANCH   3   8
BRANCH   1  25
ATOM     25  O   UNL     1       0.858  10.113  20.676  0.00  0.00    +0.000 OA
BRANCH  25  26
ATOM     26  C   UNL     1      -0.566  10.124  20.810  0.00  0.00    +0.000 C 
BRANCH  26  27
ATOM     27  C   UNL     1      -1.156  11.388  20.191  0.00  0.00    +0.000 C 
BRANCH  27  32
ATOM     28  C   UNL     1      -3.824  10.205  15.138  0.00  0.00    +0.000 C 
ATOM     29  C   UNL     1      -3.117  10.521  16.424  0.00  0.00    +0.000 A 
ATOM     30  C   UNL     1      -1.940   9.858  16.782  0.00  0.00    +0.000 A 
ATOM     31  C   UNL     1      -1.307  10.138  17.998  0.00  0.00    +0.000 A 
ATOM     32  C   UNL     1      -1.845  11.083  18.881  0.00  0.00    +0.000 A 
ATOM     33  C   UNL     1      -3.012  11.764  18.510  0.00  0.00    +0.000 A 
ATOM     34  C   UNL     1      -3.642  11.483  17.294  0.00  0.00    +0.000 A 
ENDBRANCH  27  32
ENDBRANCH  26  27
ENDBRANCH  25  26
ENDBRANCH   1  25
TORSDOF 8
ENDMDL
MODEL 2
REMARK VINA RESULT:      -9.0      4.076      7.909
REMARK  Name = 
REMARK  9 active torsions:
REMARK  status: ('A' for Active; 'I' for Inactive)
REMARK    1  A    between atoms: C_1  and  C_2
REMARK    2  A    between atoms: C_5  and  C_6
REMARK    3  A    between atoms: C_6  and  C_7
REMARK    4  A    between atoms: C_7  and  O_8
REMARK    5  A    between atoms: O_8  and  C_9
REMARK    6  A    between atoms: C_11  and  C_12
REMARK    7  A    between atoms: N_14  and  C_15
REMARK    8  A    between atoms: C_15  and  C_16
REMARK    9  A    between atoms: N_19  and  C_20
REMARK                            x       y       z     vdW  Elec       q    Type
REMARK                         _______ _______ _______ _____ _____    ______ ____
ROOT
ATOM      1  C   UNL     1       7.101   5.830  16.438  0.00  0.00    +0.000 A 
ATOM      2  C   UNL     1       6.401   5.319  17.535  0.00  0.00    +0.000 A 
ATOM      3  C   UNL     1       5.629   4.154  17.417  0.00  0.00    +0.000 A 
ATOM      4  C   UNL     1       5.598   3.463  16.199  0.00  0.00    +0.000 A 
ATOM      5  C   UNL     1       6.301   3.955  15.101  0.00  0.00    +0.000 A 
ATOM      6  C   UNL     1       7.040   5.135  15.224  0.00  0.00    +0.000 A 
ATOM      7  F   UNL     1       7.700   5.592  14.150  0.00  0.00    +0.000 F 
ENDROOT
BRANCH   3   8
ATOM      8  C   UNL     1       4.852   3.621  18.570  0.00  0.00    +0.000 C 
ATOM      9  O   UNL     1       5.312   3.700  19.702  0.00  0.00    +0.000 OA
ATOM     10  N   UNL     1       3.641   3.026  18.271  0.00  0.00    +0.000 N 
ATOM     11  H   UNL     1       3.343   2.923  17.314  0.00  0.00    +0.000 HD
BRANCH  10  12
ATOM     12  C   UNL     1       2.778   2.481  19.300  0.00  0.00    +0.000 C 
BRANCH  12  13
ATOM     13  C   UNL     1       1.461   3.267  19.434  0.00  0.00    +0.000 C 
ATOM     14  C   UNL     1       1.200   4.100  18.163  0.00  0.00    +0.000 C 
ATOM     15  C   UNL     1       2.109   5.332  18.061  0.00  0.00    +0.000 C 
ATOM     16  N   UNL     1       1.999   6.103  19.299  0.00  0.00    +0.000 N 
ATOM     17  C   UNL     1       2.354   5.383  20.526  0.00  0.00    +0.000 C 
ATOM     18  C   UNL     1       1.415   4.186  20.669  0.00  0.00    +0.000 C 
BRANCH  16  19
ATOM     19  C   UNL     1       1.810   7.474  19.297  0.00  0.00    +0.000 A 
ATOM     20  C   UNL     1       1.320   8.144  20.425  0.00  0.00    +0.000 A 
ATOM     21  C   UNL     1       1.093   9.512  20.377  0.00  0.00    +0.000 A 
ATOM     22  N   UNL     1       1.317  10.275  19.290  0.00  0.00    +0.000 NA
ATOM     23  C   UNL     1       1.793   9.629  18.210  0.00  0.00    +0.000 A 
ATOM     24  C   UNL     1       2.049   8.263  18.169  0.00  0.00    +0.000 A 
ENDBRANCH  16  19
ENDBRANCH  12  13
ENDBRANCH  10  12
ENDBRANCH   3   8
BRANCH   1  25
ATOM     25  O   UNL     1       7.856   6.979  16.467  0.00  0.00    +0.000 OA
BRANCH  25  26
ATOM     26  C   UNL     1       7.424   7.987  17.384  0.00  0.00    +0.000 C 
BRANCH  26  27
ATOM     27  C   UNL     1       8.478   8.224  18.461  0.00  0.00    +0.000 C 
BRANCH  27  32
ATOM     28  C   UNL     1       9.649  13.911  19.042  0.00  0.00    +0.000 C 
ATOM     29  C   UNL     1       9.329  12.450  18.912  0.00  0.00    +0.000 A 
ATOM     30  C   UNL     1       9.691  11.541  19.911  0.00  0.00    +0.000 A 
ATOM     31  C   UNL     1       9.416  10.178  19.765  0.00  0.00    +0.000 A 
ATOM     32  C   UNL     1       8.780   9.697  18.613  0.00  0.00    +0.000 A 
ATOM     33  C   UNL     1       8.396  10.612  17.624  0.00  0.00    +0.000 A 
ATOM     34  C   UNL     1       8.672  11.975  17.772  0.00  0.00    +0.000 A 
ENDBRANCH  27  32
ENDBRANCH  26  27
ENDBRANCH  25  26
ENDBRANCH   1  25
TORSDOF 8
ENDMDL
MODEL 3
REMARK VINA RESULT:      -8.7      3.899      9.890
REMARK  Name = 
REMARK  9 active torsions:
REMARK  status: ('A' for Active; 'I' for Inactive)
REMARK    1  A    between atoms: C_1  and  C_2
REMARK    2  A    between atoms: C_5  and  C_6
REMARK    3  A    between atoms: C_6  and  C_7
REMARK    4  A    between atoms: C_7  and  O_8
REMARK    5  A    between atoms: O_8  and  C_9
REMARK    6  A    between atoms: C_11  and  C_12
REMARK    7  A    between atoms: N_14  and  C_15
REMARK    8  A    between atoms: C_15  and  C_16
REMARK    9  A    between atoms: N_19  and  C_20
REMARK                            x       y       z     vdW  Elec       q    Type
REMARK                         _______ _______ _______ _____ _____    ______ ____
ROOT
ATOM      1  C   UNL     1       3.322   4.029  17.847  0.00  0.00    +0.000 A 
ATOM      2  C   UNL     1       3.011   5.354  18.165  0.00  0.00    +0.000 A 
ATOM      3  C   UNL     1       2.463   5.685  19.413  0.00  0.00    +0.000 A 
ATOM      4  C   UNL     1       2.269   4.685  20.373  0.00  0.00    +0.000 A 
ATOM      5  C   UNL     1       2.586   3.361  20.073  0.00  0.00    +0.000 A 
ATOM      6  C   UNL     1       3.102   3.040  18.814  0.00  0.00    +0.000 A 
ATOM      7  F   UNL     1       3.389   1.759  18.547  0.00  0.00    +0.000 F 
ENDROOT
BRANCH   3   8
ATOM      8  C   UNL     1       2.097   7.090  19.747  0.00  0.00    +0.000 C 
ATOM      9  O   UNL     1       2.172   7.960  18.890  0.00  0.00    +0.000 OA
ATOM     10  N   UNL     1       1.717   7.329  21.055  0.00  0.00    +0.000 N 
ATOM     11  H   UNL     1       1.741   6.589  21.739  0.00  0.00    +0.000 HD
BRANCH  10  12
ATOM     12  C   UNL     1       1.319   8.645  21.511  0.00  0.00    +0.000 C 
BRANCH  12  13
ATOM     13  C   UNL     1      -0.188   8.899  21.326  0.00  0.00    +0.000 C 
ATOM     14  C   UNL     1      -0.419  10.133  20.432  0.00  0.00    +0.000 C 
ATOM     15  C   UNL     1      -0.124  11.455  21.151  0.00  0.00    +0.000 C 
ATOM     16  N   UNL     1      -0.881  11.490  22.402  0.00  0.00    +0.000 N 
ATOM     17  C   UNL     1      -0.604  10.396  23.339  0.00  0.00    +0.000 C 
ATOM     18  C   UNL     1      -0.951   9.076  22.652  0.00  0.00    +0.000 C 
BRANCH  16  19
ATOM     19  C   UNL     1      -1.622  12.595  22.784  0.00  0.00    +0.000 A 
ATOM     20  C   UNL     1      -1.012  13.726  23.339  0.00  0.00    +0.000 A 
ATOM     21  C   UNL     1      -1.786  14.799  23.759  0.00  0.00    +0.000 A 
ATOM     22  N   UNL     1      -3.129  14.838  23.668  0.00  0.00    +0.000 NA
ATOM     23  C   UNL     1      -3.712  13.752  23.128  0.00  0.00    +0.000 A 
ATOM     24  C   UNL     1      -3.015  12.635  22.683  0.00  0.00    +0.000 A 
ENDBRANCH  16  19
ENDBRANCH  12  13
ENDBRANCH  10  12
ENDBRANCH   3   8
BRANCH   1  25
ATOM     25  O   UNL     1       3.836   3.621  16.639  0.00  0.00    +0.000 OA
BRANCH  25  26
ATOM     26  C   UNL     1       5.222   3.900  16.424  0.00  0.00    +0.000 C 
BRANCH  26  27
ATOM     27  C   UNL     1       5.950   4.073  17.754  0.00  0.00    +0.000 C 
BRANCH  27  32
ATOM     28  C   UNL     1       8.472   9.323  18.110  0.00  0.00    +0.000 C 
ATOM     29  C   UNL     1       7.834   7.969  17.993  0.00  0.00    +0.000 A 
ATOM     30  C   UNL     1       6.786   7.740  17.097  0.00  0.00    +0.000 A 
ATOM     31  C   UNL     1       6.178   6.482  17.020  0.00  0.00    +0.000 A 
ATOM     32  C   UNL     1       6.604   5.432  17.844  0.00  0.00    +0.000 A 
ATOM     33  C   UNL     1       7.671   5.657  18.725  0.00  0.00    +0.000 A 
ATOM     34  C   UNL     1       8.277   6.915  18.800  0.00  0.00    +0.000 A 
ENDBRANCH  27  32
ENDBRANCH  26  27
ENDBRANCH  25  26
ENDBRANCH   1  25
TORSDOF 8
ENDMDL
MODEL 4
REMARK VINA RESULT:      -8.6      3.818     10.075
REMARK  Name = 
REMARK  9 active torsions:
REMARK  status: ('A' for Active; 'I' for Inactive)
REMARK    1  A    between atoms: C_1  and  C_2
REMARK    2  A    between atoms: C_5  and  C_6
REMARK    3  A    between atoms: C_6  and  C_7
REMARK    4  A    between atoms: C_7  and  O_8
REMARK    5  A    between atoms: O_8  and  C_9
REMARK    6  A    between atoms: C_11  and  C_12
REMARK    7  A    between atoms: N_14  and  C_15
REMARK    8  A    between atoms: C_15  and  C_16
REMARK    9  A    between atoms: N_19  and  C_20
REMARK                            x       y       z     vdW  Elec       q    Type
REMARK                         _______ _______ _______ _____ _____    ______ ____
ROOT
ATOM      1  C   UNL     1       2.466   4.964  18.491  0.00  0.00    +0.000 A 
ATOM      2  C   UNL     1       2.371   6.275  18.013  0.00  0.00    +0.000 A 
ATOM      3  C   UNL     1       2.031   7.330  18.871  0.00  0.00    +0.000 A 
ATOM      4  C   UNL     1       1.833   7.081  20.234  0.00  0.00    +0.000 A 
ATOM      5  C   UNL     1       1.935   5.781  20.726  0.00  0.00    +0.000 A 
ATOM      6  C   UNL     1       2.243   4.732  19.854  0.00  0.00    +0.000 A 
ATOM      7  F   UNL     1       2.326   3.490  20.350  0.00  0.00    +0.000 F 
ENDROOT
BRANCH   3   8
ATOM      8  C   UNL     1       1.895   8.724  18.364  0.00  0.00    +0.000 C 
ATOM      9  O   UNL     1       2.483   9.062  17.345  0.00  0.00    +0.000 OA
ATOM     10  N   UNL     1       1.115   9.578  19.121  0.00  0.00    +0.000 N 
ATOM     11  H   UNL     1       0.711   9.268  19.991  0.00  0.00    +0.000 HD
BRANCH  10  12
ATOM     12  C   UNL     1       0.885  10.956  18.734  0.00  0.00    +0.000 C 
BRANCH  12  13
ATOM     13  C   UNL     1       0.995  11.924  19.925  0.00  0.00    +0.000 C 
ATOM     14  C   UNL     1       0.614  11.210  21.237  0.00  0.00    +0.000 C 
ATOM     15  C   UNL     1      -0.895  10.970  21.369  0.00  0.00    +0.000 C 
ATOM     16  N   UNL     1      -1.594  12.239  21.170  0.00  0.00    +0.000 N 
ATOM     17  C   UNL     1      -1.353  12.899  19.882  0.00  0.00    +0.000 C 
ATOM     18  C   UNL     1       0.141  13.196  19.767  0.00  0.00    +0.000 C 
BRANCH  16  19
ATOM     19  C   UNL     1      -2.593  12.671  22.025  0.00  0.00    +0.000 A 
ATOM     20  C   UNL     1      -3.412  13.758  21.699  0.00  0.00    +0.000 A 
ATOM     21  C   UNL     1      -4.373  14.200  22.599  0.00  0.00    +0.000 A 
ATOM     22  N   UNL     1      -4.587  13.642  23.805  0.00  0.00    +0.000 NA
ATOM     23  C   UNL     1      -3.801  12.594  24.113  0.00  0.00    +0.000 A 
ATOM     24  C   UNL     1      -2.816  12.086  23.274  0.00  0.00    +0.000 A 
ENDBRANCH  16  19
ENDBRANCH  12  13
ENDBRANCH  10  12
ENDBRANCH   3   8
BRANCH   1  25
ATOM     25  O   UNL     1       2.767   3.873  17.709  0.00  0.00    +0.000 OA
BRANCH  25  26
ATOM     26  C   UNL     1       3.989   3.952  16.972  0.00  0.00    +0.000 C 
BRANCH  26  27
ATOM     27  C   UNL     1       5.190   3.816  17.902  0.00  0.00    +0.000 C 
BRANCH  27  32
ATOM     28  C   UNL     1       8.368   8.710  17.965  0.00  0.00    +0.000 C 
ATOM     29  C   UNL     1       7.561   7.444  17.924  0.00  0.00    +0.000 A 
ATOM     30  C   UNL     1       6.480   7.306  17.049  0.00  0.00    +0.000 A 
ATOM     31  C   UNL     1       5.716   6.135  17.042  0.00  0.00    +0.000 A 
ATOM     32  C   UNL     1       6.015   5.083  17.917  0.00  0.00    +0.000 A 
ATOM     33  C   UNL     1       7.113   5.213  18.777  0.00  0.00    +0.000 A 
ATOM     34  C   UNL     1       7.876   6.385  18.782  0.00  0.00    +0.000 A 
ENDBRANCH  27  32
ENDBRANCH  26  27
ENDBRANCH  25  26
ENDBRANCH   1  25
TORSDOF 8
ENDMDL
MODEL 5
REMARK VINA RESULT:      -8.6      3.887      9.710
REMARK  Name = 
REMARK  9 active torsions:
REMARK  status: ('A' for Active; 'I' for Inactive)
REMARK    1  A    between atoms: C_1  and  C_2
REMARK    2  A    between atoms: C_5  and  C_6
REMARK    3  A    between atoms: C_6  and  C_7
REMARK    4  A    between atoms: C_7  and  O_8
REMARK    5  A    between atoms: O_8  and  C_9
REMARK    6  A    between atoms: C_11  and  C_12
REMARK    7  A    between atoms: N_14  and  C_15
REMARK    8  A    between atoms: C_15  and  C_16
REMARK    9  A    between atoms: N_19  and  C_20
REMARK                            x       y       z     vdW  Elec       q    Type
REMARK                         _______ _______ _______ _____ _____    ______ ____
ROOT
ATOM      1  C   UNL     1       1.729   4.235  18.520  0.00  0.00    +0.000 A 
ATOM      2  C   UNL     1       1.951   5.537  18.061  0.00  0.00    +0.000 A 
ATOM      3  C   UNL     1       2.072   6.606  18.961  0.00  0.00    +0.000 A 
ATOM      4  C   UNL     1       2.019   6.363  20.339  0.00  0.00    +0.000 A 
ATOM      5  C   UNL     1       1.810   5.068  20.810  0.00  0.00    +0.000 A 
ATOM      6  C   UNL     1       1.659   4.016  19.901  0.00  0.00    +0.000 A 
ATOM      7  F   UNL     1       1.449   2.782  20.379  0.00  0.00    +0.000 F 
ENDROOT
BRANCH   3   8
ATOM      8  C   UNL     1       2.275   8.001  18.480  0.00  0.00    +0.000 C 
ATOM      9  O   UNL     1       3.217   8.260  17.743  0.00  0.00    +0.000 OA
ATOM     10  N   UNL     1       1.376   8.945  18.942  0.00  0.00    +0.000 N 
ATOM     11  H   UNL     1       0.661   8.691  19.605  0.00  0.00    +0.000 HD
BRANCH  10  12
ATOM     12  C   UNL     1       1.448  10.335  18.540  0.00  0.00    +0.000 C 
BRANCH  12  13
ATOM     13  C   UNL     1       0.117  11.078  18.760  0.00  0.00    +0.000 C 
ATOM     14  C   UNL     1       0.321  12.599  18.617  0.00  0.00    +0.000 C 
ATOM     15  C   UNL     1       1.048  13.220  19.816  0.00  0.00    +0.000 C 
ATOM     16  N   UNL     1       0.348  12.836  21.042  0.00  0.00    +0.000 N 
ATOM     17  C   UNL     1       0.236  11.394  21.281  0.00  0.00    +0.000 C 
ATOM     18  C   UNL     1      -0.540  10.774  20.120  0.00  0.00    +0.000 C 
BRANCH  16  19
ATOM     19  C   UNL     1       0.028  13.757  22.025  0.00  0.00    +0.000 A 
ATOM     20  C   UNL     1      -0.944  13.480  22.993  0.00  0.00    +0.000 A 
ATOM     21  C   UNL     1      -1.281  14.442  23.936  0.00  0.00    +0.000 A 
ATOM     22  N   UNL     1      -0.722  15.666  23.994  0.00  0.00    +0.000 NA
ATOM     23  C   UNL     1       0.216  15.926  23.065  0.00  0.00    +0.000 A 
ATOM     24  C   UNL     1       0.613  15.024  22.086  0.00  0.00    +0.000 A 
ENDBRANCH  16  19
ENDBRANCH  12  13
ENDBRANCH  10  12
ENDBRANCH   3   8
BRANCH   1  25
ATOM     25  O   UNL     1       1.573   3.141  17.702  0.00  0.00    +0.000 OA
BRANCH  25  26
ATOM     26  C   UNL     1       2.749   2.703  17.015  0.00  0.00    +0.000 C 
BRANCH  26  27
ATOM     27  C   UNL     1       3.928   2.600  17.977  0.00  0.00    +0.000 C 
BRANCH  27  32
ATOM     28  C   UNL     1       7.441   7.235  17.489  0.00  0.00    +0.000 C 
ATOM     29  C   UNL     1       6.557   6.026  17.603  0.00  0.00    +0.000 A 
ATOM     30  C   UNL     1       5.985   5.442  16.469  0.00  0.00    +0.000 A 
ATOM     31  C   UNL     1       5.137   4.336  16.590  0.00  0.00    +0.000 A 
ATOM     32  C   UNL     1       4.840   3.799  17.849  0.00  0.00    +0.000 A 
ATOM     33  C   UNL     1       5.432   4.372  18.983  0.00  0.00    +0.000 A 
ATOM     34  C   UNL     1       6.280   5.477  18.859  0.00  0.00    +0.000 A 
ENDBRANCH  27  32
ENDBRANCH  26  27
ENDBRANCH  25  26
ENDBRANCH   1  25
TORSDOF 8
ENDMDL
MODEL 6
REMARK VINA RESULT:      -8.5      1.679      2.798
REMARK  Name = 
REMARK  9 active torsions:
REMARK  status: ('A' for Active; 'I' for Inactive)
REMARK    1  A    between atoms: C_1  and  C_2
REMARK    2  A    between atoms: C_5  and  C_6
REMARK    3  A    between atoms: C_6  and  C_7
REMARK    4  A    between atoms: C_7  and  O_8
REMARK    5  A    between atoms: O_8  and  C_9
REMARK    6  A    between atoms: C_11  and  C_12
REMARK    7  A    between atoms: N_14  and  C_15
REMARK    8  A    between atoms: C_15  and  C_16
REMARK    9  A    between atoms: N_19  and  C_20
REMARK                            x       y       z     vdW  Elec       q    Type
REMARK                         _______ _______ _______ _____ _____    ______ ____
ROOT
ATOM      1  C   UNL     1       1.272   9.092  19.725  0.00  0.00    +0.000 A 
ATOM      2  C   UNL     1       1.357   7.828  20.317  0.00  0.00    +0.000 A 
ATOM      3  C   UNL     1       1.974   6.761  19.649  0.00  0.00    +0.000 A 
ATOM      4  C   UNL     1       2.559   6.972  18.394  0.00  0.00    +0.000 A 
ATOM      5  C   UNL     1       2.491   8.230  17.798  0.00  0.00    +0.000 A 
ATOM      6  C   UNL     1       1.845   9.277  18.461  0.00  0.00    +0.000 A 
ATOM      7  F   UNL     1       1.785  10.475  17.863  0.00  0.00    +0.000 F 
ENDROOT
BRANCH   3   8
ATOM      8  C   UNL     1       2.039   5.402  20.257  0.00  0.00    +0.000 C 
ATOM      9  O   UNL     1       2.445   5.267  21.404  0.00  0.00    +0.000 OA
ATOM     10  N   UNL     1       1.656   4.350  19.447  0.00  0.00    +0.000 N 
ATOM     11  H   UNL     1       1.398   4.510  18.486  0.00  0.00    +0.000 HD
BRANCH  10  12
ATOM     12  C   UNL     1       1.655   2.979  19.917  0.00  0.00    +0.000 C 
BRANCH  12  13
ATOM     13  C   UNL     1       2.623   2.086  19.121  0.00  0.00    +0.000 C 
ATOM     14  C   UNL     1       4.079   2.359  19.548  0.00  0.00    +0.000 C 
ATOM     15  C   UNL     1       4.618   3.692  19.014  0.00  0.00    +0.000 C 
ATOM     16  N   UNL     1       4.415   3.736  17.566  0.00  0.00    +0.000 N 
ATOM     17  C   UNL     1       3.026   3.601  17.118  0.00  0.00    +0.000 C 
ATOM     18  C   UNL     1       2.498   2.248  17.595  0.00  0.00    +0.000 C 
BRANCH  16  19
ATOM     19  C   UNL     1       5.420   4.119  16.694  0.00  0.00    +0.000 A 
ATOM     20  C   UNL     1       6.626   4.654  17.160  0.00  0.00    +0.000 A 
ATOM     21  C   UNL     1       7.595   5.076  16.259  0.00  0.00    +0.000 A 
ATOM     22  N   UNL     1       7.460   5.004  14.922  0.00  0.00    +0.000 NA
ATOM     23  C   UNL     1       6.301   4.484  14.477  0.00  0.00    +0.000 A 
ATOM     24  C   UNL     1       5.278   4.039  15.306  0.00  0.00    +0.000 A 
ENDBRANCH  16  19
ENDBRANCH  12  13
ENDBRANCH  10  12
ENDBRANCH   3   8
BRANCH   1  25
ATOM     25  O   UNL     1       0.661  10.179  20.304  0.00  0.00    +0.000 OA
BRANCH  25  26
ATOM     26  C   UNL     1      -0.596  10.563  19.739  0.00  0.00    +0.000 C 
BRANCH  26  27
ATOM     27  C   UNL     1      -0.880  12.038  20.007  0.00  0.00    +0.000 C 
BRANCH  27  32
ATOM     28  C   UNL     1      -4.630  12.694  24.430  0.00  0.00    +0.000 C 
ATOM     29  C   UNL     1      -3.668  12.497  23.294  0.00  0.00    +0.000 A 
ATOM     30  C   UNL     1      -2.399  11.954  23.509  0.00  0.00    +0.000 A 
ATOM     31  C   UNL     1      -1.499  11.805  22.449  0.00  0.00    +0.000 A 
ATOM     32  C   UNL     1      -1.852  12.205  21.153  0.00  0.00    +0.000 A 
ATOM     33  C   UNL     1      -3.133  12.728  20.934  0.00  0.00    +0.000 A 
ATOM     34  C   UNL     1      -4.031  12.875  21.996  0.00  0.00    +0.000 A 
ENDBRANCH  27  32
ENDBRANCH  26  27
ENDBRANCH  25  26
ENDBRANCH   1  25
TORSDOF 8
ENDMDL
MODEL 7
REMARK VINA RESULT:      -8.5      3.852      9.989
REMARK  Name = 
REMARK  9 active torsions:
REMARK  status: ('A' for Active; 'I' for Inactive)
REMARK    1  A    between atoms: C_1  and  C_2
REMARK    2  A    between atoms: C_5  and  C_6
REMARK    3  A    between atoms: C_6  and  C_7
REMARK    4  A    between atoms: C_7  and  O_8
REMARK    5  A    between atoms: O_8  and  C_9
REMARK    6  A    between atoms: C_11  and  C_12
REMARK    7  A    between atoms: N_14  and  C_15
REMARK    8  A    between atoms: C_15  and  C_16
REMARK    9  A    between atoms: N_19  and  C_20
REMARK                            x       y       z     vdW  Elec       q    Type
REMARK                         _______ _______ _______ _____ _____    ______ ____
ROOT
ATOM      1  C   UNL     1       2.458   4.564  18.625  0.00  0.00    +0.000 A 
ATOM      2  C   UNL     1       2.447   5.860  18.100  0.00  0.00    +0.000 A 
ATOM      3  C   UNL     1       2.128   6.960  18.908  0.00  0.00    +0.000 A 
ATOM      4  C   UNL     1       1.865   6.769  20.269  0.00  0.00    +0.000 A 
ATOM      5  C   UNL     1       1.885   5.484  20.808  0.00  0.00    +0.000 A 
ATOM      6  C   UNL     1       2.172   4.392  19.985  0.00  0.00    +0.000 A 
ATOM      7  F   UNL     1       2.175   3.165  20.525  0.00  0.00    +0.000 F 
ENDROOT
BRANCH   3   8
ATOM      8  C   UNL     1       2.080   8.340  18.349  0.00  0.00    +0.000 C 
ATOM      9  O   UNL     1       2.562   8.569  17.247  0.00  0.00    +0.000 OA
ATOM     10  N   UNL     1       1.505   9.307  19.153  0.00  0.00    +0.000 N 
ATOM     11  H   UNL     1       1.188   9.079  20.082  0.00  0.00    +0.000 HD
BRANCH  10  12
ATOM     12  C   UNL     1       1.379  10.686  18.726  0.00  0.00    +0.000 C 
BRANCH  12  13
ATOM     13  C   UNL     1      -0.089  11.142  18.645  0.00  0.00    +0.000 C 
ATOM     14  C   UNL     1      -0.171  12.679  18.562  0.00  0.00    +0.000 C 
ATOM     15  C   UNL     1       0.133  13.366  19.900  0.00  0.00    +0.000 C 
ATOM     16  N   UNL     1      -0.727  12.789  20.932  0.00  0.00    +0.000 N 
ATOM     17  C   UNL     1      -0.595  11.342  21.129  0.00  0.00    +0.000 C 
ATOM     18  C   UNL     1      -0.954  10.644  19.818  0.00  0.00    +0.000 C 
BRANCH  16  19
ATOM     19  C   UNL     1      -1.435  13.575  21.824  0.00  0.00    +0.000 A 
ATOM     20  C   UNL     1      -2.405  14.483  21.384  0.00  0.00    +0.000 A 
ATOM     21  C   UNL     1      -3.064  15.296  22.297  0.00  0.00    +0.000 A 
ATOM     22  N   UNL     1      -2.835  15.275  23.624  0.00  0.00    +0.000 NA
ATOM     23  C   UNL     1      -1.906  14.396  24.044  0.00  0.00    +0.000 A 
ATOM     24  C   UNL     1      -1.199  13.548  23.201  0.00  0.00    +0.000 A 
ENDBRANCH  16  19
ENDBRANCH  12  13
ENDBRANCH  10  12
ENDBRANCH   3   8
BRANCH   1  25
ATOM     25  O   UNL     1       2.734   3.433  17.892  0.00  0.00    +0.000 OA
BRANCH  25  26
ATOM     26  C   UNL     1       4.110   3.047  17.834  0.00  0.00    +0.000 C 
BRANCH  26  27
ATOM     27  C   UNL     1       4.783   3.639  16.599  0.00  0.00    +0.000 C 
BRANCH  27  32
ATOM     28  C   UNL     1       8.139   8.194  18.027  0.00  0.00    +0.000 C 
ATOM     29  C   UNL     1       7.288   7.021  17.635  0.00  0.00    +0.000 A 
ATOM     30  C   UNL     1       6.290   7.146  16.664  0.00  0.00    +0.000 A 
ATOM     31  C   UNL     1       5.482   6.055  16.330  0.00  0.00    +0.000 A 
ATOM     32  C   UNL     1       5.654   4.819  16.967  0.00  0.00    +0.000 A 
ATOM     33  C   UNL     1       6.670   4.688  17.923  0.00  0.00    +0.000 A 
ATOM     34  C   UNL     1       7.477   5.781  18.255  0.00  0.00    +0.000 A 
ENDBRANCH  27  32
ENDBRANCH  26  27
ENDBRANCH  25  26
ENDBRANCH   1  25
TORSDOF 8
ENDMDL
MODEL 8
REMARK VINA RESULT:      -8.4      3.717      9.548
REMARK  Name = 
REMARK  9 active torsions:
REMARK  status: ('A' for Active; 'I' for Inactive)
REMARK    1  A    between atoms: C_1  and  C_2
REMARK    2  A    between atoms: C_5  and  C_6
REMARK    3  A    between atoms: C_6  and  C_7
REMARK    4  A    between atoms: C_7  and  O_8
REMARK    5  A    between atoms: O_8  and  C_9
REMARK    6  A    between atoms: C_11  and  C_12
REMARK    7  A    between atoms: N_14  and  C_15
REMARK    8  A    between atoms: C_15  and  C_16
REMARK    9  A    between atoms: N_19  and  C_20
REMARK                            x       y       z     vdW  Elec       q    Type
REMARK                         _______ _______ _______ _____ _____    ______ ____
ROOT
ATOM      1  C   UNL     1       2.368   3.760  18.309  0.00  0.00    +0.000 A 
ATOM      2  C   UNL     1       2.475   5.140  18.506  0.00  0.00    +0.000 A 
ATOM      3  C   UNL     1       1.871   5.758  19.610  0.00  0.00    +0.000 A 
ATOM      4  C   UNL     1       1.193   4.980  20.556  0.00  0.00    +0.000 A 
ATOM      5  C   UNL     1       1.088   3.602  20.378  0.00  0.00    +0.000 A 
ATOM      6  C   UNL     1       1.668   3.003  19.256  0.00  0.00    +0.000 A 
ATOM      7  F   UNL     1       1.545   1.677  19.102  0.00  0.00    +0.000 F 
ENDROOT
BRANCH   3   8
ATOM      8  C   UNL     1       1.951   7.232  19.811  0.00  0.00    +0.000 C 
ATOM      9  O   UNL     1       2.199   7.683  20.921  0.00  0.00    +0.000 OA
ATOM     10  N   UNL     1       1.700   8.016  18.700  0.00  0.00    +0.000 N 
ATOM     11  H   UNL     1       1.430   7.594  17.825  0.00  0.00    +0.000 HD
BRANCH  10  12
ATOM     12  C   UNL     1       1.761   9.463  18.751  0.00  0.00    +0.000 C 
BRANCH  12  13
ATOM     13  C   UNL     1       0.366  10.104  18.868  0.00  0.00    +0.000 C 
ATOM     14  C   UNL     1       0.441  11.612  18.561  0.00  0.00    +0.000 C 
ATOM     15  C   UNL     1       1.082  12.422  19.695  0.00  0.00    +0.000 C 
ATOM     16  N   UNL     1       0.388  12.113  20.945  0.00  0.00    +0.000 N 
ATOM     17  C   UNL     1       0.395  10.701  21.340  0.00  0.00    +0.000 C 
ATOM     18  C   UNL     1      -0.296   9.892  20.243  0.00  0.00    +0.000 C 
BRANCH  16  19
ATOM     19  C   UNL     1      -0.035  13.103  21.815  0.00  0.00    +0.000 A 
ATOM     20  C   UNL     1       0.575  14.362  21.839  0.00  0.00    +0.000 A 
ATOM     21  C   UNL     1       0.163  15.318  22.758  0.00  0.00    +0.000 A 
ATOM     22  N   UNL     1      -0.817  15.121  23.660  0.00  0.00    +0.000 NA
ATOM     23  C   UNL     1      -1.405  13.911  23.630  0.00  0.00    +0.000 A 
ATOM     24  C   UNL     1      -1.056  12.897  22.746  0.00  0.00    +0.000 A 
ENDBRANCH  16  19
ENDBRANCH  12  13
ENDBRANCH  10  12
ENDBRANCH   3   8
BRANCH   1  25
ATOM     25  O   UNL     1       2.908   3.086  17.239  0.00  0.00    +0.000 OA
BRANCH  25  26
ATOM     26  C   UNL     1       4.337   3.024  17.197  0.00  0.00    +0.000 C 
BRANCH  26  27
ATOM     27  C   UNL     1       4.885   3.963  16.126  0.00  0.00    +0.000 C 
BRANCH  27  32
ATOM     28  C   UNL     1       8.364   8.016  18.475  0.00  0.00    +0.000 C 
ATOM     29  C   UNL     1       7.481   6.977  17.846  0.00  0.00    +0.000 A 
ATOM     30  C   UNL     1       6.473   7.336  16.946  0.00  0.00    +0.000 A 
ATOM     31  C   UNL     1       5.636   6.363  16.391  0.00  0.00    +0.000 A 
ATOM     32  C   UNL     1       5.787   5.013  16.732  0.00  0.00    +0.000 A 
ATOM     33  C   UNL     1       6.813   4.652  17.616  0.00  0.00    +0.000 A 
ATOM     34  C   UNL     1       7.649   5.627  18.169  0.00  0.00    +0.000 A 
ENDBRANCH  27  32
ENDBRANCH  26  27
ENDBRANCH  25  26
ENDBRANCH   1  25
TORSDOF 8
ENDMDL
MODEL 9
REMARK VINA RESULT:      -8.4      2.043      3.313
REMARK  Name = 
REMARK  9 active torsions:
REMARK  status: ('A' for Active; 'I' for Inactive)
REMARK    1  A    between atoms: C_1  and  C_2
REMARK    2  A    between atoms: C_5  and  C_6
REMARK    3  A    between atoms: C_6  and  C_7
REMARK    4  A    between atoms: C_7  and  O_8
REMARK    5  A    between atoms: O_8  and  C_9
REMARK    6  A    between atoms: C_11  and  C_12
REMARK    7  A    between atoms: N_14  and  C_15
REMARK    8  A    between atoms: C_15  and  C_16
REMARK    9  A    between atoms: N_19  and  C_20
REMARK                            x       y       z     vdW  Elec       q    Type
REMARK                         _______ _______ _______ _____ _____    ______ ____
ROOT
ATOM      1  C   UNL     1       1.362   8.826  20.490  0.00  0.00    +0.000 A 
ATOM      2  C   UNL     1       1.478   7.499  20.916  0.00  0.00    +0.000 A 
ATOM      3  C   UNL     1       1.852   6.486  20.020  0.00  0.00    +0.000 A 
ATOM      4  C   UNL     1       2.163   6.812  18.695  0.00  0.00    +0.000 A 
ATOM      5  C   UNL     1       2.062   8.132  18.260  0.00  0.00    +0.000 A 
ATOM      6  C   UNL     1       1.657   9.127  19.155  0.00  0.00    +0.000 A 
ATOM      7  F   UNL     1       1.559  10.388  18.710  0.00  0.00    +0.000 F 
ENDROOT
BRANCH   3   8
ATOM      8  C   UNL     1       1.945   5.065  20.457  0.00  0.00    +0.000 C 
ATOM      9  O   UNL     1       2.370   4.797  21.573  0.00  0.00    +0.000 OA
ATOM     10  N   UNL     1       1.564   4.113  19.529  0.00  0.00    +0.000 N 
ATOM     11  H   UNL     1       1.289   4.386  18.599  0.00  0.00    +0.000 HD
BRANCH  10  12
ATOM     12  C   UNL     1       1.589   2.696  19.828  0.00  0.00    +0.000 C 
BRANCH  12  13
ATOM     13  C   UNL     1       2.607   1.933  18.962  0.00  0.00    +0.000 C 
ATOM     14  C   UNL     1       4.038   2.162  19.487  0.00  0.00    +0.000 C 
ATOM     15  C   UNL     1       4.574   3.563  19.164  0.00  0.00    +0.000 C 
ATOM     16  N   UNL     1       4.432   3.802  17.728  0.00  0.00    +0.000 N 
ATOM     17  C   UNL     1       3.065   3.712  17.204  0.00  0.00    +0.000 C 
ATOM     18  C   UNL     1       2.542   2.300  17.468  0.00  0.00    +0.000 C 
BRANCH  16  19
ATOM     19  C   UNL     1       5.465   4.313  16.961  0.00  0.00    +0.000 A 
ATOM     20  C   UNL     1       6.248   5.382  17.411  0.00  0.00    +0.000 A 
ATOM     21  C   UNL     1       7.244   5.907  16.599  0.00  0.00    +0.000 A 
ATOM     22  N   UNL     1       7.528   5.447  15.366  0.00  0.00    +0.000 NA
ATOM     23  C   UNL     1       6.778   4.415  14.938  0.00  0.00    +0.000 A 
ATOM     24  C   UNL     1       5.761   3.830  15.684  0.00  0.00    +0.000 A 
ENDBRANCH  16  19
ENDBRANCH  12  13
ENDBRANCH  10  12
ENDBRANCH   3   8
BRANCH   1  25
ATOM     25  O   UNL     1       0.975   9.868  21.299  0.00  0.00    +0.000 OA
BRANCH  25  26
ATOM     26  C   UNL     1      -0.435  10.049  21.453  0.00  0.00    +0.000 C 
BRANCH  26  27
ATOM     27  C   UNL     1      -0.873  11.391  20.874  0.00  0.00    +0.000 C 
BRANCH  27  32
ATOM     28  C   UNL     1      -2.772  14.979  25.066  0.00  0.00    +0.000 C 
ATOM     29  C   UNL     1      -2.264  14.046  24.004  0.00  0.00    +0.000 A 
ATOM     30  C   UNL     1      -1.034  14.268  23.379  0.00  0.00    +0.000 A 
ATOM     31  C   UNL     1      -0.585  13.411  22.368  0.00  0.00    +0.000 A 
ATOM     32  C   UNL     1      -1.363  12.319  21.961  0.00  0.00    +0.000 A 
ATOM     33  C   UNL     1      -2.585  12.085  22.606  0.00  0.00    +0.000 A 
ATOM     34  C   UNL     1      -3.031  12.943  23.616  0.00  0.00    +0.000 A 
ENDBRANCH  27  32
ENDBRANCH  26  27
ENDBRANCH  25  26
ENDBRANCH   1  25
TORSDOF 8
ENDMDL
