MODEL 1
REMARK VINA RESULT:      -8.9      0.000      0.000
REMARK  Name = 
REMARK  8 active torsions:
REMARK  status: ('A' for Active; 'I' for Inactive)
REMARK    1  A    between atoms: C_1  and  C_2
REMARK    2  A    between atoms: C_4  and  N_5
REMARK    3  A    between atoms: C_11  and  C_12
REMARK    4  A    between atoms: N_14  and  C_15
REMARK    5  A    between atoms: C_16  and  C_17
REMARK    6  A    between atoms: N_28  and  C_29
REMARK    7  A    between atoms: C_29  and  C_30
REMARK    8  A    between atoms: C_30  and  O_31
REMARK                            x       y       z     vdW  Elec       q    Type
REMARK                         _______ _______ _______ _____ _____    ______ ____
ROOT
ATOM      1  N   UNL     1       2.585   7.462  18.972  0.00  0.00    +0.000 N 
ATOM      2  C   UNL     1       1.762   8.302  19.641  0.00  0.00    +0.000 A 
ATOM      3  N   UNL     1       1.454   8.244  20.919  0.00  0.00    +0.000 NA
ATOM      4  C   UNL     1       0.625   9.284  21.288  0.00  0.00    +0.000 A 
ATOM      5  C   UNL     1       0.149   9.541  22.591  0.00  0.00    +0.000 A 
ATOM      6  C   UNL     1      -0.662  10.660  22.835  0.00  0.00    +0.000 A 
ATOM      7  C   UNL     1      -1.020  11.513  21.787  0.00  0.00    +0.000 A 
ATOM      8  C   UNL     1      -0.574  11.251  20.478  0.00  0.00    +0.000 A 
ATOM      9  C   UNL     1       0.258  10.141  20.255  0.00  0.00    +0.000 A 
ATOM     10  S   UNL     1       0.991   9.596  18.795  0.00  0.00    +0.000 S 
ATOM     11  H   UNL     1       2.740   7.608  17.983  0.00  0.00    +0.000 HD
ENDROOT
BRANCH   1  15
ATOM     12  C   UNL     1       1.713   3.146  21.199  0.00  0.00    +0.000 C 
ATOM     13  C   UNL     1       2.544   4.072  20.365  0.00  0.00    +0.000 A 
ATOM     14  C   UNL     1       2.117   5.354  20.109  0.00  0.00    +0.000 A 
ATOM     15  C   UNL     1       2.922   6.150  19.325  0.00  0.00    +0.000 A 
ATOM     16  N   UNL     1       4.088   5.688  18.833  0.00  0.00    +0.000 NA
ATOM     17  C   UNL     1       4.417   4.414  19.096  0.00  0.00    +0.000 A 
ATOM     18  N   UNL     1       5.564   3.854  18.578  0.00  0.00    +0.000 N 
ATOM     19  N   UNL     1       3.697   3.593  19.868  0.00  0.00    +0.000 NA
ATOM     20  H   UNL     1       5.756   2.987  19.064  0.00  0.00    +0.000 HD
BRANCH  18  21
ATOM     21  C   UNL     1       6.701   4.713  18.291  0.00  0.00    +0.000 C 
BRANCH  21  22
ATOM     22  C   UNL     1       7.095   4.694  16.811  0.00  0.00    +0.000 C 
BRANCH  22  23
ATOM     23  O   UNL     1       7.473   5.998  16.371  0.00  0.00    +0.000 OA
ATOM     24  H   UNL     1       8.256   5.876  15.803  0.00  0.00    +0.000 HD
ENDBRANCH  22  23
ENDBRANCH  21  22
ENDBRANCH  18  21
ENDBRANCH   1  15
BRANCH   7  25
ATOM     25  C   UNL     1      -1.925  12.685  21.995  0.00  0.00    +0.000 C 
ATOM     26  O   UNL     1      -1.876  13.610  21.192  0.00  0.00    +0.000 OA
ATOM     27  N   UNL     1      -2.709  12.665  23.144  0.00  0.00    +0.000 N 
ATOM     28  H   UNL     1      -2.278  12.190  23.931  0.00  0.00    +0.000 HD
BRANCH  27  29
ATOM     29  C   UNL     1      -3.524  13.775  23.498  0.00  0.00    +0.000 A 
ATOM     30  C   UNL     1      -3.063  14.829  24.317  0.00  0.00    +0.000 A 
ATOM     31  C   UNL     1      -1.638  14.962  24.782  0.00  0.00    +0.000 C 
ATOM     32  C   UNL     1      -3.948  15.861  24.678  0.00  0.00    +0.000 A 
ATOM     33  C   UNL     1      -5.261  15.890  24.206  0.00  0.00    +0.000 A 
ATOM     34  C   UNL     1      -5.703  14.884  23.350  0.00  0.00    +0.000 A 
ATOM     35  C   UNL     1      -4.839  13.845  22.990  0.00  0.00    +0.000 A 
ATOM     36 CL   UNL     1      -5.450  12.612  21.937  0.00  0.00    +0.000 Cl
ENDBRANCH  27  29
ENDBRANCH   7  25
TORSDOF 6
ENDMDL
MODEL 2
REMARK VINA RESULT:      -8.8      1.724      2.005
REMARK  Name = 
REMARK  8 active torsions:
REMARK  status: ('A' for Active; 'I' for Inactive)
REMARK    1  A    between atoms: C_1  and  C_2
REMARK    2  A    between atoms: C_4  and  N_5
REMARK    3  A    between atoms: C_11  and  C_12
REMARK    4  A    between atoms: N_14  and  C_15
REMARK    5  A    between atoms: C_16  and  C_17
REMARK    6  A    between atoms: N_28  and  C_29
REMARK    7  A    between atoms: C_29  and  C_30
REMARK    8  A    between atoms: C_30  and  O_31
REMARK                            x       y       z     vdW  Elec       q    Type
REMARK                         _______ _______ _______ _____ _____    ______ ____
ROOT
ATOM      1  N   UNL     1       2.744   7.424  17.996  0.00  0.00    +0.000 N 
ATOM      2  C   UNL     1       1.971   8.182  18.808  0.00  0.00    +0.000 A 
ATOM      3  N   UNL     1       1.772   7.998  20.095  0.00  0.00    +0.000 NA
ATOM      4  C   UNL     1       0.966   8.983  20.628  0.00  0.00    +0.000 A 
ATOM      5  C   UNL     1       0.598   9.107  21.985  0.00  0.00    +0.000 A 
ATOM      6  C   UNL     1      -0.202  10.184  22.400  0.00  0.00    +0.000 A 
ATOM      7  C   UNL     1      -0.655  11.125  21.472  0.00  0.00    +0.000 A 
ATOM      8  C   UNL     1      -0.317  10.995  20.112  0.00  0.00    +0.000 A 
ATOM      9  C   UNL     1       0.505   9.927  19.716  0.00  0.00    +0.000 A 
ATOM     10  S   UNL     1       1.118   9.535  18.155  0.00  0.00    +0.000 S 
ATOM     11  H   UNL     1       2.815   7.665  17.016  0.00  0.00    +0.000 HD
ENDROOT
BRANCH   1  15
ATOM     12  C   UNL     1       1.837   2.578  18.193  0.00  0.00    +0.000 C 
ATOM     13  C   UNL     1       2.738   3.771  18.291  0.00  0.00    +0.000 A 
ATOM     14  C   UNL     1       2.240   5.038  18.103  0.00  0.00    +0.000 A 
ATOM     15  C   UNL     1       3.123   6.091  18.193  0.00  0.00    +0.000 A 
ATOM     16  N   UNL     1       4.427   5.883  18.463  0.00  0.00    +0.000 NA
ATOM     17  C   UNL     1       4.842   4.614  18.597  0.00  0.00    +0.000 A 
ATOM     18  N   UNL     1       6.170   4.319  18.815  0.00  0.00    +0.000 N 
ATOM     19  N   UNL     1       4.038   3.547  18.545  0.00  0.00    +0.000 NA
ATOM     20  H   UNL     1       6.250   3.355  19.114  0.00  0.00    +0.000 HD
BRANCH  18  21
ATOM     21  C   UNL     1       7.006   5.292  19.500  0.00  0.00    +0.000 C 
BRANCH  21  22
ATOM     22  C   UNL     1       7.946   6.036  18.546  0.00  0.00    +0.000 C 
BRANCH  22  23
ATOM     23  O   UNL     1       7.242   7.049  17.828  0.00  0.00    +0.000 OA
ATOM     24  H   UNL     1       6.737   6.587  17.134  0.00  0.00    +0.000 HD
ENDBRANCH  22  23
ENDBRANCH  21  22
ENDBRANCH  18  21
ENDBRANCH   1  15
BRANCH   7  25
ATOM     25  C   UNL     1      -1.552  12.254  21.865  0.00  0.00    +0.000 C 
ATOM     26  O   UNL     1      -2.335  12.696  21.030  0.00  0.00    +0.000 OA
ATOM     27  N   UNL     1      -1.372  12.773  23.143  0.00  0.00    +0.000 N 
ATOM     28  H   UNL     1      -0.415  12.724  23.478  0.00  0.00    +0.000 HD
BRANCH  27  29
ATOM     29  C   UNL     1      -2.094  13.917  23.581  0.00  0.00    +0.000 A 
ATOM     30  C   UNL     1      -3.377  13.831  24.165  0.00  0.00    +0.000 A 
ATOM     31  C   UNL     1      -4.052  12.531  24.510  0.00  0.00    +0.000 C 
ATOM     32  C   UNL     1      -4.057  15.012  24.514  0.00  0.00    +0.000 A 
ATOM     33  C   UNL     1      -3.471  16.267  24.339  0.00  0.00    +0.000 A 
ATOM     34  C   UNL     1      -2.181  16.353  23.820  0.00  0.00    +0.000 A 
ATOM     35  C   UNL     1      -1.496  15.189  23.457  0.00  0.00    +0.000 A 
ATOM     36 CL   UNL     1       0.098  15.360  22.798  0.00  0.00    +0.000 Cl
ENDBRANCH  27  29
ENDBRANCH   7  25
TORSDOF 6
ENDMDL
MODEL 3
REMARK VINA RESULT:      -8.7      1.600      1.817
REMARK  Name = 
REMARK  8 active torsions:
REMARK  status: ('A' for Active; 'I' for Inactive)
REMARK    1  A    between atoms: C_1  and  C_2
REMARK    2  A    between atoms: C_4  and  N_5
REMARK    3  A    between atoms: C_11  and  C_12
REMARK    4  A    between atoms: N_14  and  C_15
REMARK    5  A    between atoms: C_16  and  C_17
REMARK    6  A    between atoms: N_28  and  C_29
REMARK    7  A    between atoms: C_29  and  C_30
REMARK    8  A    between atoms: C_30  and  O_31
REMARK                            x       y       z     vdW  Elec       q    Type
REMARK                         _______ _______ _______ _____ _____    ______ ____
ROOT
ATOM      1  N   UNL     1       2.913   7.447  17.797  0.00  0.00    +0.000 N 
ATOM      2  C   UNL     1       2.142   8.183  18.631  0.00  0.00    +0.000 A 
ATOM      3  N   UNL     1       1.922   7.945  19.906  0.00  0.00    +0.000 NA
ATOM      4  C   UNL     1       1.126   8.919  20.472  0.00  0.00    +0.000 A 
ATOM      5  C   UNL     1       0.741   8.990  21.829  0.00  0.00    +0.000 A 
ATOM      6  C   UNL     1      -0.046  10.061  22.281  0.00  0.00    +0.000 A 
ATOM      7  C   UNL     1      -0.471  11.050  21.389  0.00  0.00    +0.000 A 
ATOM      8  C   UNL     1      -0.117  10.975  20.029  0.00  0.00    +0.000 A 
ATOM      9  C   UNL     1       0.693   9.911  19.597  0.00  0.00    +0.000 A 
ATOM     10  S   UNL     1       1.320   9.577  18.028  0.00  0.00    +0.000 S 
ATOM     11  H   UNL     1       3.001   7.730  16.829  0.00  0.00    +0.000 HD
ENDROOT
BRANCH   1  15
ATOM     12  C   UNL     1       1.868   2.678  18.507  0.00  0.00    +0.000 C 
ATOM     13  C   UNL     1       2.814   3.814  18.268  0.00  0.00    +0.000 A 
ATOM     14  C   UNL     1       2.346   5.103  18.173  0.00  0.00    +0.000 A 
ATOM     15  C   UNL     1       3.267   6.100  17.939  0.00  0.00    +0.000 A 
ATOM     16  N   UNL     1       4.579   5.820  17.815  0.00  0.00    +0.000 NA
ATOM     17  C   UNL     1       4.951   4.533  17.883  0.00  0.00    +0.000 A 
ATOM     18  N   UNL     1       6.267   4.162  17.706  0.00  0.00    +0.000 N 
ATOM     19  N   UNL     1       4.117   3.517  18.130  0.00  0.00    +0.000 NA
ATOM     20  H   UNL     1       6.385   3.206  18.017  0.00  0.00    +0.000 HD
BRANCH  18  21
ATOM     21  C   UNL     1       7.318   5.104  18.057  0.00  0.00    +0.000 C 
BRANCH  21  22
ATOM     22  C   UNL     1       7.263   5.524  19.530  0.00  0.00    +0.000 C 
BRANCH  22  23
ATOM     23  O   UNL     1       8.494   5.223  20.188  0.00  0.00    +0.000 OA
ATOM     24  H   UNL     1       8.814   4.391  19.794  0.00  0.00    +0.000 HD
ENDBRANCH  22  23
ENDBRANCH  21  22
ENDBRANCH  18  21
ENDBRANCH   1  15
BRANCH   7  25
ATOM     25  C   UNL     1      -1.354  12.176  21.820  0.00  0.00    +0.000 C 
ATOM     26  O   UNL     1      -2.204  12.585  21.036  0.00  0.00    +0.000 OA
ATOM     27  N   UNL     1      -1.087  12.731  23.068  0.00  0.00    +0.000 N 
ATOM     28  H   UNL     1      -0.106  12.704  23.331  0.00  0.00    +0.000 HD
BRANCH  27  29
ATOM     29  C   UNL     1      -1.792  13.875  23.531  0.00  0.00    +0.000 A 
ATOM     30  C   UNL     1      -1.273  15.184  23.424  0.00  0.00    +0.000 A 
ATOM     31  C   UNL     1      -0.002  15.522  22.694  0.00  0.00    +0.000 C 
ATOM     32  C   UNL     1      -2.001  16.261  23.964  0.00  0.00    +0.000 A 
ATOM     33  C   UNL     1      -3.247  16.069  24.563  0.00  0.00    +0.000 A 
ATOM     34  C   UNL     1      -3.789  14.787  24.618  0.00  0.00    +0.000 A 
ATOM     35  C   UNL     1      -3.074  13.704  24.095  0.00  0.00    +0.000 A 
ATOM     36 CL   UNL     1      -3.791  12.131  24.208  0.00  0.00    +0.000 Cl
ENDBRANCH  27  29
ENDBRANCH   7  25
TORSDOF 6
ENDMDL
MODEL 4
REMARK VINA RESULT:      -8.7      1.188      1.580
REMARK  Name = 
REMARK  8 active torsions:
REMARK  status: ('A' for Active; 'I' for Inactive)
REMARK    1  A    between atoms: C_1  and  C_2
REMARK    2  A    between atoms: C_4  and  N_5
REMARK    3  A    between atoms: C_11  and  C_12
REMARK    4  A    between atoms: N_14  and  C_15
REMARK    5  A    between atoms: C_16  and  C_17
REMARK    6  A    between atoms: N_28  and  C_29
REMARK    7  A    between atoms: C_29  and  C_30
REMARK    8  A    between atoms: C_30  and  O_31
REMARK                            x       y       z     vdW  Elec       q    Type
REMARK                         _______ _______ _______ _____ _____    ______ ____
ROOT
ATOM      1  N   UNL     1       2.587   7.445  19.042  0.00  0.00    +0.000 N 
ATOM      2  C   UNL     1       1.746   8.264  19.715  0.00  0.00    +0.000 A 
ATOM      3  N   UNL     1       1.442   8.194  20.994  0.00  0.00    +0.000 NA
ATOM      4  C   UNL     1       0.591   9.213  21.368  0.00  0.00    +0.000 A 
ATOM      5  C   UNL     1       0.111   9.455  22.673  0.00  0.00    +0.000 A 
ATOM      6  C   UNL     1      -0.724  10.555  22.922  0.00  0.00    +0.000 A 
ATOM      7  C   UNL     1      -1.104  11.403  21.878  0.00  0.00    +0.000 A 
ATOM      8  C   UNL     1      -0.654  11.156  20.568  0.00  0.00    +0.000 A 
ATOM      9  C   UNL     1       0.202  10.066  20.339  0.00  0.00    +0.000 A 
ATOM     10  S   UNL     1       0.944   9.542  18.876  0.00  0.00    +0.000 S 
ATOM     11  H   UNL     1       2.737   7.598  18.053  0.00  0.00    +0.000 HD
ENDROOT
BRANCH   1  15
ATOM     12  C   UNL     1       1.867   3.140  21.341  0.00  0.00    +0.000 C 
ATOM     13  C   UNL     1       2.648   4.067  20.462  0.00  0.00    +0.000 A 
ATOM     14  C   UNL     1       2.196   5.342  20.216  0.00  0.00    +0.000 A 
ATOM     15  C   UNL     1       2.954   6.139  19.389  0.00  0.00    +0.000 A 
ATOM     16  N   UNL     1       4.101   5.686  18.847  0.00  0.00    +0.000 NA
ATOM     17  C   UNL     1       4.456   4.418  19.105  0.00  0.00    +0.000 A 
ATOM     18  N   UNL     1       5.584   3.866  18.539  0.00  0.00    +0.000 N 
ATOM     19  N   UNL     1       3.782   3.596  19.916  0.00  0.00    +0.000 NA
ATOM     20  H   UNL     1       5.808   3.005  19.023  0.00  0.00    +0.000 HD
BRANCH  18  21
ATOM     21  C   UNL     1       6.698   4.735  18.193  0.00  0.00    +0.000 C 
BRANCH  21  22
ATOM     22  C   UNL     1       7.099   4.619  16.718  0.00  0.00    +0.000 C 
BRANCH  22  23
ATOM     23  O   UNL     1       7.467   5.893  16.192  0.00  0.00    +0.000 OA
ATOM     24  H   UNL     1       8.432   5.965  16.309  0.00  0.00    +0.000 HD
ENDBRANCH  22  23
ENDBRANCH  21  22
ENDBRANCH  18  21
ENDBRANCH   1  15
BRANCH   7  25
ATOM     25  C   UNL     1      -2.035  12.552  22.093  0.00  0.00    +0.000 C 
ATOM     26  O   UNL     1      -2.591  13.043  21.115  0.00  0.00    +0.000 OA
ATOM     27  N   UNL     1      -2.140  13.030  23.395  0.00  0.00    +0.000 N 
ATOM     28  H   UNL     1      -1.288  12.939  23.939  0.00  0.00    +0.000 HD
BRANCH  27  29
ATOM     29  C   UNL     1      -2.911  14.187  23.694  0.00  0.00    +0.000 A 
ATOM     30  C   UNL     1      -4.298  14.132  23.957  0.00  0.00    +0.000 A 
ATOM     31  C   UNL     1      -5.073  12.848  24.085  0.00  0.00    +0.000 C 
ATOM     32  C   UNL     1      -5.006  15.327  24.181  0.00  0.00    +0.000 A 
ATOM     33  C   UNL     1      -4.359  16.563  24.196  0.00  0.00    +0.000 A 
ATOM     34  C   UNL     1      -2.981  16.617  23.996  0.00  0.00    +0.000 A 
ATOM     35  C   UNL     1      -2.264  15.439  23.761  0.00  0.00    +0.000 A 
ATOM     36 CL   UNL     1      -0.556  15.570  23.502  0.00  0.00    +0.000 Cl
ENDBRANCH  27  29
ENDBRANCH   7  25
TORSDOF 6
ENDMDL
MODEL 5
REMARK VINA RESULT:      -8.7      1.677      1.746
REMARK  Name = 
REMARK  8 active torsions:
REMARK  status: ('A' for Active; 'I' for Inactive)
REMARK    1  A    between atoms: C_1  and  C_2
REMARK    2  A    between atoms: C_4  and  N_5
REMARK    3  A    between atoms: C_11  and  C_12
REMARK    4  A    between atoms: N_14  and  C_15
REMARK    5  A    between atoms: C_16  and  C_17
REMARK    6  A    between atoms: N_28  and  C_29
REMARK    7  A    between atoms: C_29  and  C_30
REMARK    8  A    between atoms: C_30  and  O_31
REMARK                            x       y       z     vdW  Elec       q    Type
REMARK                         _______ _______ _______ _____ _____    ______ ____
ROOT
ATOM      1  N   UNL     1       2.965   7.408  17.861  0.00  0.00    +0.000 N 
ATOM      2  C   UNL     1       2.189   8.059  18.758  0.00  0.00    +0.000 A 
ATOM      3  N   UNL     1       2.055   7.767  20.034  0.00  0.00    +0.000 NA
ATOM      4  C   UNL     1       1.222   8.664  20.673  0.00  0.00    +0.000 A 
ATOM      5  C   UNL     1       0.906   8.665  22.049  0.00  0.00    +0.000 A 
ATOM      6  C   UNL     1       0.071   9.661  22.577  0.00  0.00    +0.000 A 
ATOM      7  C   UNL     1      -0.470  10.644  21.743  0.00  0.00    +0.000 A 
ATOM      8  C   UNL     1      -0.184  10.636  20.365  0.00  0.00    +0.000 A 
ATOM      9  C   UNL     1       0.675   9.647  19.856  0.00  0.00    +0.000 A 
ATOM     10  S   UNL     1       1.240   9.408  18.247  0.00  0.00    +0.000 S 
ATOM     11  H   UNL     1       2.981   7.726  16.901  0.00  0.00    +0.000 HD
ENDROOT
BRANCH   1  15
ATOM     12  C   UNL     1       2.299   2.520  17.845  0.00  0.00    +0.000 C 
ATOM     13  C   UNL     1       3.150   3.748  17.930  0.00  0.00    +0.000 A 
ATOM     14  C   UNL     1       2.581   4.998  17.868  0.00  0.00    +0.000 A 
ATOM     15  C   UNL     1       3.421   6.086  17.939  0.00  0.00    +0.000 A 
ATOM     16  N   UNL     1       4.752   5.929  18.071  0.00  0.00    +0.000 NA
ATOM     17  C   UNL     1       5.235   4.678  18.087  0.00  0.00    +0.000 A 
ATOM     18  N   UNL     1       6.590   4.438  18.159  0.00  0.00    +0.000 N 
ATOM     19  N   UNL     1       4.478   3.576  18.046  0.00  0.00    +0.000 NA
ATOM     20  H   UNL     1       6.741   3.464  18.390  0.00  0.00    +0.000 HD
BRANCH  18  21
ATOM     21  C   UNL     1       7.444   5.412  18.821  0.00  0.00    +0.000 C 
BRANCH  21  22
ATOM     22  C   UNL     1       7.664   6.672  17.977  0.00  0.00    +0.000 C 
BRANCH  22  23
ATOM     23  O   UNL     1       7.575   6.370  16.584  0.00  0.00    +0.000 OA
ATOM     24  H   UNL     1       7.519   7.228  16.125  0.00  0.00    +0.000 HD
ENDBRANCH  22  23
ENDBRANCH  21  22
ENDBRANCH  18  21
ENDBRANCH   1  15
BRANCH   7  25
ATOM     25  C   UNL     1      -1.407  11.689  22.256  0.00  0.00    +0.000 C 
ATOM     26  O   UNL     1      -2.057  11.444  23.268  0.00  0.00    +0.000 OA
ATOM     27  N   UNL     1      -1.525  12.845  21.492  0.00  0.00    +0.000 N 
ATOM     28  H   UNL     1      -1.403  12.696  20.495  0.00  0.00    +0.000 HD
BRANCH  27  29
ATOM     29  C   UNL     1      -2.466  13.856  21.827  0.00  0.00    +0.000 A 
ATOM     30  C   UNL     1      -2.184  14.883  22.755  0.00  0.00    +0.000 A 
ATOM     31  C   UNL     1      -0.831  15.098  23.376  0.00  0.00    +0.000 C 
ATOM     32  C   UNL     1      -3.190  15.810  23.084  0.00  0.00    +0.000 A 
ATOM     33  C   UNL     1      -4.446  15.766  22.479  0.00  0.00    +0.000 A 
ATOM     34  C   UNL     1      -4.709  14.792  21.519  0.00  0.00    +0.000 A 
ATOM     35  C   UNL     1      -3.725  13.855  21.188  0.00  0.00    +0.000 A 
ATOM     36 CL   UNL     1      -4.115  12.655  20.000  0.00  0.00    +0.000 Cl
ENDBRANCH  27  29
ENDBRANCH   7  25
TORSDOF 6
ENDMDL
MODEL 6
REMARK VINA RESULT:      -8.7      1.664      1.994
REMARK  Name = 
REMARK  8 active torsions:
REMARK  status: ('A' for Active; 'I' for Inactive)
REMARK    1  A    between atoms: C_1  and  C_2
REMARK    2  A    between atoms: C_4  and  N_5
REMARK    3  A    between atoms: C_11  and  C_12
REMARK    4  A    between atoms: N_14  and  C_15
REMARK    5  A    between atoms: C_16  and  C_17
REMARK    6  A    between atoms: N_28  and  C_29
REMARK    7  A    between atoms: C_29  and  C_30
REMARK    8  A    between atoms: C_30  and  O_31
REMARK                            x       y       z     vdW  Elec       q    Type
REMARK                         _______ _______ _______ _____ _____    ______ ____
ROOT
ATOM      1  N   UNL     1       2.947   7.269  18.025  0.00  0.00    +0.000 N 
ATOM      2  C   UNL     1       2.150   8.033  18.809  0.00  0.00    +0.000 A 
ATOM      3  N   UNL     1       1.856   7.816  20.073  0.00  0.00    +0.000 NA
ATOM      4  C   UNL     1       1.055   8.816  20.584  0.00  0.00    +0.000 A 
ATOM      5  C   UNL     1       0.600   8.912  21.917  0.00  0.00    +0.000 A 
ATOM      6  C   UNL     1      -0.184  10.007  22.314  0.00  0.00    +0.000 A 
ATOM      7  C   UNL     1      -0.536  10.995  21.390  0.00  0.00    +0.000 A 
ATOM      8  C   UNL     1      -0.112  10.894  20.052  0.00  0.00    +0.000 A 
ATOM      9  C   UNL     1       0.694   9.806  19.676  0.00  0.00    +0.000 A 
ATOM     10  S   UNL     1       1.397   9.439  18.147  0.00  0.00    +0.000 S 
ATOM     11  H   UNL     1       3.093   7.538  17.060  0.00  0.00    +0.000 HD
ENDROOT
BRANCH   1  15
ATOM     12  C   UNL     1       2.098   2.760  19.840  0.00  0.00    +0.000 C 
ATOM     13  C   UNL     1       2.890   3.748  19.039  0.00  0.00    +0.000 A 
ATOM     14  C   UNL     1       2.495   5.062  18.964  0.00  0.00    +0.000 A 
ATOM     15  C   UNL     1       3.260   5.916  18.201  0.00  0.00    +0.000 A 
ATOM     16  N   UNL     1       4.359   5.477  17.558  0.00  0.00    +0.000 NA
ATOM     17  C   UNL     1       4.658   4.172  17.651  0.00  0.00    +0.000 A 
ATOM     18  N   UNL     1       5.732   3.639  16.973  0.00  0.00    +0.000 N 
ATOM     19  N   UNL     1       3.975   3.293  18.391  0.00  0.00    +0.000 NA
ATOM     20  H   UNL     1       5.930   2.717  17.343  0.00  0.00    +0.000 HD
BRANCH  18  21
ATOM     21  C   UNL     1       6.874   4.489  16.680  0.00  0.00    +0.000 C 
BRANCH  21  22
ATOM     22  C   UNL     1       6.959   4.870  15.198  0.00  0.00    +0.000 C 
BRANCH  22  23
ATOM     23  O   UNL     1       6.082   5.957  14.903  0.00  0.00    +0.000 OA
ATOM     24  H   UNL     1       5.964   6.443  15.740  0.00  0.00    +0.000 HD
ENDBRANCH  22  23
ENDBRANCH  21  22
ENDBRANCH  18  21
ENDBRANCH   1  15
BRANCH   7  25
ATOM     25  C   UNL     1      -1.414  12.147  21.761  0.00  0.00    +0.000 C 
ATOM     26  O   UNL     1      -2.157  12.614  20.904  0.00  0.00    +0.000 OA
ATOM     27  N   UNL     1      -1.260  12.654  23.047  0.00  0.00    +0.000 N 
ATOM     28  H   UNL     1      -0.315  12.577  23.412  0.00  0.00    +0.000 HD
BRANCH  27  29
ATOM     29  C   UNL     1      -1.963  13.816  23.468  0.00  0.00    +0.000 A 
ATOM     30  C   UNL     1      -3.250  13.760  24.047  0.00  0.00    +0.000 A 
ATOM     31  C   UNL     1      -3.949  12.476  24.404  0.00  0.00    +0.000 C 
ATOM     32  C   UNL     1      -3.910  14.957  24.379  0.00  0.00    +0.000 A 
ATOM     33  C   UNL     1      -3.302  16.199  24.192  0.00  0.00    +0.000 A 
ATOM     34  C   UNL     1      -2.008  16.256  23.677  0.00  0.00    +0.000 A 
ATOM     35  C   UNL     1      -1.342  15.076  23.331  0.00  0.00    +0.000 A 
ATOM     36 CL   UNL     1       0.257  15.211  22.678  0.00  0.00    +0.000 Cl
ENDBRANCH  27  29
ENDBRANCH   7  25
TORSDOF 6
ENDMDL
MODEL 7
REMARK VINA RESULT:      -8.7      1.369      1.524
REMARK  Name = 
REMARK  8 active torsions:
REMARK  status: ('A' for Active; 'I' for Inactive)
REMARK    1  A    between atoms: C_1  and  C_2
REMARK    2  A    between atoms: C_4  and  N_5
REMARK    3  A    between atoms: C_11  and  C_12
REMARK    4  A    between atoms: N_14  and  C_15
REMARK    5  A    between atoms: C_16  and  C_17
REMARK    6  A    between atoms: N_28  and  C_29
REMARK    7  A    between atoms: C_29  and  C_30
REMARK    8  A    between atoms: C_30  and  O_31
REMARK                            x       y       z     vdW  Elec       q    Type
REMARK                         _______ _______ _______ _____ _____    ______ ____
ROOT
ATOM      1  N   UNL     1       2.487   7.500  18.950  0.00  0.00    +0.000 N 
ATOM      2  C   UNL     1       1.720   8.282  19.744  0.00  0.00    +0.000 A 
ATOM      3  N   UNL     1       1.407   8.052  21.002  0.00  0.00    +0.000 NA
ATOM      4  C   UNL     1       0.647   9.076  21.529  0.00  0.00    +0.000 A 
ATOM      5  C   UNL     1       0.187   9.165  22.860  0.00  0.00    +0.000 A 
ATOM      6  C   UNL     1      -0.549  10.286  23.276  0.00  0.00    +0.000 A 
ATOM      7  C   UNL     1      -0.849  11.308  22.371  0.00  0.00    +0.000 A 
ATOM      8  C   UNL     1      -0.419  11.217  21.034  0.00  0.00    +0.000 A 
ATOM      9  C   UNL     1       0.339  10.101  20.640  0.00  0.00    +0.000 A 
ATOM     10  S   UNL     1       1.036   9.735  19.109  0.00  0.00    +0.000 S 
ATOM     11  H   UNL     1       2.653   7.782  17.992  0.00  0.00    +0.000 HD
ENDROOT
BRANCH   1  15
ATOM     12  C   UNL     1       1.718   3.091  21.027  0.00  0.00    +0.000 C 
ATOM     13  C   UNL     1       2.397   4.007  20.056  0.00  0.00    +0.000 A 
ATOM     14  C   UNL     1       2.085   5.345  20.024  0.00  0.00    +0.000 A 
ATOM     15  C   UNL     1       2.736   6.130  19.099  0.00  0.00    +0.000 A 
ATOM     16  N   UNL     1       3.651   5.604  18.262  0.00  0.00    +0.000 NA
ATOM     17  C   UNL     1       3.873   4.282  18.330  0.00  0.00    +0.000 A 
ATOM     18  N   UNL     1       4.751   3.663  17.468  0.00  0.00    +0.000 N 
ATOM     19  N   UNL     1       3.296   3.465  19.217  0.00  0.00    +0.000 NA
ATOM     20  H   UNL     1       4.956   2.734  17.816  0.00  0.00    +0.000 HD
BRANCH  18  21
ATOM     21  C   UNL     1       5.865   4.424  16.927  0.00  0.00    +0.000 C 
BRANCH  21  22
ATOM     22  C   UNL     1       6.949   4.704  17.973  0.00  0.00    +0.000 C 
BRANCH  22  23
ATOM     23  O   UNL     1       8.171   4.054  17.622  0.00  0.00    +0.000 OA
ATOM     24  H   UNL     1       7.923   3.309  17.043  0.00  0.00    +0.000 HD
ENDBRANCH  22  23
ENDBRANCH  21  22
ENDBRANCH  18  21
ENDBRANCH   1  15
BRANCH   7  25
ATOM     25  C   UNL     1      -1.676  12.491  22.761  0.00  0.00    +0.000 C 
ATOM     26  O   UNL     1      -1.210  13.288  23.568  0.00  0.00    +0.000 OA
ATOM     27  N   UNL     1      -2.958  12.554  22.225  0.00  0.00    +0.000 N 
ATOM     28  H   UNL     1      -3.385  11.646  22.065  0.00  0.00    +0.000 HD
BRANCH  27  29
ATOM     29  C   UNL     1      -3.868  13.575  22.612  0.00  0.00    +0.000 A 
ATOM     30  C   UNL     1      -4.755  13.432  23.702  0.00  0.00    +0.000 A 
ATOM     31  C   UNL     1      -4.737  12.259  24.645  0.00  0.00    +0.000 C 
ATOM     32  C   UNL     1      -5.672  14.460  23.985  0.00  0.00    +0.000 A 
ATOM     33  C   UNL     1      -5.695  15.640  23.239  0.00  0.00    +0.000 A 
ATOM     34  C   UNL     1      -4.782  15.810  22.201  0.00  0.00    +0.000 A 
ATOM     35  C   UNL     1      -3.871  14.793  21.899  0.00  0.00    +0.000 A 
ATOM     36 CL   UNL     1      -2.772  15.053  20.585  0.00  0.00    +0.000 Cl
ENDBRANCH  27  29
ENDBRANCH   7  25
TORSDOF 6
ENDMDL
MODEL 8
REMARK VINA RESULT:      -8.6      1.475      1.569
REMARK  Name = 
REMARK  8 active torsions:
REMARK  status: ('A' for Active; 'I' for Inactive)
REMARK    1  A    between atoms: C_1  and  C_2
REMARK    2  A    between atoms: C_4  and  N_5
REMARK    3  A    between atoms: C_11  and  C_12
REMARK    4  A    between atoms: N_14  and  C_15
REMARK    5  A    between atoms: C_16  and  C_17
REMARK    6  A    between atoms: N_28  and  C_29
REMARK    7  A    between atoms: C_29  and  C_30
REMARK    8  A    between atoms: C_30  and  O_31
REMARK                            x       y       z     vdW  Elec       q    Type
REMARK                         _______ _______ _______ _____ _____    ______ ____
ROOT
ATOM      1  N   UNL     1       2.386   7.495  19.314  0.00  0.00    +0.000 N 
ATOM      2  C   UNL     1       1.547   8.312  19.992  0.00  0.00    +0.000 A 
ATOM      3  N   UNL     1       1.183   8.188  21.251  0.00  0.00    +0.000 NA
ATOM      4  C   UNL     1       0.353   9.220  21.641  0.00  0.00    +0.000 A 
ATOM      5  C   UNL     1      -0.175   9.414  22.935  0.00  0.00    +0.000 A 
ATOM      6  C   UNL     1      -0.980  10.532  23.205  0.00  0.00    +0.000 A 
ATOM      7  C   UNL     1      -1.280  11.446  22.191  0.00  0.00    +0.000 A 
ATOM      8  C   UNL     1      -0.782  11.248  20.890  0.00  0.00    +0.000 A 
ATOM      9  C   UNL     1       0.044  10.139  20.642  0.00  0.00    +0.000 A 
ATOM     10  S   UNL     1       0.831   9.661  19.187  0.00  0.00    +0.000 S 
ATOM     11  H   UNL     1       2.586   7.692  18.341  0.00  0.00    +0.000 HD
ENDROOT
BRANCH   1  15
ATOM     12  C   UNL     1       1.284   3.025  21.087  0.00  0.00    +0.000 C 
ATOM     13  C   UNL     1       2.204   4.011  20.436  0.00  0.00    +0.000 A 
ATOM     14  C   UNL     1       1.800   5.308  20.224  0.00  0.00    +0.000 A 
ATOM     15  C   UNL     1       2.689   6.160  19.608  0.00  0.00    +0.000 A 
ATOM     16  N   UNL     1       3.912   5.737  19.233  0.00  0.00    +0.000 NA
ATOM     17  C   UNL     1       4.217   4.448  19.441  0.00  0.00    +0.000 A 
ATOM     18  N   UNL     1       5.426   3.928  19.032  0.00  0.00    +0.000 N 
ATOM     19  N   UNL     1       3.415   3.571  20.053  0.00  0.00    +0.000 NA
ATOM     20  H   UNL     1       5.564   3.027  19.472  0.00  0.00    +0.000 HD
BRANCH  18  21
ATOM     21  C   UNL     1       6.582   4.807  18.954  0.00  0.00    +0.000 C 
BRANCH  21  22
ATOM     22  C   UNL     1       7.068   5.015  17.516  0.00  0.00    +0.000 C 
BRANCH  22  23
ATOM     23  O   UNL     1       8.110   4.094  17.196  0.00  0.00    +0.000 OA
ATOM     24  H   UNL     1       8.778   4.603  16.700  0.00  0.00    +0.000 HD
ENDBRANCH  22  23
ENDBRANCH  21  22
ENDBRANCH  18  21
ENDBRANCH   1  15
BRANCH   7  25
ATOM     25  C   UNL     1      -2.177  12.619  22.425  0.00  0.00    +0.000 C 
ATOM     26  O   UNL     1      -3.378  12.489  22.208  0.00  0.00    +0.000 OA
ATOM     27  N   UNL     1      -1.559  13.807  22.803  0.00  0.00    +0.000 N 
ATOM     28  H   UNL     1      -0.627  13.929  22.418  0.00  0.00    +0.000 HD
BRANCH  27  29
ATOM     29  C   UNL     1      -2.302  15.010  22.945  0.00  0.00    +0.000 A 
ATOM     30  C   UNL     1      -2.924  15.384  24.156  0.00  0.00    +0.000 A 
ATOM     31  C   UNL     1      -2.755  14.631  25.448  0.00  0.00    +0.000 C 
ATOM     32  C   UNL     1      -3.697  16.558  24.202  0.00  0.00    +0.000 A 
ATOM     33  C   UNL     1      -3.825  17.388  23.087  0.00  0.00    +0.000 A 
ATOM     34  C   UNL     1      -3.164  17.055  21.907  0.00  0.00    +0.000 A 
ATOM     35  C   UNL     1      -2.401  15.885  21.841  0.00  0.00    +0.000 A 
ATOM     36 CL   UNL     1      -1.616  15.513  20.342  0.00  0.00    +0.000 Cl
ENDBRANCH  27  29
ENDBRANCH   7  25
TORSDOF 6
ENDMDL
MODEL 9
REMARK VINA RESULT:      -8.6      2.145      2.567
REMARK  Name = 
REMARK  8 active torsions:
REMARK  status: ('A' for Active; 'I' for Inactive)
REMARK    1  A    between atoms: C_1  and  C_2
REMARK    2  A    between atoms: C_4  and  N_5
REMARK    3  A    between atoms: C_11  and  C_12
REMARK    4  A    between atoms: N_14  and  C_15
REMARK    5  A    between atoms: C_16  and  C_17
REMARK    6  A    between atoms: N_28  and  C_29
REMARK    7  A    between atoms: C_29  and  C_30
REMARK    8  A    between atoms: C_30  and  O_31
REMARK                            x       y       z     vdW  Elec       q    Type
REMARK                         _______ _______ _______ _____ _____    ______ ____
ROOT
ATOM      1  N   UNL     1       3.092   7.378  17.745  0.00  0.00    +0.000 N 
ATOM      2  C   UNL     1       2.297   8.032  18.623  0.00  0.00    +0.000 A 
ATOM      3  N   UNL     1       2.084   7.705  19.880  0.00  0.00    +0.000 NA
ATOM      4  C   UNL     1       1.257   8.614  20.506  0.00  0.00    +0.000 A 
ATOM      5  C   UNL     1       0.870   8.584  21.863  0.00  0.00    +0.000 A 
ATOM      6  C   UNL     1       0.049   9.598  22.382  0.00  0.00    +0.000 A 
ATOM      7  C   UNL     1      -0.407  10.629  21.556  0.00  0.00    +0.000 A 
ATOM      8  C   UNL     1      -0.049  10.654  20.195  0.00  0.00    +0.000 A 
ATOM      9  C   UNL     1       0.794   9.647  19.696  0.00  0.00    +0.000 A 
ATOM     10  S   UNL     1       1.433   9.437  18.111  0.00  0.00    +0.000 S 
ATOM     11  H   UNL     1       3.172   7.726  16.798  0.00  0.00    +0.000 HD
ENDROOT
BRANCH   1  15
ATOM     12  C   UNL     1       2.190   2.531  17.926  0.00  0.00    +0.000 C 
ATOM     13  C   UNL     1       3.104   3.715  17.880  0.00  0.00    +0.000 A 
ATOM     14  C   UNL     1       2.594   4.991  17.856  0.00  0.00    +0.000 A 
ATOM     15  C   UNL     1       3.488   6.036  17.800  0.00  0.00    +0.000 A 
ATOM     16  N   UNL     1       4.817   5.813  17.776  0.00  0.00    +0.000 NA
ATOM     17  C   UNL     1       5.236   4.539  17.764  0.00  0.00    +0.000 A 
ATOM     18  N   UNL     1       6.576   4.231  17.681  0.00  0.00    +0.000 N 
ATOM     19  N   UNL     1       4.427   3.477  17.840  0.00  0.00    +0.000 NA
ATOM     20  H   UNL     1       6.706   3.255  17.915  0.00  0.00    +0.000 HD
BRANCH  18  21
ATOM     21  C   UNL     1       7.550   5.171  18.212  0.00  0.00    +0.000 C 
BRANCH  21  22
ATOM     22  C   UNL     1       7.240   5.588  19.654  0.00  0.00    +0.000 C 
BRANCH  22  23
ATOM     23  O   UNL     1       8.346   5.307  20.511  0.00  0.00    +0.000 OA
ATOM     24  H   UNL     1       7.964   4.963  21.340  0.00  0.00    +0.000 HD
ENDBRANCH  22  23
ENDBRANCH  21  22
ENDBRANCH  18  21
ENDBRANCH   1  15
BRANCH   7  25
ATOM     25  C   UNL     1      -1.325  11.696  22.057  0.00  0.00    +0.000 C 
ATOM     26  O   UNL     1      -1.926  11.503  23.109  0.00  0.00    +0.000 OA
ATOM     27  N   UNL     1      -1.487  12.809  21.239  0.00  0.00    +0.000 N 
ATOM     28  H   UNL     1      -1.410  12.608  20.246  0.00  0.00    +0.000 HD
BRANCH  27  29
ATOM     29  C   UNL     1      -2.418  13.833  21.564  0.00  0.00    +0.000 A 
ATOM     30  C   UNL     1      -3.756  13.818  21.110  0.00  0.00    +0.000 A 
ATOM     31  C   UNL     1      -4.371  12.667  20.362  0.00  0.00    +0.000 C 
ATOM     32  C   UNL     1      -4.601  14.900  21.419  0.00  0.00    +0.000 A 
ATOM     33  C   UNL     1      -4.160  15.967  22.203  0.00  0.00    +0.000 A 
ATOM     34  C   UNL     1      -2.860  15.956  22.703  0.00  0.00    +0.000 A 
ATOM     35  C   UNL     1      -2.003  14.894  22.396  0.00  0.00    +0.000 A 
ATOM     36 CL   UNL     1      -0.391  14.945  23.031  0.00  0.00    +0.000 Cl
ENDBRANCH  27  29
ENDBRANCH   7  25
TORSDOF 6
ENDMDL
