MODEL 1
REMARK VINA RESULT:      -5.2      0.000      0.000
REMARK  Name = 
REMARK  3 active torsions:
REMARK  status: ('A' for Active; 'I' for Inactive)
REMARK    1  A    between atoms: C_1  and  N_2
REMARK    2  A    between atoms: C_3  and  C_5
REMARK    3  A    between atoms: C_8  and  N_9
REMARK                            x       y       z     vdW  Elec       q    Type
REMARK                         _______ _______ _______ _____ _____    ______ ____
ROOT
ATOM      1  C   UNL     1       6.402   5.116  15.872  0.00  0.00    +0.000 C 
ATOM      2  C   UNL     1       5.285   5.752  16.254  0.00  0.00    +0.000 C 
ATOM      3  C   UNL     1       5.188   5.837  17.743  0.00  0.00    +0.000 C 
ATOM      4  C   UNL     1       6.249   4.831  18.230  0.00  0.00    +0.000 C 
ATOM      5  C   UNL     1       7.221   4.670  17.047  0.00  0.00    +0.000 C 
ENDROOT
BRANCH   1   8
ATOM      6  C   UNL     1       6.412   3.409  12.523  0.00  0.00    +0.000 C 
ATOM      7  N   UNL     1       6.107   3.814  13.870  0.00  0.00    +0.000 N 
ATOM      8  C   UNL     1       6.840   4.790  14.496  0.00  0.00    +0.000 C 
ATOM      9  O   UNL     1       7.768   5.391  13.968  0.00  0.00    +0.000 OA
ATOM     10  H   UNL     1       5.294   3.424  14.323  0.00  0.00    +0.000 HD
ENDBRANCH   1   8
BRANCH   4  11
ATOM     11  N   UNL     1       5.647   3.539  18.598  0.00  0.00    +0.000 NA
ATOM     12  H   UNL     1       4.746   3.440  18.129  0.00  0.00    +0.000 HD
ATOM     13  H   UNL     1       5.451   3.520  19.598  0.00  0.00    +0.000 HD
ENDBRANCH   4  11
TORSDOF 2
ENDMDL
MODEL 2
REMARK VINA RESULT:      -5.2      1.902      2.026
REMARK  Name = 
REMARK  3 active torsions:
REMARK  status: ('A' for Active; 'I' for Inactive)
REMARK    1  A    between atoms: C_1  and  N_2
REMARK    2  A    between atoms: C_3  and  C_5
REMARK    3  A    between atoms: C_8  and  N_9
REMARK                            x       y       z     vdW  Elec       q    Type
REMARK                         _______ _______ _______ _____ _____    ______ ____
ROOT
ATOM      1  C   UNL     1       7.060   5.824  16.735  0.00  0.00    +0.000 C 
ATOM      2  C   UNL     1       7.302   7.043  17.237  0.00  0.00    +0.000 C 
ATOM      3  C   UNL     1       8.029   6.961  18.541  0.00  0.00    +0.000 C 
ATOM      4  C   UNL     1       7.881   5.480  18.942  0.00  0.00    +0.000 C 
ATOM      5  C   UNL     1       7.582   4.737  17.626  0.00  0.00    +0.000 C 
ENDROOT
BRANCH   1   8
ATOM      6  C   UNL     1       6.124   3.869  13.663  0.00  0.00    +0.000 C 
ATOM      7  N   UNL     1       6.756   4.334  14.870  0.00  0.00    +0.000 N 
ATOM      8  C   UNL     1       6.329   5.478  15.493  0.00  0.00    +0.000 C 
ATOM      9  O   UNL     1       5.392   6.163  15.099  0.00  0.00    +0.000 OA
ATOM     10  H   UNL     1       7.469   3.761  15.297  0.00  0.00    +0.000 HD
ENDBRANCH   1   8
BRANCH   4  11
ATOM     11  N   UNL     1       6.795   5.286  19.917  0.00  0.00    +0.000 NA
ATOM     12  H   UNL     1       6.465   6.196  20.241  0.00  0.00    +0.000 HD
ATOM     13  H   UNL     1       7.150   4.802  20.739  0.00  0.00    +0.000 HD
ENDBRANCH   4  11
TORSDOF 2
ENDMDL
MODEL 3
REMARK VINA RESULT:      -5.1      3.437      4.731
REMARK  Name = 
REMARK  3 active torsions:
REMARK  status: ('A' for Active; 'I' for Inactive)
REMARK    1  A    between atoms: C_1  and  N_2
REMARK    2  A    between atoms: C_3  and  C_5
REMARK    3  A    between atoms: C_8  and  N_9
REMARK                            x       y       z     vdW  Elec       q    Type
REMARK                         _______ _______ _______ _____ _____    ______ ____
ROOT
ATOM      1  C   UNL     1       5.839   5.452  18.790  0.00  0.00    +0.000 C 
ATOM      2  C   UNL     1       7.097   5.624  19.220  0.00  0.00    +0.000 C 
ATOM      3  C   UNL     1       7.826   6.626  18.385  0.00  0.00    +0.000 C 
ATOM      4  C   UNL     1       6.927   6.781  17.143  0.00  0.00    +0.000 C 
ATOM      5  C   UNL     1       5.533   6.306  17.596  0.00  0.00    +0.000 C 
ENDROOT
BRANCH   1   8
ATOM      6  C   UNL     1       4.296   2.189  19.841  0.00  0.00    +0.000 C 
ATOM      7  N   UNL     1       5.186   3.202  19.338  0.00  0.00    +0.000 N 
ATOM      8  C   UNL     1       4.814   4.521  19.317  0.00  0.00    +0.000 C 
ATOM      9  O   UNL     1       3.738   4.934  19.734  0.00  0.00    +0.000 OA
ATOM     10  H   UNL     1       6.123   2.936  19.071  0.00  0.00    +0.000 HD
ENDBRANCH   1   8
BRANCH   4  11
ATOM     11  N   UNL     1       7.417   5.977  16.011  0.00  0.00    +0.000 NA
ATOM     12  H   UNL     1       8.232   6.433  15.600  0.00  0.00    +0.000 HD
ATOM     13  H   UNL     1       6.710   5.942  15.279  0.00  0.00    +0.000 HD
ENDBRANCH   4  11
TORSDOF 2
ENDMDL
MODEL 4
REMARK VINA RESULT:      -5.0      2.445      4.272
REMARK  Name = 
REMARK  3 active torsions:
REMARK  status: ('A' for Active; 'I' for Inactive)
REMARK    1  A    between atoms: C_1  and  N_2
REMARK    2  A    between atoms: C_3  and  C_5
REMARK    3  A    between atoms: C_8  and  N_9
REMARK                            x       y       z     vdW  Elec       q    Type
REMARK                         _______ _______ _______ _____ _____    ______ ____
ROOT
ATOM      1  C   UNL     1       5.371   4.732  17.180  0.00  0.00    +0.000 C 
ATOM      2  C   UNL     1       5.063   5.994  16.850  0.00  0.00    +0.000 C 
ATOM      3  C   UNL     1       5.267   6.241  15.390  0.00  0.00    +0.000 C 
ATOM      4  C   UNL     1       6.097   5.025  14.933  0.00  0.00    +0.000 C 
ATOM      5  C   UNL     1       5.835   3.940  15.994  0.00  0.00    +0.000 C 
ENDROOT
BRANCH   1   8
ATOM      6  C   UNL     1       4.384   2.329  19.897  0.00  0.00    +0.000 C 
ATOM      7  N   UNL     1       4.496   3.041  18.651  0.00  0.00    +0.000 N 
ATOM      8  C   UNL     1       5.346   4.109  18.524  0.00  0.00    +0.000 C 
ATOM      9  O   UNL     1       6.071   4.517  19.424  0.00  0.00    +0.000 OA
ATOM     10  H   UNL     1       3.998   2.692  17.845  0.00  0.00    +0.000 HD
ENDBRANCH   1   8
BRANCH   4  11
ATOM     11  N   UNL     1       7.531   5.346  14.847  0.00  0.00    +0.000 NA
ATOM     12  H   UNL     1       8.033   4.846  15.582  0.00  0.00    +0.000 HD
ATOM     13  H   UNL     1       7.676   6.338  15.026  0.00  0.00    +0.000 HD
ENDBRANCH   4  11
TORSDOF 2
ENDMDL
MODEL 5
REMARK VINA RESULT:      -5.0      1.132      1.586
REMARK  Name = 
REMARK  3 active torsions:
REMARK  status: ('A' for Active; 'I' for Inactive)
REMARK    1  A    between atoms: C_1  and  N_2
REMARK    2  A    between atoms: C_3  and  C_5
REMARK    3  A    between atoms: C_8  and  N_9
REMARK                            x       y       z     vdW  Elec       q    Type
REMARK                         _______ _______ _______ _____ _____    ______ ____
ROOT
ATOM      1  C   UNL     1       6.446   4.507  15.933  0.00  0.00    +0.000 C 
ATOM      2  C   UNL     1       7.207   4.724  17.015  0.00  0.00    +0.000 C 
ATOM      3  C   UNL     1       6.401   4.651  18.272  0.00  0.00    +0.000 C 
ATOM      4  C   UNL     1       4.946   4.710  17.769  0.00  0.00    +0.000 C 
ATOM      5  C   UNL     1       5.013   4.262  16.297  0.00  0.00    +0.000 C 
ENDROOT
BRANCH   1   8
ATOM      6  C   UNL     1       6.532   3.538  12.302  0.00  0.00    +0.000 C 
ATOM      7  N   UNL     1       6.242   3.609  13.710  0.00  0.00    +0.000 N 
ATOM      8  C   UNL     1       6.856   4.538  14.510  0.00  0.00    +0.000 C 
ATOM      9  O   UNL     1       7.657   5.370  14.100  0.00  0.00    +0.000 OA
ATOM     10  H   UNL     1       5.518   3.015  14.089  0.00  0.00    +0.000 HD
ENDBRANCH   1   8
BRANCH   4  11
ATOM     11  N   UNL     1       4.385   6.066  17.883  0.00  0.00    +0.000 NA
ATOM     12  H   UNL     1       4.499   6.400  18.841  0.00  0.00    +0.000 HD
ATOM     13  H   UNL     1       3.382   6.043  17.707  0.00  0.00    +0.000 HD
ENDBRANCH   4  11
TORSDOF 2
ENDMDL
MODEL 6
REMARK VINA RESULT:      -4.9      1.116      1.150
REMARK  Name = 
REMARK  3 active torsions:
REMARK  status: ('A' for Active; 'I' for Inactive)
REMARK    1  A    between atoms: C_1  and  N_2
REMARK    2  A    between atoms: C_3  and  C_5
REMARK    3  A    between atoms: C_8  and  N_9
REMARK                            x       y       z     vdW  Elec       q    Type
REMARK                         _______ _______ _______ _____ _____    ______ ____
ROOT
ATOM      1  C   UNL     1       6.395   4.777  15.778  0.00  0.00    +0.000 C 
ATOM      2  C   UNL     1       5.530   3.995  16.439  0.00  0.00    +0.000 C 
ATOM      3  C   UNL     1       5.392   4.420  17.865  0.00  0.00    +0.000 C 
ATOM      4  C   UNL     1       6.586   5.371  18.074  0.00  0.00    +0.000 C 
ATOM      5  C   UNL     1       6.975   5.842  16.660  0.00  0.00    +0.000 C 
ENDROOT
BRANCH   1   8
ATOM      6  C   UNL     1       6.534   3.459  12.260  0.00  0.00    +0.000 C 
ATOM      7  N   UNL     1       6.214   3.675  13.647  0.00  0.00    +0.000 N 
ATOM      8  C   UNL     1       6.838   4.659  14.369  0.00  0.00    +0.000 C 
ATOM      9  O   UNL     1       7.675   5.423  13.902  0.00  0.00    +0.000 OA
ATOM     10  H   UNL     1       5.464   3.141  14.061  0.00  0.00    +0.000 HD
ENDBRANCH   1   8
BRANCH   4  11
ATOM     11  N   UNL     1       7.714   4.693  18.734  0.00  0.00    +0.000 NA
ATOM     12  H   UNL     1       7.629   4.803  19.745  0.00  0.00    +0.000 HD
ATOM     13  H   UNL     1       8.590   5.141  18.471  0.00  0.00    +0.000 HD
ENDBRANCH   4  11
TORSDOF 2
ENDMDL
MODEL 7
REMARK VINA RESULT:      -4.9      3.369      4.415
REMARK  Name = 
REMARK  3 active torsions:
REMARK  status: ('A' for Active; 'I' for Inactive)
REMARK    1  A    between atoms: C_1  and  N_2
REMARK    2  A    between atoms: C_3  and  C_5
REMARK    3  A    between atoms: C_8  and  N_9
REMARK                            x       y       z     vdW  Elec       q    Type
REMARK                         _______ _______ _______ _____ _____    ______ ____
ROOT
ATOM      1  C   UNL     1       4.044   4.196  18.575  0.00  0.00    +0.000 C 
ATOM      2  C   UNL     1       3.227   4.489  17.553  0.00  0.00    +0.000 C 
ATOM      3  C   UNL     1       1.839   3.997  17.807  0.00  0.00    +0.000 C 
ATOM      4  C   UNL     1       2.011   3.033  18.998  0.00  0.00    +0.000 C 
ATOM      5  C   UNL     1       3.331   3.458  19.668  0.00  0.00    +0.000 C 
ENDROOT
BRANCH   1   8
ATOM      6  C   UNL     1       7.629   4.534  17.496  0.00  0.00    +0.000 C 
ATOM      7  N   UNL     1       6.211   4.288  17.534  0.00  0.00    +0.000 N 
ATOM      8  C   UNL     1       5.495   4.470  18.689  0.00  0.00    +0.000 C 
ATOM      9  O   UNL     1       5.984   4.866  19.741  0.00  0.00    +0.000 OA
ATOM     10  H   UNL     1       5.735   4.053  16.675  0.00  0.00    +0.000 HD
ENDBRANCH   1   8
BRANCH   4  11
ATOM     11  N   UNL     1       2.069   1.630  18.558  0.00  0.00    +0.000 NA
ATOM     12  H   UNL     1       3.009   1.265  18.717  0.00  0.00    +0.000 HD
ATOM     13  H   UNL     1       1.908   1.574  17.554  0.00  0.00    +0.000 HD
ENDBRANCH   4  11
TORSDOF 2
ENDMDL
MODEL 8
REMARK VINA RESULT:      -4.9      3.317      4.331
REMARK  Name = 
REMARK  3 active torsions:
REMARK  status: ('A' for Active; 'I' for Inactive)
REMARK    1  A    between atoms: C_1  and  N_2
REMARK    2  A    between atoms: C_3  and  C_5
REMARK    3  A    between atoms: C_8  and  N_9
REMARK                            x       y       z     vdW  Elec       q    Type
REMARK                         _______ _______ _______ _____ _____    ______ ____
ROOT
ATOM      1  C   UNL     1       4.303   3.881  18.207  0.00  0.00    +0.000 C 
ATOM      2  C   UNL     1       3.416   3.631  17.234  0.00  0.00    +0.000 C 
ATOM      3  C   UNL     1       2.526   2.484  17.590  0.00  0.00    +0.000 C 
ATOM      4  C   UNL     1       3.242   1.832  18.789  0.00  0.00    +0.000 C 
ATOM      5  C   UNL     1       4.150   2.937  19.362  0.00  0.00    +0.000 C 
ENDROOT
BRANCH   1   8
ATOM      6  C   UNL     1       7.784   5.281  18.448  0.00  0.00    +0.000 C 
ATOM      7  N   UNL     1       6.641   4.406  18.428  0.00  0.00    +0.000 N 
ATOM      8  C   UNL     1       5.379   4.900  18.220  0.00  0.00    +0.000 C 
ATOM      9  O   UNL     1       5.132   6.083  18.019  0.00  0.00    +0.000 OA
ATOM     10  H   UNL     1       6.791   3.409  18.491  0.00  0.00    +0.000 HD
ENDBRANCH   1   8
BRANCH   4  11
ATOM     11  N   UNL     1       4.032   0.659  18.379  0.00  0.00    +0.000 NA
ATOM     12  H   UNL     1       4.390   0.185  19.209  0.00  0.00    +0.000 HD
ATOM     13  H   UNL     1       4.848   0.959  17.848  0.00  0.00    +0.000 HD
ENDBRANCH   4  11
TORSDOF 2
ENDMDL
MODEL 9
REMARK VINA RESULT:      -4.9      2.920      3.369
REMARK  Name = 
REMARK  3 active torsions:
REMARK  status: ('A' for Active; 'I' for Inactive)
REMARK    1  A    between atoms: C_1  and  N_2
REMARK    2  A    between atoms: C_3  and  C_5
REMARK    3  A    between atoms: C_8  and  N_9
REMARK                            x       y       z     vdW  Elec       q    Type
REMARK                         _______ _______ _______ _____ _____    ______ ____
ROOT
ATOM      1  C   UNL     1       4.304   3.538  17.773  0.00  0.00    +0.000 C 
ATOM      2  C   UNL     1       3.426   2.532  17.655  0.00  0.00    +0.000 C 
ATOM      3  C   UNL     1       3.035   1.989  18.992  0.00  0.00    +0.000 C 
ATOM      4  C   UNL     1       4.090   2.586  19.944  0.00  0.00    +0.000 C 
ATOM      5  C   UNL     1       4.641   3.821  19.207  0.00  0.00    +0.000 C 
ENDROOT
BRANCH   1   8
ATOM      6  C   UNL     1       6.569   4.208  14.849  0.00  0.00    +0.000 C 
ATOM      7  N   UNL     1       5.866   3.593  15.945  0.00  0.00    +0.000 N 
ATOM      8  C   UNL     1       4.963   4.305  16.691  0.00  0.00    +0.000 C 
ATOM      9  O   UNL     1       4.673   5.476  16.478  0.00  0.00    +0.000 OA
ATOM     10  H   UNL     1       5.990   2.604  16.108  0.00  0.00    +0.000 HD
ENDBRANCH   1   8
BRANCH   4  11
ATOM     11  N   UNL     1       5.163   1.623  20.239  0.00  0.00    +0.000 NA
ATOM     12  H   UNL     1       6.010   2.131  20.497  0.00  0.00    +0.000 HD
ATOM     13  H   UNL     1       5.393   1.092  19.401  0.00  0.00    +0.000 HD
ENDBRANCH   4  11
TORSDOF 2
ENDMDL
