MODEL 1
REMARK VINA RESULT:      -7.6      0.000      0.000
REMARK  Name = 
REMARK  6 active torsions:
REMARK  status: ('A' for Active; 'I' for Inactive)
REMARK    1  A    between atoms: C_2  and  O_3
REMARK    2  A    between atoms: C_2  and  C_4
REMARK    3  A    between atoms: C_5  and  C_6
REMARK    4  A    between atoms: C_5  and  C_15
REMARK    5  A    between atoms: C_6  and  C_7
REMARK    6  A    between atoms: C_7  and  C_8
REMARK                            x       y       z     vdW  Elec       q    Type
REMARK                         _______ _______ _______ _____ _____    ______ ____
ROOT
ATOM      1  C   UNL     1       5.322   5.397  15.336  0.00  0.00    +0.000 C 
ATOM      2  C   UNL     1       5.183   6.109  16.472  0.00  0.00    +0.000 C 
ENDROOT
BRANCH   2   3
ATOM      3  C   UNL     1       6.295   6.398  17.396  0.00  0.00    +0.000 A 
ATOM      4  C   UNL     1       6.663   5.468  18.374  0.00  0.00    +0.000 A 
ATOM      5  C   UNL     1       7.744   5.729  19.220  0.00  0.00    +0.000 A 
ATOM      6  C   UNL     1       8.452   6.924  19.102  0.00  0.00    +0.000 A 
ATOM      7  C   UNL     1       8.079   7.863  18.142  0.00  0.00    +0.000 A 
ATOM      8  C   UNL     1       7.009   7.600  17.285  0.00  0.00    +0.000 A 
ENDBRANCH   2   3
BRANCH   1  10
ATOM      9  O   UNL     1       7.478   5.367  14.404  0.00  0.00    +0.000 OA
ATOM     10  C   UNL     1       6.470   4.732  14.677  0.00  0.00    +0.000 C 
BRANCH  10  11
ATOM     11  O   UNL     1       6.318   3.444  14.340  0.00  0.00    +0.000 OA
ATOM     12  H   UNL     1       5.792   3.286  13.540  0.00  0.00    +0.000 HD
ENDBRANCH  10  11
ENDBRANCH   1  10
BRANCH   2  13
ATOM     13  C   UNL     1       3.872   6.755  16.930  0.00  0.00    +0.000 C 
BRANCH  13  14
ATOM     14  C   UNL     1       3.526   6.647  18.424  0.00  0.00    +0.000 C 
BRANCH  14  15
ATOM     15  C   UNL     1       2.732   5.407  18.762  0.00  0.00    +0.000 A 
ATOM     16  C   UNL     1       1.996   4.743  17.770  0.00  0.00    +0.000 A 
ATOM     17  C   UNL     1       1.287   3.577  18.069  0.00  0.00    +0.000 A 
ATOM     18  C   UNL     1       1.300   3.065  19.365  0.00  0.00    +0.000 A 
ATOM     19  C   UNL     1       2.019   3.725  20.360  0.00  0.00    +0.000 A 
ATOM     20 CL   UNL     1       2.041   3.093  21.960  0.00  0.00    +0.000 Cl
ATOM     21  C   UNL     1       2.729   4.892  20.067  0.00  0.00    +0.000 A 
ENDBRANCH  14  15
ENDBRANCH  13  14
ENDBRANCH   2  13
TORSDOF 6
ENDMDL
MODEL 2
REMARK VINA RESULT:      -7.5      3.322      5.444
REMARK  Name = 
REMARK  6 active torsions:
REMARK  status: ('A' for Active; 'I' for Inactive)
REMARK    1  A    between atoms: C_2  and  O_3
REMARK    2  A    between atoms: C_2  and  C_4
REMARK    3  A    between atoms: C_5  and  C_6
REMARK    4  A    between atoms: C_5  and  C_15
REMARK    5  A    between atoms: C_6  and  C_7
REMARK    6  A    between atoms: C_7  and  C_8
REMARK                            x       y       z     vdW  Elec       q    Type
REMARK                         _______ _______ _______ _____ _____    ______ ____
ROOT
ATOM      1  C   UNL     1       4.684   5.734  18.239  0.00  0.00    +0.000 C 
ATOM      2  C   UNL     1       3.338   5.760  18.306  0.00  0.00    +0.000 C 
ENDROOT
BRANCH   2   3
ATOM      3  C   UNL     1       2.541   4.796  19.086  0.00  0.00    +0.000 A 
ATOM      4  C   UNL     1       1.786   3.812  18.439  0.00  0.00    +0.000 A 
ATOM      5  C   UNL     1       1.065   2.876  19.183  0.00  0.00    +0.000 A 
ATOM      6  C   UNL     1       1.084   2.926  20.577  0.00  0.00    +0.000 A 
ATOM      7  C   UNL     1       1.819   3.915  21.229  0.00  0.00    +0.000 A 
ATOM      8  C   UNL     1       2.553   4.844  20.488  0.00  0.00    +0.000 A 
ENDBRANCH   2   3
BRANCH   1  10
ATOM      9  O   UNL     1       6.397   5.255  19.774  0.00  0.00    +0.000 OA
ATOM     10  C   UNL     1       5.723   4.862  18.833  0.00  0.00    +0.000 C 
BRANCH  10  11
ATOM     11  O   UNL     1       5.929   3.673  18.249  0.00  0.00    +0.000 OA
ATOM     12  H   UNL     1       6.642   3.654  17.591  0.00  0.00    +0.000 HD
ENDBRANCH  10  11
ENDBRANCH   1  10
BRANCH   2  13
ATOM     13  C   UNL     1       2.461   6.818  17.629  0.00  0.00    +0.000 C 
BRANCH  13  14
ATOM     14  C   UNL     1       2.737   8.287  17.991  0.00  0.00    +0.000 C 
BRANCH  14  15
ATOM     15  C   UNL     1       1.589   8.946  18.717  0.00  0.00    +0.000 A 
ATOM     16  C   UNL     1       0.693   9.774  18.024  0.00  0.00    +0.000 A 
ATOM     17  C   UNL     1      -0.392  10.359  18.683  0.00  0.00    +0.000 A 
ATOM     18  C   UNL     1      -0.588  10.129  20.043  0.00  0.00    +0.000 A 
ATOM     19  C   UNL     1       0.304   9.319  20.741  0.00  0.00    +0.000 A 
ATOM     20 CL   UNL     1       0.061   9.030  22.420  0.00  0.00    +0.000 Cl
ATOM     21  C   UNL     1       1.390   8.731  20.088  0.00  0.00    +0.000 A 
ENDBRANCH  14  15
ENDBRANCH  13  14
ENDBRANCH   2  13
TORSDOF 6
ENDMDL
MODEL 3
REMARK VINA RESULT:      -7.5      0.164      1.304
REMARK  Name = 
REMARK  6 active torsions:
REMARK  status: ('A' for Active; 'I' for Inactive)
REMARK    1  A    between atoms: C_2  and  O_3
REMARK    2  A    between atoms: C_2  and  C_4
REMARK    3  A    between atoms: C_5  and  C_6
REMARK    4  A    between atoms: C_5  and  C_15
REMARK    5  A    between atoms: C_6  and  C_7
REMARK    6  A    between atoms: C_7  and  C_8
REMARK                            x       y       z     vdW  Elec       q    Type
REMARK                         _______ _______ _______ _____ _____    ______ ____
ROOT
ATOM      1  C   UNL     1       5.263   5.476  15.348  0.00  0.00    +0.000 C 
ATOM      2  C   UNL     1       5.178   6.204  16.480  0.00  0.00    +0.000 C 
ENDROOT
BRANCH   2   3
ATOM      3  C   UNL     1       6.323   6.458  17.374  0.00  0.00    +0.000 A 
ATOM      4  C   UNL     1       7.040   7.656  17.285  0.00  0.00    +0.000 A 
ATOM      5  C   UNL     1       8.098   7.909  18.161  0.00  0.00    +0.000 A 
ATOM      6  C   UNL     1       8.454   6.961  19.120  0.00  0.00    +0.000 A 
ATOM      7  C   UNL     1       7.757   5.757  19.202  0.00  0.00    +0.000 A 
ATOM      8  C   UNL     1       6.689   5.506  18.338  0.00  0.00    +0.000 A 
ENDBRANCH   2   3
BRANCH   1  10
ATOM      9  O   UNL     1       6.251   3.581  14.375  0.00  0.00    +0.000 OA
ATOM     10  C   UNL     1       6.368   4.761  14.669  0.00  0.00    +0.000 C 
BRANCH  10  11
ATOM     11  O   UNL     1       7.503   5.444  14.466  0.00  0.00    +0.000 OA
ATOM     12  H   UNL     1       8.229   4.932  14.077  0.00  0.00    +0.000 HD
ENDBRANCH  10  11
ENDBRANCH   1  10
BRANCH   2  13
ATOM     13  C   UNL     1       3.905   6.905  16.962  0.00  0.00    +0.000 C 
BRANCH  13  14
ATOM     14  C   UNL     1       3.536   6.737  18.445  0.00  0.00    +0.000 C 
BRANCH  14  15
ATOM     15  C   UNL     1       2.808   5.445  18.733  0.00  0.00    +0.000 A 
ATOM     16  C   UNL     1       2.036   4.828  17.738  0.00  0.00    +0.000 A 
ATOM     17  C   UNL     1       1.388   3.616  17.988  0.00  0.00    +0.000 A 
ATOM     18  C   UNL     1       1.499   3.010  19.238  0.00  0.00    +0.000 A 
ATOM     19  C   UNL     1       2.253   3.622  20.236  0.00  0.00    +0.000 A 
ATOM     20 CL   UNL     1       2.396   2.874  21.779  0.00  0.00    +0.000 Cl
ATOM     21  C   UNL     1       2.903   4.834  19.992  0.00  0.00    +0.000 A 
ENDBRANCH  14  15
ENDBRANCH  13  14
ENDBRANCH   2  13
TORSDOF 6
ENDMDL
MODEL 4
REMARK VINA RESULT:      -7.4      1.305      2.033
REMARK  Name = 
REMARK  6 active torsions:
REMARK  status: ('A' for Active; 'I' for Inactive)
REMARK    1  A    between atoms: C_2  and  O_3
REMARK    2  A    between atoms: C_2  and  C_4
REMARK    3  A    between atoms: C_5  and  C_6
REMARK    4  A    between atoms: C_5  and  C_15
REMARK    5  A    between atoms: C_6  and  C_7
REMARK    6  A    between atoms: C_7  and  C_8
REMARK                            x       y       z     vdW  Elec       q    Type
REMARK                         _______ _______ _______ _____ _____    ______ ____
ROOT
ATOM      1  C   UNL     1       4.587   4.620  15.959  0.00  0.00    +0.000 C 
ATOM      2  C   UNL     1       4.641   5.441  17.028  0.00  0.00    +0.000 C 
ENDROOT
BRANCH   2   3
ATOM      3  C   UNL     1       5.898   5.969  17.588  0.00  0.00    +0.000 A 
ATOM      4  C   UNL     1       6.456   7.150  17.089  0.00  0.00    +0.000 A 
ATOM      5  C   UNL     1       7.626   7.668  17.650  0.00  0.00    +0.000 A 
ATOM      6  C   UNL     1       8.250   7.001  18.704  0.00  0.00    +0.000 A 
ATOM      7  C   UNL     1       7.710   5.813  19.195  0.00  0.00    +0.000 A 
ATOM      8  C   UNL     1       6.533   5.300  18.646  0.00  0.00    +0.000 A 
ENDBRANCH   2   3
BRANCH   1  10
ATOM      9  O   UNL     1       5.583   4.229  13.868  0.00  0.00    +0.000 OA
ATOM     10  C   UNL     1       5.612   4.024  15.072  0.00  0.00    +0.000 C 
BRANCH  10  11
ATOM     11  O   UNL     1       6.509   3.206  15.641  0.00  0.00    +0.000 OA
ATOM     12  H   UNL     1       7.428   3.517  15.612  0.00  0.00    +0.000 HD
ENDBRANCH  10  11
ENDBRANCH   1  10
BRANCH   2  13
ATOM     13  C   UNL     1       3.411   5.976  17.767  0.00  0.00    +0.000 C 
BRANCH  13  14
ATOM     14  C   UNL     1       2.216   5.020  17.913  0.00  0.00    +0.000 C 
BRANCH  14  15
ATOM     15  C   UNL     1       2.284   4.170  19.160  0.00  0.00    +0.000 A 
ATOM     16  C   UNL     1       1.205   4.138  20.056  0.00  0.00    +0.000 A 
ATOM     17  C   UNL     1       1.248   3.327  21.194  0.00  0.00    +0.000 A 
ATOM     18  C   UNL     1       2.373   2.545  21.452  0.00  0.00    +0.000 A 
ATOM     19  C   UNL     1       3.453   2.582  20.573  0.00  0.00    +0.000 A 
ATOM     20 CL   UNL     1       4.841   1.614  20.887  0.00  0.00    +0.000 Cl
ATOM     21  C   UNL     1       3.416   3.390  19.435  0.00  0.00    +0.000 A 
ENDBRANCH  14  15
ENDBRANCH  13  14
ENDBRANCH   2  13
TORSDOF 6
ENDMDL
MODEL 5
REMARK VINA RESULT:      -7.4      3.393      5.527
REMARK  Name = 
REMARK  6 active torsions:
REMARK  status: ('A' for Active; 'I' for Inactive)
REMARK    1  A    between atoms: C_2  and  O_3
REMARK    2  A    between atoms: C_2  and  C_4
REMARK    3  A    between atoms: C_5  and  C_6
REMARK    4  A    between atoms: C_5  and  C_15
REMARK    5  A    between atoms: C_6  and  C_7
REMARK    6  A    between atoms: C_7  and  C_8
REMARK                            x       y       z     vdW  Elec       q    Type
REMARK                         _______ _______ _______ _____ _____    ______ ____
ROOT
ATOM      1  C   UNL     1       4.589   5.900  18.199  0.00  0.00    +0.000 C 
ATOM      2  C   UNL     1       3.241   5.907  18.165  0.00  0.00    +0.000 C 
ENDROOT
BRANCH   2   3
ATOM      3  C   UNL     1       2.404   4.842  18.748  0.00  0.00    +0.000 A 
ATOM      4  C   UNL     1       1.944   4.944  20.065  0.00  0.00    +0.000 A 
ATOM      5  C   UNL     1       1.118   3.952  20.600  0.00  0.00    +0.000 A 
ATOM      6  C   UNL     1       0.760   2.849  19.826  0.00  0.00    +0.000 A 
ATOM      7  C   UNL     1       1.230   2.731  18.519  0.00  0.00    +0.000 A 
ATOM      8  C   UNL     1       2.044   3.727  17.976  0.00  0.00    +0.000 A 
ENDBRANCH   2   3
BRANCH   1  10
ATOM      9  O   UNL     1       6.268   5.281  19.721  0.00  0.00    +0.000 OA
ATOM     10  C   UNL     1       5.595   4.963  18.752  0.00  0.00    +0.000 C 
BRANCH  10  11
ATOM     11  O   UNL     1       5.773   3.806  18.101  0.00  0.00    +0.000 OA
ATOM     12  H   UNL     1       5.690   3.858  17.136  0.00  0.00    +0.000 HD
ENDBRANCH  10  11
ENDBRANCH   1  10
BRANCH   2  13
ATOM     13  C   UNL     1       2.400   7.038  17.567  0.00  0.00    +0.000 C 
BRANCH  13  14
ATOM     14  C   UNL     1       2.674   8.459  18.087  0.00  0.00    +0.000 C 
BRANCH  14  15
ATOM     15  C   UNL     1       1.488   9.072  18.792  0.00  0.00    +0.000 A 
ATOM     16  C   UNL     1       0.582   9.880  18.088  0.00  0.00    +0.000 A 
ATOM     17  C   UNL     1      -0.536  10.422  18.727  0.00  0.00    +0.000 A 
ATOM     18  C   UNL     1      -0.757  10.169  20.080  0.00  0.00    +0.000 A 
ATOM     19  C   UNL     1       0.144   9.379  20.790  0.00  0.00    +0.000 A 
ATOM     20 CL   UNL     1      -0.130   9.061  22.459  0.00  0.00    +0.000 Cl
ATOM     21  C   UNL     1       1.263   8.834  20.156  0.00  0.00    +0.000 A 
ENDBRANCH  14  15
ENDBRANCH  13  14
ENDBRANCH   2  13
TORSDOF 6
ENDMDL
MODEL 6
REMARK VINA RESULT:      -7.3      2.017      2.916
REMARK  Name = 
REMARK  6 active torsions:
REMARK  status: ('A' for Active; 'I' for Inactive)
REMARK    1  A    between atoms: C_2  and  O_3
REMARK    2  A    between atoms: C_2  and  C_4
REMARK    3  A    between atoms: C_5  and  C_6
REMARK    4  A    between atoms: C_5  and  C_15
REMARK    5  A    between atoms: C_6  and  C_7
REMARK    6  A    between atoms: C_7  and  C_8
REMARK                            x       y       z     vdW  Elec       q    Type
REMARK                         _______ _______ _______ _____ _____    ______ ____
ROOT
ATOM      1  C   UNL     1       5.323   4.433  15.274  0.00  0.00    +0.000 C 
ATOM      2  C   UNL     1       5.138   4.986  16.489  0.00  0.00    +0.000 C 
ENDROOT
BRANCH   2   3
ATOM      3  C   UNL     1       6.199   5.682  17.239  0.00  0.00    +0.000 A 
ATOM      4  C   UNL     1       6.472   7.032  16.992  0.00  0.00    +0.000 A 
ATOM      5  C   UNL     1       7.451   7.698  17.734  0.00  0.00    +0.000 A 
ATOM      6  C   UNL     1       8.170   7.015  18.715  0.00  0.00    +0.000 A 
ATOM      7  C   UNL     1       7.917   5.666  18.953  0.00  0.00    +0.000 A 
ATOM      8  C   UNL     1       6.929   5.001  18.224  0.00  0.00    +0.000 A 
ENDBRANCH   2   3
BRANCH   1  10
ATOM      9  O   UNL     1       7.366   5.176  14.381  0.00  0.00    +0.000 OA
ATOM     10  C   UNL     1       6.486   4.328  14.362  0.00  0.00    +0.000 C 
BRANCH  10  11
ATOM     11  O   UNL     1       6.484   3.315  13.485  0.00  0.00    +0.000 OA
ATOM     12  H   UNL     1       7.356   3.061  13.145  0.00  0.00    +0.000 HD
ENDBRANCH  10  11
ENDBRANCH   1  10
BRANCH   2  13
ATOM     13  C   UNL     1       3.798   5.013  17.229  0.00  0.00    +0.000 C 
BRANCH  13  14
ATOM     14  C   UNL     1       3.799   5.594  18.652  0.00  0.00    +0.000 C 
BRANCH  14  15
ATOM     15  C   UNL     1       2.978   6.856  18.780  0.00  0.00    +0.000 A 
ATOM     16  C   UNL     1       2.906   7.766  17.715  0.00  0.00    +0.000 A 
ATOM     17  C   UNL     1       2.121   8.918  17.815  0.00  0.00    +0.000 A 
ATOM     18  C   UNL     1       1.405   9.176  18.982  0.00  0.00    +0.000 A 
ATOM     19  C   UNL     1       1.482   8.283  20.049  0.00  0.00    +0.000 A 
ATOM     20 CL   UNL     1       0.595   8.597  21.490  0.00  0.00    +0.000 Cl
ATOM     21  C   UNL     1       2.264   7.130  19.955  0.00  0.00    +0.000 A 
ENDBRANCH  14  15
ENDBRANCH  13  14
ENDBRANCH   2  13
TORSDOF 6
ENDMDL
MODEL 7
REMARK VINA RESULT:      -7.3      2.033      2.789
REMARK  Name = 
REMARK  6 active torsions:
REMARK  status: ('A' for Active; 'I' for Inactive)
REMARK    1  A    between atoms: C_2  and  O_3
REMARK    2  A    between atoms: C_2  and  C_4
REMARK    3  A    between atoms: C_5  and  C_6
REMARK    4  A    between atoms: C_5  and  C_15
REMARK    5  A    between atoms: C_6  and  C_7
REMARK    6  A    between atoms: C_7  and  C_8
REMARK                            x       y       z     vdW  Elec       q    Type
REMARK                         _______ _______ _______ _____ _____    ______ ____
ROOT
ATOM      1  C   UNL     1       5.136   4.453  15.398  0.00  0.00    +0.000 C 
ATOM      2  C   UNL     1       4.989   5.000  16.621  0.00  0.00    +0.000 C 
ENDROOT
BRANCH   2   3
ATOM      3  C   UNL     1       6.068   5.710  17.333  0.00  0.00    +0.000 A 
ATOM      4  C   UNL     1       6.827   5.051  18.306  0.00  0.00    +0.000 A 
ATOM      5  C   UNL     1       7.875   5.716  18.948  0.00  0.00    +0.000 A 
ATOM      6  C   UNL     1       8.159   7.044  18.632  0.00  0.00    +0.000 A 
ATOM      7  C   UNL     1       7.395   7.712  17.677  0.00  0.00    +0.000 A 
ATOM      8  C   UNL     1       6.356   7.047  17.022  0.00  0.00    +0.000 A 
ENDBRANCH   2   3
BRANCH   1  10
ATOM      9  O   UNL     1       7.022   5.313  14.293  0.00  0.00    +0.000 OA
ATOM     10  C   UNL     1       6.266   4.366  14.443  0.00  0.00    +0.000 C 
BRANCH  10  11
ATOM     11  O   UNL     1       6.365   3.243  13.718  0.00  0.00    +0.000 OA
ATOM     12  H   UNL     1       5.677   2.581  13.885  0.00  0.00    +0.000 HD
ENDBRANCH  10  11
ENDBRANCH   1  10
BRANCH   2  13
ATOM     13  C   UNL     1       3.677   5.007  17.410  0.00  0.00    +0.000 C 
BRANCH  13  14
ATOM     14  C   UNL     1       3.701   5.674  18.796  0.00  0.00    +0.000 C 
BRANCH  14  15
ATOM     15  C   UNL     1       2.888   6.946  18.857  0.00  0.00    +0.000 A 
ATOM     16  C   UNL     1       2.839   7.811  17.754  0.00  0.00    +0.000 A 
ATOM     17  C   UNL     1       2.061   8.971  17.792  0.00  0.00    +0.000 A 
ATOM     18  C   UNL     1       1.330   9.284  18.937  0.00  0.00    +0.000 A 
ATOM     19  C   UNL     1       1.383   8.436  20.041  0.00  0.00    +0.000 A 
ATOM     20 CL   UNL     1       0.477   8.818  21.454  0.00  0.00    +0.000 Cl
ATOM     21  C   UNL     1       2.158   7.275  20.009  0.00  0.00    +0.000 A 
ENDBRANCH  14  15
ENDBRANCH  13  14
ENDBRANCH   2  13
TORSDOF 6
ENDMDL
MODEL 8
REMARK VINA RESULT:      -7.3      1.234      1.969
REMARK  Name = 
REMARK  6 active torsions:
REMARK  status: ('A' for Active; 'I' for Inactive)
REMARK    1  A    between atoms: C_2  and  O_3
REMARK    2  A    between atoms: C_2  and  C_4
REMARK    3  A    between atoms: C_5  and  C_6
REMARK    4  A    between atoms: C_5  and  C_15
REMARK    5  A    between atoms: C_6  and  C_7
REMARK    6  A    between atoms: C_7  and  C_8
REMARK                            x       y       z     vdW  Elec       q    Type
REMARK                         _______ _______ _______ _____ _____    ______ ____
ROOT
ATOM      1  C   UNL     1       5.822   3.806  14.768  0.00  0.00    +0.000 C 
ATOM      2  C   UNL     1       5.578   4.032  16.075  0.00  0.00    +0.000 C 
ENDROOT
BRANCH   2   3
ATOM      3  C   UNL     1       6.288   5.048  16.873  0.00  0.00    +0.000 A 
ATOM      4  C   UNL     1       7.278   4.668  17.785  0.00  0.00    +0.000 A 
ATOM      5  C   UNL     1       7.976   5.637  18.510  0.00  0.00    +0.000 A 
ATOM      6  C   UNL     1       7.678   6.988  18.337  0.00  0.00    +0.000 A 
ATOM      7  C   UNL     1       6.680   7.374  17.444  0.00  0.00    +0.000 A 
ATOM      8  C   UNL     1       5.990   6.409  16.707  0.00  0.00    +0.000 A 
ENDBRANCH   2   3
BRANCH   1  10
ATOM      9  O   UNL     1       6.721   4.049  12.611  0.00  0.00    +0.000 OA
ATOM     10  C   UNL     1       6.755   4.399  13.782  0.00  0.00    +0.000 C 
BRANCH  10  11
ATOM     11  O   UNL     1       7.664   5.267  14.247  0.00  0.00    +0.000 OA
ATOM     12  H   UNL     1       8.442   5.392  13.682  0.00  0.00    +0.000 HD
ENDBRANCH  10  11
ENDBRANCH   1  10
BRANCH   2  13
ATOM     13  C   UNL     1       4.502   3.308  16.888  0.00  0.00    +0.000 C 
BRANCH  13  14
ATOM     14  C   UNL     1       3.104   3.947  16.919  0.00  0.00    +0.000 C 
BRANCH  14  15
ATOM     15  C   UNL     1       2.686   4.397  18.299  0.00  0.00    +0.000 A 
ATOM     16  C   UNL     1       2.677   5.760  18.629  0.00  0.00    +0.000 A 
ATOM     17  C   UNL     1       2.258   6.185  19.892  0.00  0.00    +0.000 A 
ATOM     18  C   UNL     1       1.852   5.251  20.844  0.00  0.00    +0.000 A 
ATOM     19  C   UNL     1       1.871   3.894  20.529  0.00  0.00    +0.000 A 
ATOM     20 CL   UNL     1       1.365   2.739  21.700  0.00  0.00    +0.000 Cl
ATOM     21  C   UNL     1       2.287   3.464  19.267  0.00  0.00    +0.000 A 
ENDBRANCH  14  15
ENDBRANCH  13  14
ENDBRANCH   2  13
TORSDOF 6
ENDMDL
MODEL 9
REMARK VINA RESULT:      -7.2      3.366      6.316
REMARK  Name = 
REMARK  6 active torsions:
REMARK  status: ('A' for Active; 'I' for Inactive)
REMARK    1  A    between atoms: C_2  and  O_3
REMARK    2  A    between atoms: C_2  and  C_4
REMARK    3  A    between atoms: C_5  and  C_6
REMARK    4  A    between atoms: C_5  and  C_15
REMARK    5  A    between atoms: C_6  and  C_7
REMARK    6  A    between atoms: C_7  and  C_8
REMARK                            x       y       z     vdW  Elec       q    Type
REMARK                         _______ _______ _______ _____ _____    ______ ____
ROOT
ATOM      1  C   UNL     1       3.060   6.727  17.791  0.00  0.00    +0.000 C 
ATOM      2  C   UNL     1       3.215   5.392  17.899  0.00  0.00    +0.000 C 
ENDROOT
BRANCH   2   3
ATOM      3  C   UNL     1       2.519   4.568  18.905  0.00  0.00    +0.000 A 
ATOM      4  C   UNL     1       2.956   4.553  20.234  0.00  0.00    +0.000 A 
ATOM      5  C   UNL     1       2.269   3.803  21.191  0.00  0.00    +0.000 A 
ATOM      6  C   UNL     1       1.151   3.055  20.823  0.00  0.00    +0.000 A 
ATOM      7  C   UNL     1       0.720   3.051  19.497  0.00  0.00    +0.000 A 
ATOM      8  C   UNL     1       1.396   3.810  18.540  0.00  0.00    +0.000 A 
ENDBRANCH   2   3
BRANCH   1  10
ATOM      9  O   UNL     1       2.198   7.698  19.749  0.00  0.00    +0.000 OA
ATOM     10  C   UNL     1       2.255   7.728  18.528  0.00  0.00    +0.000 C 
BRANCH  10  11
ATOM     11  O   UNL     1       1.551   8.603  17.796  0.00  0.00    +0.000 OA
ATOM     12  H   UNL     1       1.473   9.491  18.178  0.00  0.00    +0.000 HD
ENDBRANCH  10  11
ENDBRANCH   1  10
BRANCH   2  13
ATOM     13  C   UNL     1       4.086   4.546  16.966  0.00  0.00    +0.000 C 
BRANCH  13  14
ATOM     14  C   UNL     1       5.235   5.268  16.242  0.00  0.00    +0.000 C 
BRANCH  14  15
ATOM     15  C   UNL     1       6.285   5.808  17.184  0.00  0.00    +0.000 A 
ATOM     16  C   UNL     1       6.867   4.975  18.152  0.00  0.00    +0.000 A 
ATOM     17  C   UNL     1       7.863   5.459  19.003  0.00  0.00    +0.000 A 
ATOM     18  C   UNL     1       8.284   6.784  18.903  0.00  0.00    +0.000 A 
ATOM     19  C   UNL     1       7.702   7.621  17.954  0.00  0.00    +0.000 A 
ATOM     20 CL   UNL     1       8.223   9.256  17.825  0.00  0.00    +0.000 Cl
ATOM     21  C   UNL     1       6.706   7.143  17.100  0.00  0.00    +0.000 A 
ENDBRANCH  14  15
ENDBRANCH  13  14
ENDBRANCH   2  13
TORSDOF 6
ENDMDL
