MODEL 1
REMARK VINA RESULT:      -6.6      0.000      0.000
REMARK  Name = 
REMARK  13 active torsions:
REMARK  status: ('A' for Active; 'I' for Inactive)
REMARK    1  A    between atoms: C_1  and  O_2
REMARK    2  A    between atoms: O_2  and  C_3
REMARK    3  A    between atoms: C_6  and  C_7
REMARK    4  A    between atoms: C_7  and  N_8
REMARK    5  A    between atoms: N_8  and  C_9
REMARK    6  A    between atoms: C_9  and  C_10
REMARK    7  A    between atoms: C_10  and  C_11
REMARK    8  A    between atoms: C_11  and  C_12
REMARK    9  A    between atoms: C_12  and  N_13
REMARK   10  A    between atoms: N_13  and  C_14
REMARK   11  A    between atoms: C_14  and  C_15
REMARK   12  A    between atoms: C_18  and  O_19
REMARK   13  A    between atoms: O_19  and  C_20
REMARK                            x       y       z     vdW  Elec       q    Type
REMARK                         _______ _______ _______ _____ _____    ______ ____
ROOT
ATOM      1  C   UNL     1       2.351   2.063  18.980  0.00  0.00    +0.000 C 
ENDROOT
BRANCH   1   2
ATOM      2  C   UNL     1       2.811   2.701  17.670  0.00  0.00    +0.000 C 
BRANCH   2   3
ATOM      3  N   UNL     1       4.181   3.146  17.834  0.00  0.00    +0.000 NA
ATOM      4  H   UNL     1       4.279   3.674  18.698  0.00  0.00    +0.000 HD
BRANCH   3   5
ATOM      5  C   UNL     1       4.612   3.976  16.713  0.00  0.00    +0.000 C 
BRANCH   5   9
ATOM      6  C   UNL     1       7.480   6.916  18.052  0.00  0.00    +0.000 A 
ATOM      7  C   UNL     1       7.555   5.601  18.512  0.00  0.00    +0.000 A 
ATOM      8  C   UNL     1       6.637   4.651  18.060  0.00  0.00    +0.000 A 
ATOM      9  C   UNL     1       5.612   5.009  17.172  0.00  0.00    +0.000 A 
ATOM     10  C   UNL     1       5.536   6.331  16.725  0.00  0.00    +0.000 A 
ATOM     11  C   UNL     1       6.471   7.277  17.163  0.00  0.00    +0.000 A 
BRANCH   6  13
ATOM     12  C   UNL     1       8.347   9.101  18.036  0.00  0.00    +0.000 C 
ATOM     13  O   UNL     1       8.413   7.780  18.561  0.00  0.00    +0.000 OA
ENDBRANCH   6  13
ENDBRANCH   5   9
ENDBRANCH   3   5
ENDBRANCH   2   3
ENDBRANCH   1   2
BRANCH   1  14
ATOM     14  C   UNL     1       1.508   3.026  19.808  0.00  0.00    +0.000 C 
BRANCH  14  15
ATOM     15  C   UNL     1       2.324   3.659  20.934  0.00  0.00    +0.000 C 
BRANCH  15  16
ATOM     16  N   UNL     1       2.065   5.089  20.953  0.00  0.00    +0.000 NA
ATOM     17  H   UNL     1       2.274   5.466  21.874  0.00  0.00    +0.000 HD
BRANCH  16  18
ATOM     18  C   UNL     1       2.902   5.773  19.965  0.00  0.00    +0.000 C 
BRANCH  18  19
ATOM     19  C   UNL     1       2.304   7.099  19.555  0.00  0.00    +0.000 A 
ATOM     20  C   UNL     1       1.659   7.932  20.474  0.00  0.00    +0.000 A 
ATOM     21  C   UNL     1       1.143   9.167  20.063  0.00  0.00    +0.000 A 
ATOM     22  C   UNL     1       1.286   9.597  18.744  0.00  0.00    +0.000 A 
ATOM     23  C   UNL     1       1.916   8.768  17.819  0.00  0.00    +0.000 A 
ATOM     24  C   UNL     1       2.422   7.524  18.224  0.00  0.00    +0.000 A 
BRANCH  22  25
ATOM     25  O   UNL     1       0.729  10.816  18.464  0.00  0.00    +0.000 OA
ATOM     26  C   UNL     1      -0.226  11.282  19.406  0.00  0.00    +0.000 C 
ENDBRANCH  22  25
ENDBRANCH  18  19
ENDBRANCH  16  18
ENDBRANCH  15  16
ENDBRANCH  14  15
ENDBRANCH   1  14
TORSDOF 11
ENDMDL
MODEL 2
REMARK VINA RESULT:      -6.5      0.847      1.573
REMARK  Name = 
REMARK  13 active torsions:
REMARK  status: ('A' for Active; 'I' for Inactive)
REMARK    1  A    between atoms: C_1  and  O_2
REMARK    2  A    between atoms: O_2  and  C_3
REMARK    3  A    between atoms: C_6  and  C_7
REMARK    4  A    between atoms: C_7  and  N_8
REMARK    5  A    between atoms: N_8  and  C_9
REMARK    6  A    between atoms: C_9  and  C_10
REMARK    7  A    between atoms: C_10  and  C_11
REMARK    8  A    between atoms: C_11  and  C_12
REMARK    9  A    between atoms: C_12  and  N_13
REMARK   10  A    between atoms: N_13  and  C_14
REMARK   11  A    between atoms: C_14  and  C_15
REMARK   12  A    between atoms: C_18  and  O_19
REMARK   13  A    between atoms: O_19  and  C_20
REMARK                            x       y       z     vdW  Elec       q    Type
REMARK                         _______ _______ _______ _____ _____    ______ ____
ROOT
ATOM      1  C   UNL     1       1.981   2.771  18.491  0.00  0.00    +0.000 C 
ENDROOT
BRANCH   1   2
ATOM      2  C   UNL     1       3.010   1.945  17.722  0.00  0.00    +0.000 C 
BRANCH   2   3
ATOM      3  N   UNL     1       4.287   2.630  17.786  0.00  0.00    +0.000 NA
ATOM      4  H   UNL     1       4.500   2.888  18.746  0.00  0.00    +0.000 HD
BRANCH   3   5
ATOM      5  C   UNL     1       4.294   3.829  16.953  0.00  0.00    +0.000 C 
BRANCH   5   9
ATOM      6  C   UNL     1       7.358   6.584  18.250  0.00  0.00    +0.000 A 
ATOM      7  C   UNL     1       6.855   6.654  16.951  0.00  0.00    +0.000 A 
ATOM      8  C   UNL     1       5.850   5.773  16.544  0.00  0.00    +0.000 A 
ATOM      9  C   UNL     1       5.361   4.789  17.416  0.00  0.00    +0.000 A 
ATOM     10  C   UNL     1       5.879   4.718  18.713  0.00  0.00    +0.000 A 
ATOM     11  C   UNL     1       6.871   5.616  19.125  0.00  0.00    +0.000 A 
BRANCH   6  13
ATOM     12  C   UNL     1       8.170   8.775  17.995  0.00  0.00    +0.000 C 
ATOM     13  O   UNL     1       8.350   7.478  18.554  0.00  0.00    +0.000 OA
ENDBRANCH   6  13
ENDBRANCH   5   9
ENDBRANCH   3   5
ENDBRANCH   2   3
ENDBRANCH   1   2
BRANCH   1  14
ATOM     14  C   UNL     1       1.481   2.033  19.729  0.00  0.00    +0.000 C 
BRANCH  14  15
ATOM     15  C   UNL     1       1.414   2.957  20.943  0.00  0.00    +0.000 C 
BRANCH  15  16
ATOM     16  N   UNL     1       1.117   4.307  20.490  0.00  0.00    +0.000 NA
ATOM     17  H   UNL     1       0.275   4.647  20.946  0.00  0.00    +0.000 HD
BRANCH  16  18
ATOM     18  C   UNL     1       2.224   5.209  20.815  0.00  0.00    +0.000 C 
BRANCH  18  19
ATOM     19  C   UNL     1       2.100   6.524  20.080  0.00  0.00    +0.000 A 
ATOM     20  C   UNL     1       2.528   6.672  18.758  0.00  0.00    +0.000 A 
ATOM     21  C   UNL     1       2.369   7.897  18.099  0.00  0.00    +0.000 A 
ATOM     22  C   UNL     1       1.761   8.978  18.740  0.00  0.00    +0.000 A 
ATOM     23  C   UNL     1       1.343   8.843  20.061  0.00  0.00    +0.000 A 
ATOM     24  C   UNL     1       1.512   7.620  20.728  0.00  0.00    +0.000 A 
BRANCH  22  25
ATOM     25  O   UNL     1       1.674  10.124  17.995  0.00  0.00    +0.000 OA
ATOM     26  C   UNL     1       0.981  11.200  18.609  0.00  0.00    +0.000 C 
ENDBRANCH  22  25
ENDBRANCH  18  19
ENDBRANCH  16  18
ENDBRANCH  15  16
ENDBRANCH  14  15
ENDBRANCH   1  14
TORSDOF 11
ENDMDL
MODEL 3
REMARK VINA RESULT:      -6.5      1.012      1.539
REMARK  Name = 
REMARK  13 active torsions:
REMARK  status: ('A' for Active; 'I' for Inactive)
REMARK    1  A    between atoms: C_1  and  O_2
REMARK    2  A    between atoms: O_2  and  C_3
REMARK    3  A    between atoms: C_6  and  C_7
REMARK    4  A    between atoms: C_7  and  N_8
REMARK    5  A    between atoms: N_8  and  C_9
REMARK    6  A    between atoms: C_9  and  C_10
REMARK    7  A    between atoms: C_10  and  C_11
REMARK    8  A    between atoms: C_11  and  C_12
REMARK    9  A    between atoms: C_12  and  N_13
REMARK   10  A    between atoms: N_13  and  C_14
REMARK   11  A    between atoms: C_14  and  C_15
REMARK   12  A    between atoms: C_18  and  O_19
REMARK   13  A    between atoms: O_19  and  C_20
REMARK                            x       y       z     vdW  Elec       q    Type
REMARK                         _______ _______ _______ _____ _____    ______ ____
ROOT
ATOM      1  C   UNL     1       2.615   2.417  20.637  0.00  0.00    +0.000 C 
ENDROOT
BRANCH   1   2
ATOM      2  C   UNL     1       3.174   1.746  19.384  0.00  0.00    +0.000 C 
BRANCH   2   3
ATOM      3  N   UNL     1       4.314   2.513  18.922  0.00  0.00    +0.000 NA
ATOM      4  H   UNL     1       4.536   3.248  19.590  0.00  0.00    +0.000 HD
BRANCH   3   5
ATOM      5  C   UNL     1       4.063   3.112  17.615  0.00  0.00    +0.000 C 
BRANCH   5   9
ATOM      6  C   UNL     1       6.913   6.265  16.847  0.00  0.00    +0.000 A 
ATOM      7  C   UNL     1       6.990   5.519  18.023  0.00  0.00    +0.000 A 
ATOM      8  C   UNL     1       6.078   4.488  18.256  0.00  0.00    +0.000 A 
ATOM      9  C   UNL     1       5.056   4.212  17.336  0.00  0.00    +0.000 A 
ATOM     10  C   UNL     1       4.978   4.972  16.165  0.00  0.00    +0.000 A 
ATOM     11  C   UNL     1       5.908   5.991  15.924  0.00  0.00    +0.000 A 
BRANCH   6  13
ATOM     12  C   UNL     1       7.723   8.315  17.664  0.00  0.00    +0.000 C 
ATOM     13  O   UNL     1       7.841   7.263  16.712  0.00  0.00    +0.000 OA
ENDBRANCH   6  13
ENDBRANCH   5   9
ENDBRANCH   3   5
ENDBRANCH   2   3
ENDBRANCH   1   2
BRANCH   1  14
ATOM     14  C   UNL     1       1.219   2.982  20.396  0.00  0.00    +0.000 C 
BRANCH  14  15
ATOM     15  C   UNL     1       1.214   4.508  20.451  0.00  0.00    +0.000 C 
BRANCH  15  16
ATOM     16  N   UNL     1       1.902   5.022  19.277  0.00  0.00    +0.000 NA
ATOM     17  H   UNL     1       1.225   5.390  18.614  0.00  0.00    +0.000 HD
BRANCH  16  18
ATOM     18  C   UNL     1       2.822   6.097  19.654  0.00  0.00    +0.000 C 
BRANCH  18  19
ATOM     19  C   UNL     1       2.221   7.458  19.391  0.00  0.00    +0.000 A 
ATOM     20  C   UNL     1       2.269   8.053  18.128  0.00  0.00    +0.000 A 
ATOM     21  C   UNL     1       1.674   9.302  17.914  0.00  0.00    +0.000 A 
ATOM     22  C   UNL     1       1.004   9.959  18.946  0.00  0.00    +0.000 A 
ATOM     23  C   UNL     1       0.962   9.379  20.212  0.00  0.00    +0.000 A 
ATOM     24  C   UNL     1       1.568   8.134  20.432  0.00  0.00    +0.000 A 
BRANCH  22  25
ATOM     25  O   UNL     1       0.475  11.178  18.616  0.00  0.00    +0.000 OA
ATOM     26  C   UNL     1       0.368  12.107  19.684  0.00  0.00    +0.000 C 
ENDBRANCH  22  25
ENDBRANCH  18  19
ENDBRANCH  16  18
ENDBRANCH  15  16
ENDBRANCH  14  15
ENDBRANCH   1  14
TORSDOF 11
ENDMDL
MODEL 4
REMARK VINA RESULT:      -6.4      3.738      6.659
REMARK  Name = 
REMARK  13 active torsions:
REMARK  status: ('A' for Active; 'I' for Inactive)
REMARK    1  A    between atoms: C_1  and  O_2
REMARK    2  A    between atoms: O_2  and  C_3
REMARK    3  A    between atoms: C_6  and  C_7
REMARK    4  A    between atoms: C_7  and  N_8
REMARK    5  A    between atoms: N_8  and  C_9
REMARK    6  A    between atoms: C_9  and  C_10
REMARK    7  A    between atoms: C_10  and  C_11
REMARK    8  A    between atoms: C_11  and  C_12
REMARK    9  A    between atoms: C_12  and  N_13
REMARK   10  A    between atoms: N_13  and  C_14
REMARK   11  A    between atoms: C_14  and  C_15
REMARK   12  A    between atoms: C_18  and  O_19
REMARK   13  A    between atoms: O_19  and  C_20
REMARK                            x       y       z     vdW  Elec       q    Type
REMARK                         _______ _______ _______ _____ _____    ______ ____
ROOT
ATOM      1  C   UNL     1       7.967   6.808  18.601  0.00  0.00    +0.000 C 
ENDROOT
BRANCH   1   2
ATOM      2  C   UNL     1       7.673   7.718  17.409  0.00  0.00    +0.000 C 
BRANCH   2   3
ATOM      3  N   UNL     1       7.791   9.096  17.845  0.00  0.00    +0.000 NA
ATOM      4  H   UNL     1       7.970   9.702  17.048  0.00  0.00    +0.000 HD
BRANCH   3   5
ATOM      5  C   UNL     1       8.862   9.259  18.823  0.00  0.00    +0.000 C 
BRANCH   5   9
ATOM      6  C   UNL     1      10.328  13.322  18.845  0.00  0.00    +0.000 A 
ATOM      7  C   UNL     1      10.822  12.391  19.759  0.00  0.00    +0.000 A 
ATOM      8  C   UNL     1      10.359  11.075  19.734  0.00  0.00    +0.000 A 
ATOM      9  C   UNL     1       9.371  10.679  18.820  0.00  0.00    +0.000 A 
ATOM     10  C   UNL     1       8.872  11.620  17.915  0.00  0.00    +0.000 A 
ATOM     11  C   UNL     1       9.354  12.934  17.929  0.00  0.00    +0.000 A 
BRANCH   6  13
ATOM     12  C   UNL     1      12.169  14.659  19.436  0.00  0.00    +0.000 C 
ATOM     13  O   UNL     1      10.831  14.591  18.955  0.00  0.00    +0.000 OA
ENDBRANCH   6  13
ENDBRANCH   5   9
ENDBRANCH   3   5
ENDBRANCH   2   3
ENDBRANCH   1   2
BRANCH   1  14
ATOM     14  C   UNL     1       7.549   5.368  18.325  0.00  0.00    +0.000 C 
BRANCH  14  15
ATOM     15  C   UNL     1       6.965   5.213  16.922  0.00  0.00    +0.000 C 
BRANCH  15  16
ATOM     16  N   UNL     1       6.256   3.946  16.846  0.00  0.00    +0.000 NA
ATOM     17  H   UNL     1       6.206   3.523  17.769  0.00  0.00    +0.000 HD
BRANCH  16  18
ATOM     18  C   UNL     1       4.894   4.152  16.350  0.00  0.00    +0.000 C 
BRANCH  18  19
ATOM     19  C   UNL     1       3.863   3.772  17.388  0.00  0.00    +0.000 A 
ATOM     20  C   UNL     1       3.145   4.735  18.100  0.00  0.00    +0.000 A 
ATOM     21  C   UNL     1       2.175   4.345  19.033  0.00  0.00    +0.000 A 
ATOM     22  C   UNL     1       1.894   2.995  19.247  0.00  0.00    +0.000 A 
ATOM     23  C   UNL     1       2.615   2.028  18.550  0.00  0.00    +0.000 A 
ATOM     24  C   UNL     1       3.595   2.416  17.625  0.00  0.00    +0.000 A 
BRANCH  22  25
ATOM     25  O   UNL     1       0.936   2.741  20.191  0.00  0.00    +0.000 OA
ATOM     26  C   UNL     1       1.363   2.856  21.541  0.00  0.00    +0.000 C 
ENDBRANCH  22  25
ENDBRANCH  18  19
ENDBRANCH  16  18
ENDBRANCH  15  16
ENDBRANCH  14  15
ENDBRANCH   1  14
TORSDOF 11
ENDMDL
MODEL 5
REMARK VINA RESULT:      -6.4      0.897      5.985
REMARK  Name = 
REMARK  13 active torsions:
REMARK  status: ('A' for Active; 'I' for Inactive)
REMARK    1  A    between atoms: C_1  and  O_2
REMARK    2  A    between atoms: O_2  and  C_3
REMARK    3  A    between atoms: C_6  and  C_7
REMARK    4  A    between atoms: C_7  and  N_8
REMARK    5  A    between atoms: N_8  and  C_9
REMARK    6  A    between atoms: C_9  and  C_10
REMARK    7  A    between atoms: C_10  and  C_11
REMARK    8  A    between atoms: C_11  and  C_12
REMARK    9  A    between atoms: C_12  and  N_13
REMARK   10  A    between atoms: N_13  and  C_14
REMARK   11  A    between atoms: C_14  and  C_15
REMARK   12  A    between atoms: C_18  and  O_19
REMARK   13  A    between atoms: O_19  and  C_20
REMARK                            x       y       z     vdW  Elec       q    Type
REMARK                         _______ _______ _______ _____ _____    ______ ____
ROOT
ATOM      1  C   UNL     1       3.883   3.406  20.027  0.00  0.00    +0.000 C 
ENDROOT
BRANCH   1   2
ATOM      2  C   UNL     1       2.897   4.524  20.361  0.00  0.00    +0.000 C 
BRANCH   2   3
ATOM      3  N   UNL     1       3.446   5.777  19.879  0.00  0.00    +0.000 NA
ATOM      4  H   UNL     1       3.410   6.482  20.612  0.00  0.00    +0.000 HD
BRANCH   3   5
ATOM      5  C   UNL     1       2.722   6.264  18.709  0.00  0.00    +0.000 C 
BRANCH   5   9
ATOM      6  C   UNL     1       1.059  10.180  19.455  0.00  0.00    +0.000 A 
ATOM      7  C   UNL     1       1.598   9.871  18.205  0.00  0.00    +0.000 A 
ATOM      8  C   UNL     1       2.116   8.598  17.964  0.00  0.00    +0.000 A 
ATOM      9  C   UNL     1       2.135   7.627  18.977  0.00  0.00    +0.000 A 
ATOM     10  C   UNL     1       1.604   7.947  20.230  0.00  0.00    +0.000 A 
ATOM     11  C   UNL     1       1.066   9.219  20.462  0.00  0.00    +0.000 A 
BRANCH   6  13
ATOM     12  C   UNL     1       0.424  11.877  20.952  0.00  0.00    +0.000 C 
ATOM     13  O   UNL     1       0.587  11.457  19.602  0.00  0.00    +0.000 OA
ENDBRANCH   6  13
ENDBRANCH   5   9
ENDBRANCH   3   5
ENDBRANCH   2   3
ENDBRANCH   1   2
BRANCH   1  14
ATOM     14  C   UNL     1       3.237   2.328  19.164  0.00  0.00    +0.000 C 
BRANCH  14  15
ATOM     15  C   UNL     1       3.276   2.698  17.683  0.00  0.00    +0.000 C 
BRANCH  15  16
ATOM     16  N   UNL     1       4.660   2.905  17.287  0.00  0.00    +0.000 NA
ATOM     17  H   UNL     1       4.995   2.099  16.766  0.00  0.00    +0.000 HD
BRANCH  16  18
ATOM     18  C   UNL     1       4.776   4.094  16.440  0.00  0.00    +0.000 C 
BRANCH  18  19
ATOM     19  C   UNL     1       5.775   5.079  17.002  0.00  0.00    +0.000 A 
ATOM     20  C   UNL     1       5.787   6.420  16.611  0.00  0.00    +0.000 A 
ATOM     21  C   UNL     1       6.707   7.311  17.177  0.00  0.00    +0.000 A 
ATOM     22  C   UNL     1       7.607   6.882  18.154  0.00  0.00    +0.000 A 
ATOM     23  C   UNL     1       7.610   5.544  18.540  0.00  0.00    +0.000 A 
ATOM     24  C   UNL     1       6.697   4.647  17.966  0.00  0.00    +0.000 A 
BRANCH  22  25
ATOM     25  O   UNL     1       8.463   7.843  18.620  0.00  0.00    +0.000 OA
ATOM     26  C   UNL     1       8.276   9.143  18.079  0.00  0.00    +0.000 C 
ENDBRANCH  22  25
ENDBRANCH  18  19
ENDBRANCH  16  18
ENDBRANCH  15  16
ENDBRANCH  14  15
ENDBRANCH   1  14
TORSDOF 11
ENDMDL
MODEL 6
REMARK VINA RESULT:      -6.3      1.041      1.544
REMARK  Name = 
REMARK  13 active torsions:
REMARK  status: ('A' for Active; 'I' for Inactive)
REMARK    1  A    between atoms: C_1  and  O_2
REMARK    2  A    between atoms: O_2  and  C_3
REMARK    3  A    between atoms: C_6  and  C_7
REMARK    4  A    between atoms: C_7  and  N_8
REMARK    5  A    between atoms: N_8  and  C_9
REMARK    6  A    between atoms: C_9  and  C_10
REMARK    7  A    between atoms: C_10  and  C_11
REMARK    8  A    between atoms: C_11  and  C_12
REMARK    9  A    between atoms: C_12  and  N_13
REMARK   10  A    between atoms: N_13  and  C_14
REMARK   11  A    between atoms: C_14  and  C_15
REMARK   12  A    between atoms: C_18  and  O_19
REMARK   13  A    between atoms: O_19  and  C_20
REMARK                            x       y       z     vdW  Elec       q    Type
REMARK                         _______ _______ _______ _____ _____    ______ ____
ROOT
ATOM      1  C   UNL     1       2.455   1.957  17.998  0.00  0.00    +0.000 C 
ENDROOT
BRANCH   1   2
ATOM      2  C   UNL     1       3.626   1.727  18.951  0.00  0.00    +0.000 C 
BRANCH   2   3
ATOM      3  N   UNL     1       4.621   2.755  18.712  0.00  0.00    +0.000 NA
ATOM      4  H   UNL     1       4.776   3.297  19.559  0.00  0.00    +0.000 HD
BRANCH   3   5
ATOM      5  C   UNL     1       4.215   3.652  17.635  0.00  0.00    +0.000 C 
BRANCH   5   9
ATOM      6  C   UNL     1       6.953   6.974  17.277  0.00  0.00    +0.000 A 
ATOM      7  C   UNL     1       5.813   6.913  16.475  0.00  0.00    +0.000 A 
ATOM      8  C   UNL     1       4.922   5.847  16.610  0.00  0.00    +0.000 A 
ATOM      9  C   UNL     1       5.175   4.810  17.520  0.00  0.00    +0.000 A 
ATOM     10  C   UNL     1       6.325   4.872  18.311  0.00  0.00    +0.000 A 
ATOM     11  C   UNL     1       7.206   5.953  18.189  0.00  0.00    +0.000 A 
BRANCH   6  13
ATOM     12  C   UNL     1       8.335   8.609  18.247  0.00  0.00    +0.000 C 
ATOM     13  O   UNL     1       7.775   8.048  17.064  0.00  0.00    +0.000 OA
ENDBRANCH   6  13
ENDBRANCH   5   9
ENDBRANCH   3   5
ENDBRANCH   2   3
ENDBRANCH   1   2
BRANCH   1  14
ATOM     14  C   UNL     1       1.154   2.201  18.755  0.00  0.00    +0.000 C 
BRANCH  14  15
ATOM     15  C   UNL     1       1.416   2.583  20.211  0.00  0.00    +0.000 C 
BRANCH  15  16
ATOM     16  N   UNL     1       1.043   3.974  20.406  0.00  0.00    +0.000 NA
ATOM     17  H   UNL     1       0.484   4.066  21.250  0.00  0.00    +0.000 HD
BRANCH  16  18
ATOM     18  C   UNL     1       2.238   4.810  20.540  0.00  0.00    +0.000 C 
BRANCH  18  19
ATOM     19  C   UNL     1       1.927   6.266  20.281  0.00  0.00    +0.000 A 
ATOM     20  C   UNL     1       1.199   7.036  21.191  0.00  0.00    +0.000 A 
ATOM     21  C   UNL     1       0.956   8.391  20.932  0.00  0.00    +0.000 A 
ATOM     22  C   UNL     1       1.456   8.997  19.779  0.00  0.00    +0.000 A 
ATOM     23  C   UNL     1       2.171   8.233  18.860  0.00  0.00    +0.000 A 
ATOM     24  C   UNL     1       2.405   6.874  19.112  0.00  0.00    +0.000 A 
BRANCH  22  25
ATOM     25  O   UNL     1       1.142  10.322  19.634  0.00  0.00    +0.000 OA
ATOM     26  C   UNL     1       1.269  10.839  18.317  0.00  0.00    +0.000 C 
ENDBRANCH  22  25
ENDBRANCH  18  19
ENDBRANCH  16  18
ENDBRANCH  15  16
ENDBRANCH  14  15
ENDBRANCH   1  14
TORSDOF 11
ENDMDL
MODEL 7
REMARK VINA RESULT:      -6.3      1.164      5.879
REMARK  Name = 
REMARK  13 active torsions:
REMARK  status: ('A' for Active; 'I' for Inactive)
REMARK    1  A    between atoms: C_1  and  O_2
REMARK    2  A    between atoms: O_2  and  C_3
REMARK    3  A    between atoms: C_6  and  C_7
REMARK    4  A    between atoms: C_7  and  N_8
REMARK    5  A    between atoms: N_8  and  C_9
REMARK    6  A    between atoms: C_9  and  C_10
REMARK    7  A    between atoms: C_10  and  C_11
REMARK    8  A    between atoms: C_11  and  C_12
REMARK    9  A    between atoms: C_12  and  N_13
REMARK   10  A    between atoms: N_13  and  C_14
REMARK   11  A    between atoms: C_14  and  C_15
REMARK   12  A    between atoms: C_18  and  O_19
REMARK   13  A    between atoms: O_19  and  C_20
REMARK                            x       y       z     vdW  Elec       q    Type
REMARK                         _______ _______ _______ _____ _____    ______ ____
ROOT
ATOM      1  C   UNL     1       1.573   3.727  19.548  0.00  0.00    +0.000 C 
ENDROOT
BRANCH   1   2
ATOM      2  C   UNL     1       1.227   4.772  20.608  0.00  0.00    +0.000 C 
BRANCH   2   3
ATOM      3  N   UNL     1       2.350   5.679  20.742  0.00  0.00    +0.000 NA
ATOM      4  H   UNL     1       2.128   6.418  21.405  0.00  0.00    +0.000 HD
BRANCH   3   5
ATOM      5  C   UNL     1       2.710   6.277  19.460  0.00  0.00    +0.000 C 
BRANCH   5   9
ATOM      6  C   UNL     1       1.050  10.247  19.083  0.00  0.00    +0.000 A 
ATOM      7  C   UNL     1       1.675   9.640  17.993  0.00  0.00    +0.000 A 
ATOM      8  C   UNL     1       2.192   8.349  18.115  0.00  0.00    +0.000 A 
ATOM      9  C   UNL     1       2.124   7.661  19.336  0.00  0.00    +0.000 A 
ATOM     10  C   UNL     1       1.506   8.281  20.427  0.00  0.00    +0.000 A 
ATOM     11  C   UNL     1       0.970   9.567  20.295  0.00  0.00    +0.000 A 
BRANCH   6  13
ATOM     12  C   UNL     1       1.598  12.480  18.597  0.00  0.00    +0.000 C 
ATOM     13  O   UNL     1       0.586  11.518  18.872  0.00  0.00    +0.000 OA
ENDBRANCH   6  13
ENDBRANCH   5   9
ENDBRANCH   3   5
ENDBRANCH   2   3
ENDBRANCH   1   2
BRANCH   1  14
ATOM     14  C   UNL     1       2.743   2.852  19.984  0.00  0.00    +0.000 C 
BRANCH  14  15
ATOM     15  C   UNL     1       3.020   1.742  18.972  0.00  0.00    +0.000 C 
BRANCH  15  16
ATOM     16  N   UNL     1       4.237   2.063  18.244  0.00  0.00    +0.000 NA
ATOM     17  H   UNL     1       4.671   1.210  17.904  0.00  0.00    +0.000 HD
BRANCH  16  18
ATOM     18  C   UNL     1       3.935   2.926  17.100  0.00  0.00    +0.000 C 
BRANCH  18  19
ATOM     19  C   UNL     1       4.948   4.039  16.963  0.00  0.00    +0.000 A 
ATOM     20  C   UNL     1       5.553   4.625  18.077  0.00  0.00    +0.000 A 
ATOM     21  C   UNL     1       6.510   5.633  17.910  0.00  0.00    +0.000 A 
ATOM     22  C   UNL     1       6.892   6.050  16.634  0.00  0.00    +0.000 A 
ATOM     23  C   UNL     1       6.285   5.480  15.518  0.00  0.00    +0.000 A 
ATOM     24  C   UNL     1       5.317   4.478  15.683  0.00  0.00    +0.000 A 
BRANCH  22  25
ATOM     25  O   UNL     1       7.827   7.050  16.603  0.00  0.00    +0.000 OA
ATOM     26  C   UNL     1       7.741   8.000  17.655  0.00  0.00    +0.000 C 
ENDBRANCH  22  25
ENDBRANCH  18  19
ENDBRANCH  16  18
ENDBRANCH  15  16
ENDBRANCH  14  15
ENDBRANCH   1  14
TORSDOF 11
ENDMDL
MODEL 8
REMARK VINA RESULT:      -6.3      0.936      5.508
REMARK  Name = 
REMARK  13 active torsions:
REMARK  status: ('A' for Active; 'I' for Inactive)
REMARK    1  A    between atoms: C_1  and  O_2
REMARK    2  A    between atoms: O_2  and  C_3
REMARK    3  A    between atoms: C_6  and  C_7
REMARK    4  A    between atoms: C_7  and  N_8
REMARK    5  A    between atoms: N_8  and  C_9
REMARK    6  A    between atoms: C_9  and  C_10
REMARK    7  A    between atoms: C_10  and  C_11
REMARK    8  A    between atoms: C_11  and  C_12
REMARK    9  A    between atoms: C_12  and  N_13
REMARK   10  A    between atoms: N_13  and  C_14
REMARK   11  A    between atoms: C_14  and  C_15
REMARK   12  A    between atoms: C_18  and  O_19
REMARK   13  A    between atoms: O_19  and  C_20
REMARK                            x       y       z     vdW  Elec       q    Type
REMARK                         _______ _______ _______ _____ _____    ______ ____
ROOT
ATOM      1  C   UNL     1       1.185   2.367  18.628  0.00  0.00    +0.000 C 
ENDROOT
BRANCH   1   2
ATOM      2  C   UNL     1       1.060   3.417  19.731  0.00  0.00    +0.000 C 
BRANCH   2   3
ATOM      3  N   UNL     1       2.363   3.599  20.341  0.00  0.00    +0.000 NA
ATOM      4  H   UNL     1       2.612   2.779  20.889  0.00  0.00    +0.000 HD
BRANCH   3   5
ATOM      5  C   UNL     1       2.392   4.779  21.200  0.00  0.00    +0.000 C 
BRANCH   5   9
ATOM      6  C   UNL     1       1.998   8.370  18.833  0.00  0.00    +0.000 A 
ATOM      7  C   UNL     1       2.695   7.271  18.331  0.00  0.00    +0.000 A 
ATOM      8  C   UNL     1       2.802   6.106  19.093  0.00  0.00    +0.000 A 
ATOM      9  C   UNL     1       2.245   6.036  20.379  0.00  0.00    +0.000 A 
ATOM     10  C   UNL     1       1.558   7.145  20.880  0.00  0.00    +0.000 A 
ATOM     11  C   UNL     1       1.434   8.304  20.104  0.00  0.00    +0.000 A 
BRANCH   6  13
ATOM     12  C   UNL     1       0.691  10.121  17.965  0.00  0.00    +0.000 C 
ATOM     13  O   UNL     1       1.957   9.472  18.021  0.00  0.00    +0.000 OA
ENDBRANCH   6  13
ENDBRANCH   5   9
ENDBRANCH   3   5
ENDBRANCH   2   3
ENDBRANCH   1   2
BRANCH   1  14
ATOM     14  C   UNL     1       2.116   2.831  17.514  0.00  0.00    +0.000 C 
BRANCH  14  15
ATOM     15  C   UNL     1       3.463   2.115  17.573  0.00  0.00    +0.000 C 
BRANCH  15  16
ATOM     16  N   UNL     1       4.475   3.056  18.025  0.00  0.00    +0.000 NA
ATOM     17  H   UNL     1       5.259   2.551  18.431  0.00  0.00    +0.000 HD
BRANCH  16  18
ATOM     18  C   UNL     1       4.964   3.858  16.902  0.00  0.00    +0.000 C 
BRANCH  18  19
ATOM     19  C   UNL     1       5.878   4.967  17.370  0.00  0.00    +0.000 A 
ATOM     20  C   UNL     1       6.821   4.767  18.381  0.00  0.00    +0.000 A 
ATOM     21  C   UNL     1       7.672   5.810  18.768  0.00  0.00    +0.000 A 
ATOM     22  C   UNL     1       7.609   7.053  18.136  0.00  0.00    +0.000 A 
ATOM     23  C   UNL     1       6.663   7.265  17.136  0.00  0.00    +0.000 A 
ATOM     24  C   UNL     1       5.802   6.225  16.756  0.00  0.00    +0.000 A 
BRANCH  22  25
ATOM     25  O   UNL     1       8.483   7.993  18.611  0.00  0.00    +0.000 OA
ATOM     26  C   UNL     1       8.351   9.290  18.048  0.00  0.00    +0.000 C 
ENDBRANCH  22  25
ENDBRANCH  18  19
ENDBRANCH  16  18
ENDBRANCH  15  16
ENDBRANCH  14  15
ENDBRANCH   1  14
TORSDOF 11
ENDMDL
MODEL 9
REMARK VINA RESULT:      -6.2      1.195      6.068
REMARK  Name = 
REMARK  13 active torsions:
REMARK  status: ('A' for Active; 'I' for Inactive)
REMARK    1  A    between atoms: C_1  and  O_2
REMARK    2  A    between atoms: O_2  and  C_3
REMARK    3  A    between atoms: C_6  and  C_7
REMARK    4  A    between atoms: C_7  and  N_8
REMARK    5  A    between atoms: N_8  and  C_9
REMARK    6  A    between atoms: C_9  and  C_10
REMARK    7  A    between atoms: C_10  and  C_11
REMARK    8  A    between atoms: C_11  and  C_12
REMARK    9  A    between atoms: C_12  and  N_13
REMARK   10  A    between atoms: N_13  and  C_14
REMARK   11  A    between atoms: C_14  and  C_15
REMARK   12  A    between atoms: C_18  and  O_19
REMARK   13  A    between atoms: O_19  and  C_20
REMARK                            x       y       z     vdW  Elec       q    Type
REMARK                         _______ _______ _______ _____ _____    ______ ____
ROOT
ATOM      1  C   UNL     1       1.298   3.224  21.049  0.00  0.00    +0.000 C 
ENDROOT
BRANCH   1   2
ATOM      2  C   UNL     1       2.128   4.507  21.057  0.00  0.00    +0.000 C 
BRANCH   2   3
ATOM      3  N   UNL     1       1.710   5.329  19.938  0.00  0.00    +0.000 NA
ATOM      4  H   UNL     1       1.581   4.755  19.108  0.00  0.00    +0.000 HD
BRANCH   3   5
ATOM      5  C   UNL     1       2.686   6.376  19.649  0.00  0.00    +0.000 C 
BRANCH   5   9
ATOM      6  C   UNL     1       0.740  10.229  19.481  0.00  0.00    +0.000 A 
ATOM      7  C   UNL     1       0.739   9.492  20.666  0.00  0.00    +0.000 A 
ATOM      8  C   UNL     1       1.387   8.257  20.719  0.00  0.00    +0.000 A 
ATOM      9  C   UNL     1       2.013   7.725  19.582  0.00  0.00    +0.000 A 
ATOM     10  C   UNL     1       1.999   8.463  18.396  0.00  0.00    +0.000 A 
ATOM     11  C   UNL     1       1.367   9.712  18.351  0.00  0.00    +0.000 A 
BRANCH   6  13
ATOM     12  C   UNL     1      -0.899  11.591  18.490  0.00  0.00    +0.000 C 
ATOM     13  O   UNL     1       0.068  11.422  19.521  0.00  0.00    +0.000 OA
ENDBRANCH   6  13
ENDBRANCH   5   9
ENDBRANCH   3   5
ENDBRANCH   2   3
ENDBRANCH   1   2
BRANCH   1  14
ATOM     14  C   UNL     1       1.350   2.530  19.693  0.00  0.00    +0.000 C 
BRANCH  14  15
ATOM     15  C   UNL     1       2.700   1.856  19.460  0.00  0.00    +0.000 C 
BRANCH  15  16
ATOM     16  N   UNL     1       2.927   1.744  18.028  0.00  0.00    +0.000 NA
ATOM     17  H   UNL     1       2.254   1.100  17.621  0.00  0.00    +0.000 HD
BRANCH  16  18
ATOM     18  C   UNL     1       2.777   3.050  17.384  0.00  0.00    +0.000 C 
BRANCH  18  19
ATOM     19  C   UNL     1       4.087   3.803  17.346  0.00  0.00    +0.000 A 
ATOM     20  C   UNL     1       4.833   4.042  18.503  0.00  0.00    +0.000 A 
ATOM     21  C   UNL     1       6.058   4.716  18.425  0.00  0.00    +0.000 A 
ATOM     22  C   UNL     1       6.564   5.136  17.194  0.00  0.00    +0.000 A 
ATOM     23  C   UNL     1       5.821   4.913  16.038  0.00  0.00    +0.000 A 
ATOM     24  C   UNL     1       4.588   4.249  16.115  0.00  0.00    +0.000 A 
BRANCH  22  25
ATOM     25  O   UNL     1       7.763   5.794  17.251  0.00  0.00    +0.000 OA
ATOM     26  C   UNL     1       7.847   6.829  18.219  0.00  0.00    +0.000 C 
ENDBRANCH  22  25
ENDBRANCH  18  19
ENDBRANCH  16  18
ENDBRANCH  15  16
ENDBRANCH  14  15
ENDBRANCH   1  14
TORSDOF 11
ENDMDL
