MODEL 1
REMARK VINA RESULT:      -7.4      0.000      0.000
REMARK  Name = 
REMARK  7 active torsions:
REMARK  status: ('A' for Active; 'I' for Inactive)
REMARK    1  A    between atoms: C_1  and  C_2
REMARK    2  A    between atoms: C_2  and  O_3
REMARK    3  A    between atoms: O_3  and  C_4
REMARK    4  A    between atoms: C_7  and  C_8
REMARK    5  A    between atoms: N_10  and  C_11
REMARK    6  A    between atoms: C_14  and  S_15
REMARK    7  A    between atoms: S_15  and  N_18
REMARK                            x       y       z     vdW  Elec       q    Type
REMARK                         _______ _______ _______ _____ _____    ______ ____
ROOT
ATOM      1  C   UNL     1       3.480   6.567  18.043  0.00  0.00    +0.000 A 
ATOM      2  C   UNL     1       3.409   5.181  17.850  0.00  0.00    +0.000 A 
ATOM      3  C   UNL     1       4.170   4.544  16.868  0.00  0.00    +0.000 A 
ATOM      4  C   UNL     1       5.005   5.297  16.050  0.00  0.00    +0.000 A 
ATOM      5  C   UNL     1       5.088   6.683  16.216  0.00  0.00    +0.000 A 
ATOM      6  C   UNL     1       4.315   7.318  17.204  0.00  0.00    +0.000 A 
ENDROOT
BRANCH   1   9
ATOM      7  C   UNL     1       1.907   8.324  18.831  0.00  0.00    +0.000 C 
ATOM      8  O   UNL     1       1.638   8.810  17.737  0.00  0.00    +0.000 OA
ATOM      9  N   UNL     1       2.739   7.235  19.057  0.00  0.00    +0.000 N 
ATOM     10  H   UNL     1       2.710   6.796  19.966  0.00  0.00    +0.000 HD
BRANCH   7  14
ATOM     11  C   UNL     1       0.084  10.282  22.179  0.00  0.00    +0.000 A 
ATOM     12  C   UNL     1       0.134  10.885  20.924  0.00  0.00    +0.000 A 
ATOM     13  C   UNL     1       0.697  10.212  19.846  0.00  0.00    +0.000 A 
ATOM     14  C   UNL     1       1.228   8.925  20.007  0.00  0.00    +0.000 A 
ATOM     15  C   UNL     1       1.203   8.323  21.270  0.00  0.00    +0.000 A 
ATOM     16  C   UNL     1       0.636   9.009  22.358  0.00  0.00    +0.000 A 
BRANCH  11  17
ATOM     17  O   UNL     1      -0.486  11.049  23.153  0.00  0.00    +0.000 OA
BRANCH  17  19
ATOM     18  C   UNL     1      -1.573  13.158  23.276  0.00  0.00    +0.000 C 
ATOM     19  C   UNL     1      -1.698  11.718  22.810  0.00  0.00    +0.000 C 
ENDBRANCH  17  19
ENDBRANCH  11  17
ENDBRANCH   7  14
ENDBRANCH   1   9
BRANCH   4  20
ATOM     20  S   UNL     1       6.023   4.455  14.848  0.00  0.00    +0.000 S 
ATOM     21  O   UNL     1       7.003   5.422  14.390  0.00  0.00    +0.000 OA
ATOM     22  O   UNL     1       6.470   3.220  15.475  0.00  0.00    +0.000 OA
BRANCH  20  23
ATOM     23  N   UNL     1       4.987   4.122  13.647  0.00  0.00    +0.000 NA
ATOM     24  C   UNL     1       5.380   3.486  12.600  0.00  0.00    +0.000 C 
ATOM     25  N   UNL     1       6.591   2.960  12.308  0.00  0.00    +0.000 N 
ATOM     26  N   UNL     1       4.518   3.300  11.570  0.00  0.00    +0.000 N 
ATOM     27  H   UNL     1       7.216   2.800  13.098  0.00  0.00    +0.000 HD
ATOM     28  H   UNL     1       6.661   2.256  11.589  0.00  0.00    +0.000 HD
ATOM     29  H   UNL     1       3.562   3.549  11.798  0.00  0.00    +0.000 HD
ATOM     30  H   UNL     1       4.585   2.432  11.060  0.00  0.00    +0.000 HD
ENDBRANCH  20  23
ENDBRANCH   4  20
TORSDOF 6
ENDMDL
MODEL 2
REMARK VINA RESULT:      -7.4      2.600      3.297
REMARK  Name = 
REMARK  7 active torsions:
REMARK  status: ('A' for Active; 'I' for Inactive)
REMARK    1  A    between atoms: C_1  and  C_2
REMARK    2  A    between atoms: C_2  and  O_3
REMARK    3  A    between atoms: O_3  and  C_4
REMARK    4  A    between atoms: C_7  and  C_8
REMARK    5  A    between atoms: N_10  and  C_11
REMARK    6  A    between atoms: C_14  and  S_15
REMARK    7  A    between atoms: S_15  and  N_18
REMARK                            x       y       z     vdW  Elec       q    Type
REMARK                         _______ _______ _______ _____ _____    ______ ____
ROOT
ATOM      1  C   UNL     1       2.153   7.741  19.222  0.00  0.00    +0.000 A 
ATOM      2  C   UNL     1       2.249   6.545  19.944  0.00  0.00    +0.000 A 
ATOM      3  C   UNL     1       3.100   5.515  19.537  0.00  0.00    +0.000 A 
ATOM      4  C   UNL     1       3.859   5.668  18.381  0.00  0.00    +0.000 A 
ATOM      5  C   UNL     1       3.776   6.850  17.637  0.00  0.00    +0.000 A 
ATOM      6  C   UNL     1       2.912   7.879  18.052  0.00  0.00    +0.000 A 
ENDROOT
BRANCH   1   9
ATOM      7  C   UNL     1       1.043   9.132  20.959  0.00  0.00    +0.000 C 
ATOM      8  O   UNL     1       1.530   8.588  21.945  0.00  0.00    +0.000 OA
ATOM      9  N   UNL     1       1.318   8.815  19.634  0.00  0.00    +0.000 N 
ATOM     10  H   UNL     1       1.029   9.469  18.921  0.00  0.00    +0.000 HD
BRANCH   7  14
ATOM     11  C   UNL     1      -1.774  12.243  21.821  0.00  0.00    +0.000 A 
ATOM     12  C   UNL     1      -1.353  11.352  22.806  0.00  0.00    +0.000 A 
ATOM     13  C   UNL     1      -0.409  10.376  22.509  0.00  0.00    +0.000 A 
ATOM     14  C   UNL     1       0.124  10.269  21.217  0.00  0.00    +0.000 A 
ATOM     15  C   UNL     1      -0.313  11.146  20.217  0.00  0.00    +0.000 A 
ATOM     16  C   UNL     1      -1.269  12.129  20.522  0.00  0.00    +0.000 A 
BRANCH  11  17
ATOM     17  O   UNL     1      -2.707  13.148  22.238  0.00  0.00    +0.000 OA
BRANCH  17  19
ATOM     18  C   UNL     1      -5.005  12.748  21.787  0.00  0.00    +0.000 C 
ATOM     19  C   UNL     1      -3.897  12.616  22.817  0.00  0.00    +0.000 C 
ENDBRANCH  17  19
ENDBRANCH  11  17
ENDBRANCH   7  14
ENDBRANCH   1   9
BRANCH   4  20
ATOM     20  S   UNL     1       4.995   4.370  17.917  0.00  0.00    +0.000 S 
ATOM     21  O   UNL     1       6.010   4.323  18.953  0.00  0.00    +0.000 OA
ATOM     22  O   UNL     1       4.188   3.191  17.647  0.00  0.00    +0.000 OA
BRANCH  20  23
ATOM     23  N   UNL     1       5.651   4.921  16.541  0.00  0.00    +0.000 NA
ATOM     24  C   UNL     1       6.918   4.840  16.341  0.00  0.00    +0.000 C 
ATOM     25  N   UNL     1       7.886   4.295  17.114  0.00  0.00    +0.000 N 
ATOM     26  N   UNL     1       7.455   5.388  15.223  0.00  0.00    +0.000 N 
ATOM     27  H   UNL     1       7.576   3.628  17.822  0.00  0.00    +0.000 HD
ATOM     28  H   UNL     1       8.773   4.057  16.697  0.00  0.00    +0.000 HD
ATOM     29  H   UNL     1       6.758   5.681  14.548  0.00  0.00    +0.000 HD
ATOM     30  H   UNL     1       8.234   4.909  14.798  0.00  0.00    +0.000 HD
ENDBRANCH  20  23
ENDBRANCH   4  20
TORSDOF 6
ENDMDL
MODEL 3
REMARK VINA RESULT:      -7.3      0.426      1.075
REMARK  Name = 
REMARK  7 active torsions:
REMARK  status: ('A' for Active; 'I' for Inactive)
REMARK    1  A    between atoms: C_1  and  C_2
REMARK    2  A    between atoms: C_2  and  O_3
REMARK    3  A    between atoms: O_3  and  C_4
REMARK    4  A    between atoms: C_7  and  C_8
REMARK    5  A    between atoms: N_10  and  C_11
REMARK    6  A    between atoms: C_14  and  S_15
REMARK    7  A    between atoms: S_15  and  N_18
REMARK                            x       y       z     vdW  Elec       q    Type
REMARK                         _______ _______ _______ _____ _____    ______ ____
ROOT
ATOM      1  C   UNL     1       3.432   6.712  17.873  0.00  0.00    +0.000 A 
ATOM      2  C   UNL     1       3.302   5.329  17.690  0.00  0.00    +0.000 A 
ATOM      3  C   UNL     1       4.091   4.640  16.767  0.00  0.00    +0.000 A 
ATOM      4  C   UNL     1       5.017   5.338  15.998  0.00  0.00    +0.000 A 
ATOM      5  C   UNL     1       5.161   6.721  16.156  0.00  0.00    +0.000 A 
ATOM      6  C   UNL     1       4.358   7.407  17.084  0.00  0.00    +0.000 A 
ENDROOT
BRANCH   1   9
ATOM      7  C   UNL     1       1.919   8.568  18.540  0.00  0.00    +0.000 C 
ATOM      8  O   UNL     1       1.763   9.064  17.429  0.00  0.00    +0.000 OA
ATOM      9  N   UNL     1       2.662   7.430  18.828  0.00  0.00    +0.000 N 
ATOM     10  H   UNL     1       2.537   6.999  19.732  0.00  0.00    +0.000 HD
BRANCH   7  14
ATOM     11  C   UNL     1      -0.294  10.210  21.822  0.00  0.00    +0.000 A 
ATOM     12  C   UNL     1       0.412   9.015  21.947  0.00  0.00    +0.000 A 
ATOM     13  C   UNL     1       1.152   8.525  20.879  0.00  0.00    +0.000 A 
ATOM     14  C   UNL     1       1.194   9.218  19.661  0.00  0.00    +0.000 A 
ATOM     15  C   UNL     1       0.468  10.407  19.521  0.00  0.00    +0.000 A 
ATOM     16  C   UNL     1      -0.282  10.897  20.603  0.00  0.00    +0.000 A 
BRANCH  11  17
ATOM     17  O   UNL     1      -0.986  10.579  22.939  0.00  0.00    +0.000 OA
BRANCH  17  19
ATOM     18  C   UNL     1      -2.795  12.041  23.422  0.00  0.00    +0.000 C 
ATOM     19  C   UNL     1      -1.324  11.960  23.053  0.00  0.00    +0.000 C 
ENDBRANCH  17  19
ENDBRANCH  11  17
ENDBRANCH   7  14
ENDBRANCH   1   9
BRANCH   4  20
ATOM     20  S   UNL     1       6.067   4.428  14.876  0.00  0.00    +0.000 S 
ATOM     21  O   UNL     1       7.066   5.366  14.398  0.00  0.00    +0.000 OA
ATOM     22  O   UNL     1       6.486   3.227  15.582  0.00  0.00    +0.000 OA
BRANCH  20  23
ATOM     23  N   UNL     1       5.067   4.037  13.662  0.00  0.00    +0.000 NA
ATOM     24  C   UNL     1       5.513   3.449  12.609  0.00  0.00    +0.000 C 
ATOM     25  N   UNL     1       6.763   3.019  12.319  0.00  0.00    +0.000 N 
ATOM     26  N   UNL     1       4.675   3.213  11.570  0.00  0.00    +0.000 N 
ATOM     27  H   UNL     1       7.393   2.895  13.112  0.00  0.00    +0.000 HD
ATOM     28  H   UNL     1       6.891   2.333  11.590  0.00  0.00    +0.000 HD
ATOM     29  H   UNL     1       3.702   3.386  11.794  0.00  0.00    +0.000 HD
ATOM     30  H   UNL     1       4.810   2.360  11.048  0.00  0.00    +0.000 HD
ENDBRANCH  20  23
ENDBRANCH   4  20
TORSDOF 6
ENDMDL
MODEL 4
REMARK VINA RESULT:      -7.3      2.755      3.337
REMARK  Name = 
REMARK  7 active torsions:
REMARK  status: ('A' for Active; 'I' for Inactive)
REMARK    1  A    between atoms: C_1  and  C_2
REMARK    2  A    between atoms: C_2  and  O_3
REMARK    3  A    between atoms: O_3  and  C_4
REMARK    4  A    between atoms: C_7  and  C_8
REMARK    5  A    between atoms: N_10  and  C_11
REMARK    6  A    between atoms: C_14  and  S_15
REMARK    7  A    between atoms: S_15  and  N_18
REMARK                            x       y       z     vdW  Elec       q    Type
REMARK                         _______ _______ _______ _____ _____    ______ ____
ROOT
ATOM      1  C   UNL     1       1.914   7.646  19.566  0.00  0.00    +0.000 A 
ATOM      2  C   UNL     1       2.145   6.455  20.265  0.00  0.00    +0.000 A 
ATOM      3  C   UNL     1       3.086   5.522  19.823  0.00  0.00    +0.000 A 
ATOM      4  C   UNL     1       3.800   5.769  18.655  0.00  0.00    +0.000 A 
ATOM      5  C   UNL     1       3.582   6.947  17.933  0.00  0.00    +0.000 A 
ATOM      6  C   UNL     1       2.629   7.878  18.383  0.00  0.00    +0.000 A 
ENDROOT
BRANCH   1   9
ATOM      7  C   UNL     1       0.957   9.151  21.299  0.00  0.00    +0.000 C 
ATOM      8  O   UNL     1       1.761   8.908  22.193  0.00  0.00    +0.000 OA
ATOM      9  N   UNL     1       0.984   8.625  20.014  0.00  0.00    +0.000 N 
ATOM     10  H   UNL     1       0.407   9.062  19.310  0.00  0.00    +0.000 HD
BRANCH   7  14
ATOM     11  C   UNL     1      -1.938  12.207  22.099  0.00  0.00    +0.000 A 
ATOM     12  C   UNL     1      -1.354  12.072  20.841  0.00  0.00    +0.000 A 
ATOM     13  C   UNL     1      -0.446  11.048  20.598  0.00  0.00    +0.000 A 
ATOM     14  C   UNL     1      -0.100  10.145  21.613  0.00  0.00    +0.000 A 
ATOM     15  C   UNL     1      -0.665  10.290  22.886  0.00  0.00    +0.000 A 
ATOM     16  C   UNL     1      -1.580  11.329  23.127  0.00  0.00    +0.000 A 
BRANCH  11  17
ATOM     17  O   UNL     1      -2.806  13.255  22.210  0.00  0.00    +0.000 OA
BRANCH  17  19
ATOM     18  C   UNL     1      -1.593  15.063  23.161  0.00  0.00    +0.000 C 
ATOM     19  C   UNL     1      -2.286  14.548  21.911  0.00  0.00    +0.000 C 
ENDBRANCH  17  19
ENDBRANCH  11  17
ENDBRANCH   7  14
ENDBRANCH   1   9
BRANCH   4  20
ATOM     20  S   UNL     1       5.050   4.599  18.145  0.00  0.00    +0.000 S 
ATOM     21  O   UNL     1       6.023   4.544  19.220  0.00  0.00    +0.000 OA
ATOM     22  O   UNL     1       4.347   3.389  17.748  0.00  0.00    +0.000 OA
BRANCH  20  23
ATOM     23  N   UNL     1       5.715   5.305  16.846  0.00  0.00    +0.000 NA
ATOM     24  C   UNL     1       6.944   5.082  16.538  0.00  0.00    +0.000 C 
ATOM     25  N   UNL     1       7.851   4.265  17.120  0.00  0.00    +0.000 N 
ATOM     26  N   UNL     1       7.504   5.753  15.501  0.00  0.00    +0.000 N 
ATOM     27  H   UNL     1       7.476   3.526  17.716  0.00  0.00    +0.000 HD
ATOM     28  H   UNL     1       8.669   3.988  16.600  0.00  0.00    +0.000 HD
ATOM     29  H   UNL     1       6.829   6.267  14.947  0.00  0.00    +0.000 HD
ATOM     30  H   UNL     1       8.178   5.257  14.936  0.00  0.00    +0.000 HD
ENDBRANCH  20  23
ENDBRANCH   4  20
TORSDOF 6
ENDMDL
MODEL 5
REMARK VINA RESULT:      -7.3      4.668     10.884
REMARK  Name = 
REMARK  7 active torsions:
REMARK  status: ('A' for Active; 'I' for Inactive)
REMARK    1  A    between atoms: C_1  and  C_2
REMARK    2  A    between atoms: C_2  and  O_3
REMARK    3  A    between atoms: O_3  and  C_4
REMARK    4  A    between atoms: C_7  and  C_8
REMARK    5  A    between atoms: N_10  and  C_11
REMARK    6  A    between atoms: C_14  and  S_15
REMARK    7  A    between atoms: S_15  and  N_18
REMARK                            x       y       z     vdW  Elec       q    Type
REMARK                         _______ _______ _______ _____ _____    ______ ____
ROOT
ATOM      1  C   UNL     1       0.568   9.332  20.642  0.00  0.00    +0.000 A 
ATOM      2  C   UNL     1      -0.138  10.279  19.890  0.00  0.00    +0.000 A 
ATOM      3  C   UNL     1      -0.888  11.284  20.505  0.00  0.00    +0.000 A 
ATOM      4  C   UNL     1      -0.952  11.341  21.894  0.00  0.00    +0.000 A 
ATOM      5  C   UNL     1      -0.262  10.402  22.668  0.00  0.00    +0.000 A 
ATOM      6  C   UNL     1       0.486   9.391  22.040  0.00  0.00    +0.000 A 
ENDROOT
BRANCH   1   9
ATOM      7  C   UNL     1       1.944   8.422  18.782  0.00  0.00    +0.000 C 
ATOM      8  O   UNL     1       1.919   9.411  18.056  0.00  0.00    +0.000 OA
ATOM      9  N   UNL     1       1.363   8.318  20.040  0.00  0.00    +0.000 N 
ATOM     10  H   UNL     1       1.635   7.542  20.625  0.00  0.00    +0.000 HD
BRANCH   7  14
ATOM     11  C   UNL     1       4.198   5.181  17.114  0.00  0.00    +0.000 A 
ATOM     12  C   UNL     1       4.604   6.505  16.956  0.00  0.00    +0.000 A 
ATOM     13  C   UNL     1       3.875   7.534  17.540  0.00  0.00    +0.000 A 
ATOM     14  C   UNL     1       2.722   7.258  18.286  0.00  0.00    +0.000 A 
ATOM     15  C   UNL     1       2.295   5.932  18.429  0.00  0.00    +0.000 A 
ATOM     16  C   UNL     1       3.033   4.895  17.834  0.00  0.00    +0.000 A 
BRANCH  11  17
ATOM     17  O   UNL     1       4.993   4.266  16.487  0.00  0.00    +0.000 OA
BRANCH  17  19
ATOM     18  C   UNL     1       6.034   3.972  14.372  0.00  0.00    +0.000 C 
ATOM     19  C   UNL     1       6.028   4.786  15.654  0.00  0.00    +0.000 C 
ENDBRANCH  17  19
ENDBRANCH  11  17
ENDBRANCH   7  14
ENDBRANCH   1   9
BRANCH   4  20
ATOM     20  S   UNL     1      -1.856  12.676  22.661  0.00  0.00    +0.000 S 
ATOM     21  O   UNL     1      -0.969  13.257  23.651  0.00  0.00    +0.000 OA
ATOM     22  O   UNL     1      -2.370  13.504  21.580  0.00  0.00    +0.000 OA
BRANCH  20  23
ATOM     23  N   UNL     1      -3.079  11.919  23.408  0.00  0.00    +0.000 NA
ATOM     24  C   UNL     1      -3.896  12.574  24.155  0.00  0.00    +0.000 C 
ATOM     25  N   UNL     1      -3.956  13.898  24.424  0.00  0.00    +0.000 N 
ATOM     26  N   UNL     1      -4.856  11.904  24.841  0.00  0.00    +0.000 N 
ATOM     27  H   UNL     1      -3.476  14.514  23.766  0.00  0.00    +0.000 HD
ATOM     28  H   UNL     1      -4.811  14.288  24.791  0.00  0.00    +0.000 HD
ATOM     29  H   UNL     1      -4.942  10.934  24.563  0.00  0.00    +0.000 HD
ATOM     30  H   UNL     1      -5.749  12.360  24.954  0.00  0.00    +0.000 HD
ENDBRANCH  20  23
ENDBRANCH   4  20
TORSDOF 6
ENDMDL
MODEL 6
REMARK VINA RESULT:      -7.3      0.407      1.047
REMARK  Name = 
REMARK  7 active torsions:
REMARK  status: ('A' for Active; 'I' for Inactive)
REMARK    1  A    between atoms: C_1  and  C_2
REMARK    2  A    between atoms: C_2  and  O_3
REMARK    3  A    between atoms: O_3  and  C_4
REMARK    4  A    between atoms: C_7  and  C_8
REMARK    5  A    between atoms: N_10  and  C_11
REMARK    6  A    between atoms: C_14  and  S_15
REMARK    7  A    between atoms: S_15  and  N_18
REMARK                            x       y       z     vdW  Elec       q    Type
REMARK                         _______ _______ _______ _____ _____    ______ ____
ROOT
ATOM      1  C   UNL     1       3.527   6.490  18.008  0.00  0.00    +0.000 A 
ATOM      2  C   UNL     1       4.418   7.237  17.229  0.00  0.00    +0.000 A 
ATOM      3  C   UNL     1       5.217   6.633  16.255  0.00  0.00    +0.000 A 
ATOM      4  C   UNL     1       5.141   5.258  16.061  0.00  0.00    +0.000 A 
ATOM      5  C   UNL     1       4.265   4.487  16.832  0.00  0.00    +0.000 A 
ATOM      6  C   UNL     1       3.468   5.102  17.814  0.00  0.00    +0.000 A 
ENDROOT
BRANCH   1   9
ATOM      7  C   UNL     1       1.983   8.272  18.796  0.00  0.00    +0.000 C 
ATOM      8  O   UNL     1       1.936   8.923  17.758  0.00  0.00    +0.000 OA
ATOM      9  N   UNL     1       2.681   7.086  18.984  0.00  0.00    +0.000 N 
ATOM     10  H   UNL     1       2.468   6.535  19.802  0.00  0.00    +0.000 HD
BRANCH   7  14
ATOM     11  C   UNL     1      -0.303   9.969  21.999  0.00  0.00    +0.000 A 
ATOM     12  C   UNL     1      -0.414  10.448  20.695  0.00  0.00    +0.000 A 
ATOM     13  C   UNL     1       0.311   9.854  19.668  0.00  0.00    +0.000 A 
ATOM     14  C   UNL     1       1.165   8.774  19.929  0.00  0.00    +0.000 A 
ATOM     15  C   UNL     1       1.299   8.304  21.241  0.00  0.00    +0.000 A 
ATOM     16  C   UNL     1       0.567   8.910  22.276  0.00  0.00    +0.000 A 
BRANCH  11  17
ATOM     17  O   UNL     1      -1.060  10.641  22.914  0.00  0.00    +0.000 OA
BRANCH  17  19
ATOM     18  C   UNL     1      -2.620  12.414  23.172  0.00  0.00    +0.000 C 
ATOM     19  C   UNL     1      -1.225  12.042  22.701  0.00  0.00    +0.000 C 
ENDBRANCH  17  19
ENDBRANCH  11  17
ENDBRANCH   7  14
ENDBRANCH   1   9
BRANCH   4  20
ATOM     20  S   UNL     1       6.117   4.515  14.763  0.00  0.00    +0.000 S 
ATOM     21  O   UNL     1       6.996   5.556  14.265  0.00  0.00    +0.000 OA
ATOM     22  O   UNL     1       6.686   3.297  15.317  0.00  0.00    +0.000 OA
BRANCH  20  23
ATOM     23  N   UNL     1       5.016   4.148  13.631  0.00  0.00    +0.000 NA
ATOM     24  C   UNL     1       5.353   3.490  12.579  0.00  0.00    +0.000 C 
ATOM     25  N   UNL     1       6.549   2.964  12.230  0.00  0.00    +0.000 N 
ATOM     26  N   UNL     1       4.435   3.274  11.604  0.00  0.00    +0.000 N 
ATOM     27  H   UNL     1       7.220   2.827  12.987  0.00  0.00    +0.000 HD
ATOM     28  H   UNL     1       6.584   2.244  11.525  0.00  0.00    +0.000 HD
ATOM     29  H   UNL     1       3.493   3.523  11.881  0.00  0.00    +0.000 HD
ATOM     30  H   UNL     1       4.479   2.394  11.111  0.00  0.00    +0.000 HD
ENDBRANCH  20  23
ENDBRANCH   4  20
TORSDOF 6
ENDMDL
MODEL 7
REMARK VINA RESULT:      -7.2      2.429      3.270
REMARK  Name = 
REMARK  7 active torsions:
REMARK  status: ('A' for Active; 'I' for Inactive)
REMARK    1  A    between atoms: C_1  and  C_2
REMARK    2  A    between atoms: C_2  and  O_3
REMARK    3  A    between atoms: O_3  and  C_4
REMARK    4  A    between atoms: C_7  and  C_8
REMARK    5  A    between atoms: N_10  and  C_11
REMARK    6  A    between atoms: C_14  and  S_15
REMARK    7  A    between atoms: S_15  and  N_18
REMARK                            x       y       z     vdW  Elec       q    Type
REMARK                         _______ _______ _______ _____ _____    ______ ____
ROOT
ATOM      1  C   UNL     1       2.021   7.731  19.386  0.00  0.00    +0.000 A 
ATOM      2  C   UNL     1       2.771   7.893  18.214  0.00  0.00    +0.000 A 
ATOM      3  C   UNL     1       3.654   6.905  17.773  0.00  0.00    +0.000 A 
ATOM      4  C   UNL     1       3.808   5.739  18.517  0.00  0.00    +0.000 A 
ATOM      5  C   UNL     1       3.077   5.556  19.695  0.00  0.00    +0.000 A 
ATOM      6  C   UNL     1       2.194   6.558  20.135  0.00  0.00    +0.000 A 
ENDROOT
BRANCH   1   9
ATOM      7  C   UNL     1       0.971   9.119  21.161  0.00  0.00    +0.000 C 
ATOM      8  O   UNL     1       1.680   8.761  22.095  0.00  0.00    +0.000 OA
ATOM      9  N   UNL     1       1.093   8.708  19.839  0.00  0.00    +0.000 N 
ATOM     10  H   UNL     1       0.599   9.233  19.132  0.00  0.00    +0.000 HD
BRANCH   7  14
ATOM     11  C   UNL     1      -1.896  12.213  21.919  0.00  0.00    +0.000 A 
ATOM     12  C   UNL     1      -1.435  11.951  20.631  0.00  0.00    +0.000 A 
ATOM     13  C   UNL     1      -0.534  10.916  20.407  0.00  0.00    +0.000 A 
ATOM     14  C   UNL     1      -0.072  10.130  21.472  0.00  0.00    +0.000 A 
ATOM     15  C   UNL     1      -0.513  10.404  22.772  0.00  0.00    +0.000 A 
ATOM     16  C   UNL     1      -1.421  11.453  22.993  0.00  0.00    +0.000 A 
BRANCH  11  17
ATOM     17  O   UNL     1      -2.771  13.257  22.005  0.00  0.00    +0.000 OA
BRANCH  17  19
ATOM     18  C   UNL     1      -4.830  12.979  23.158  0.00  0.00    +0.000 C 
ATOM     19  C   UNL     1      -4.149  12.953  21.800  0.00  0.00    +0.000 C 
ENDBRANCH  17  19
ENDBRANCH  11  17
ENDBRANCH   7  14
ENDBRANCH   1   9
BRANCH   4  20
ATOM     20  S   UNL     1       4.887   4.458  17.897  0.00  0.00    +0.000 S 
ATOM     21  O   UNL     1       5.617   3.947  19.043  0.00  0.00    +0.000 OA
ATOM     22  O   UNL     1       4.054   3.557  17.115  0.00  0.00    +0.000 OA
BRANCH  20  23
ATOM     23  N   UNL     1       5.901   5.262  16.922  0.00  0.00    +0.000 NA
ATOM     24  C   UNL     1       6.473   4.665  15.937  0.00  0.00    +0.000 C 
ATOM     25  N   UNL     1       6.342   3.393  15.498  0.00  0.00    +0.000 N 
ATOM     26  N   UNL     1       7.387   5.335  15.190  0.00  0.00    +0.000 N 
ATOM     27  H   UNL     1       5.502   2.896  15.799  0.00  0.00    +0.000 HD
ATOM     28  H   UNL     1       6.631   3.163  14.559  0.00  0.00    +0.000 HD
ATOM     29  H   UNL     1       7.414   6.328  15.389  0.00  0.00    +0.000 HD
ATOM     30  H   UNL     1       7.417   5.132  14.202  0.00  0.00    +0.000 HD
ENDBRANCH  20  23
ENDBRANCH   4  20
TORSDOF 6
ENDMDL
MODEL 8
REMARK VINA RESULT:      -7.2      3.223      4.036
REMARK  Name = 
REMARK  7 active torsions:
REMARK  status: ('A' for Active; 'I' for Inactive)
REMARK    1  A    between atoms: C_1  and  C_2
REMARK    2  A    between atoms: C_2  and  O_3
REMARK    3  A    between atoms: O_3  and  C_4
REMARK    4  A    between atoms: C_7  and  C_8
REMARK    5  A    between atoms: N_10  and  C_11
REMARK    6  A    between atoms: C_14  and  S_15
REMARK    7  A    between atoms: S_15  and  N_18
REMARK                            x       y       z     vdW  Elec       q    Type
REMARK                         _______ _______ _______ _____ _____    ______ ____
ROOT
ATOM      1  C   UNL     1       2.164   7.885  19.111  0.00  0.00    +0.000 A 
ATOM      2  C   UNL     1       2.320   6.719  19.871  0.00  0.00    +0.000 A 
ATOM      3  C   UNL     1       3.202   5.709  19.480  0.00  0.00    +0.000 A 
ATOM      4  C   UNL     1       3.932   5.852  18.305  0.00  0.00    +0.000 A 
ATOM      5  C   UNL     1       3.789   7.003  17.524  0.00  0.00    +0.000 A 
ATOM      6  C   UNL     1       2.894   8.012  17.921  0.00  0.00    +0.000 A 
ENDROOT
BRANCH   1   9
ATOM      7  C   UNL     1       0.934   9.211  20.817  0.00  0.00    +0.000 C 
ATOM      8  O   UNL     1       1.361   8.638  21.814  0.00  0.00    +0.000 OA
ATOM      9  N   UNL     1       1.295   8.941  19.503  0.00  0.00    +0.000 N 
ATOM     10  H   UNL     1       1.047   9.616  18.795  0.00  0.00    +0.000 HD
BRANCH   7  14
ATOM     11  C   UNL     1      -1.921  12.293  21.664  0.00  0.00    +0.000 A 
ATOM     12  C   UNL     1      -1.299  11.578  22.686  0.00  0.00    +0.000 A 
ATOM     13  C   UNL     1      -0.349  10.610  22.385  0.00  0.00    +0.000 A 
ATOM     14  C   UNL     1      -0.008  10.334  21.053  0.00  0.00    +0.000 A 
ATOM     15  C   UNL     1      -0.646  11.032  20.021  0.00  0.00    +0.000 A 
ATOM     16  C   UNL     1      -1.609  12.008  20.330  0.00  0.00    +0.000 A 
BRANCH  11  17
ATOM     17  O   UNL     1      -2.838  13.209  22.090  0.00  0.00    +0.000 OA
BRANCH  17  19
ATOM     18  C   UNL     1      -5.141  12.778  21.694  0.00  0.00    +0.000 C 
ATOM     19  C   UNL     1      -4.014  12.693  22.710  0.00  0.00    +0.000 C 
ENDBRANCH  17  19
ENDBRANCH  11  17
ENDBRANCH   7  14
ENDBRANCH   1   9
BRANCH   4  20
ATOM     20  S   UNL     1       5.108   4.583  17.862  0.00  0.00    +0.000 S 
ATOM     21  O   UNL     1       4.394   3.321  17.926  0.00  0.00    +0.000 OA
ATOM     22  O   UNL     1       5.718   5.002  16.609  0.00  0.00    +0.000 OA
BRANCH  20  23
ATOM     23  N   UNL     1       6.200   4.649  19.059  0.00  0.00    +0.000 NA
ATOM     24  C   UNL     1       7.128   5.539  19.050  0.00  0.00    +0.000 C 
ATOM     25  N   UNL     1       7.358   6.544  18.175  0.00  0.00    +0.000 N 
ATOM     26  N   UNL     1       8.082   5.518  20.014  0.00  0.00    +0.000 N 
ATOM     27  H   UNL     1       6.571   6.820  17.587  0.00  0.00    +0.000 HD
ATOM     28  H   UNL     1       7.942   7.317  18.456  0.00  0.00    +0.000 HD
ATOM     29  H   UNL     1       7.873   4.875  20.769  0.00  0.00    +0.000 HD
ATOM     30  H   UNL     1       8.431   6.406  20.341  0.00  0.00    +0.000 HD
ENDBRANCH  20  23
ENDBRANCH   4  20
TORSDOF 6
ENDMDL
MODEL 9
REMARK VINA RESULT:      -7.1      3.280      3.990
REMARK  Name = 
REMARK  7 active torsions:
REMARK  status: ('A' for Active; 'I' for Inactive)
REMARK    1  A    between atoms: C_1  and  C_2
REMARK    2  A    between atoms: C_2  and  O_3
REMARK    3  A    between atoms: O_3  and  C_4
REMARK    4  A    between atoms: C_7  and  C_8
REMARK    5  A    between atoms: N_10  and  C_11
REMARK    6  A    between atoms: C_14  and  S_15
REMARK    7  A    between atoms: S_15  and  N_18
REMARK                            x       y       z     vdW  Elec       q    Type
REMARK                         _______ _______ _______ _____ _____    ______ ____
ROOT
ATOM      1  C   UNL     1       2.052   7.768  19.332  0.00  0.00    +0.000 A 
ATOM      2  C   UNL     1       2.262   6.569  20.024  0.00  0.00    +0.000 A 
ATOM      3  C   UNL     1       3.183   5.621  19.575  0.00  0.00    +0.000 A 
ATOM      4  C   UNL     1       3.900   5.860  18.407  0.00  0.00    +0.000 A 
ATOM      5  C   UNL     1       3.703   7.045  17.692  0.00  0.00    +0.000 A 
ATOM      6  C   UNL     1       2.769   7.992  18.149  0.00  0.00    +0.000 A 
ENDROOT
BRANCH   1   9
ATOM      7  C   UNL     1       0.979   9.126  21.117  0.00  0.00    +0.000 C 
ATOM      8  O   UNL     1       1.635   8.706  22.064  0.00  0.00    +0.000 OA
ATOM      9  N   UNL     1       1.142   8.762  19.786  0.00  0.00    +0.000 N 
ATOM     10  H   UNL     1       0.698   9.332  19.081  0.00  0.00    +0.000 HD
BRANCH   7  14
ATOM     11  C   UNL     1      -1.797  12.298  21.889  0.00  0.00    +0.000 A 
ATOM     12  C   UNL     1      -1.263  12.094  20.619  0.00  0.00    +0.000 A 
ATOM     13  C   UNL     1      -0.394  11.035  20.387  0.00  0.00    +0.000 A 
ATOM     14  C   UNL     1      -0.037  10.164  21.425  0.00  0.00    +0.000 A 
ATOM     15  C   UNL     1      -0.552  10.377  22.710  0.00  0.00    +0.000 A 
ATOM     16  C   UNL     1      -1.427  11.452  22.940  0.00  0.00    +0.000 A 
BRANCH  11  17
ATOM     17  O   UNL     1      -2.630  13.375  21.987  0.00  0.00    +0.000 OA
BRANCH  17  19
ATOM     18  C   UNL     1      -4.930  12.893  22.340  0.00  0.00    +0.000 C 
ATOM     19  C   UNL     1      -3.881  13.277  21.310  0.00  0.00    +0.000 C 
ENDBRANCH  17  19
ENDBRANCH  11  17
ENDBRANCH   7  14
ENDBRANCH   1   9
BRANCH   4  20
ATOM     20  S   UNL     1       5.126   4.668  17.889  0.00  0.00    +0.000 S 
ATOM     21  O   UNL     1       4.465   3.376  17.883  0.00  0.00    +0.000 OA
ATOM     22  O   UNL     1       5.710   5.183  16.660  0.00  0.00    +0.000 OA
BRANCH  20  23
ATOM     23  N   UNL     1       6.219   4.712  19.085  0.00  0.00    +0.000 NA
ATOM     24  C   UNL     1       7.164   5.585  19.076  0.00  0.00    +0.000 C 
ATOM     25  N   UNL     1       7.412   6.587  18.202  0.00  0.00    +0.000 N 
ATOM     26  N   UNL     1       8.119   5.545  20.039  0.00  0.00    +0.000 N 
ATOM     27  H   UNL     1       6.629   6.879  17.616  0.00  0.00    +0.000 HD
ATOM     28  H   UNL     1       8.010   7.349  18.484  0.00  0.00    +0.000 HD
ATOM     29  H   UNL     1       7.898   4.905  20.793  0.00  0.00    +0.000 HD
ATOM     30  H   UNL     1       8.484   6.426  20.367  0.00  0.00    +0.000 HD
ENDBRANCH  20  23
ENDBRANCH   4  20
TORSDOF 6
ENDMDL
