MODEL 1
REMARK VINA RESULT:      -8.8      0.000      0.000
REMARK  Name = 
REMARK  9 active torsions:
REMARK  status: ('A' for Active; 'I' for Inactive)
REMARK    1  A    between atoms: C_1  and  O_2
REMARK    2  A    between atoms: O_2  and  C_3
REMARK    3  A    between atoms: C_6  and  O_7
REMARK    4  A    between atoms: O_7  and  C_8
REMARK    5  A    between atoms: C_9  and  C_10
REMARK    6  A    between atoms: C_10  and  N_11
REMARK    7  A    between atoms: C_12  and  C_14
REMARK    8  A    between atoms: C_14  and  C_15
REMARK    9  A    between atoms: C_15  and  C_16
REMARK                            x       y       z     vdW  Elec       q    Type
REMARK                         _______ _______ _______ _____ _____    ______ ____
ROOT
ATOM      1  C   UNL     1       3.519   6.606  18.118  0.00  0.00    +0.000 C 
ENDROOT
BRANCH   1   2
ATOM      2  C   UNL     1       3.825   5.372  17.295  0.00  0.00    +0.000 C 
ATOM      3  O   UNL     1       3.081   4.389  17.400  0.00  0.00    +0.000 OA
ATOM      4  N   UNL     1       4.950   5.356  16.440  0.00  0.00    +0.000 N 
ATOM      5  C   UNL     1       5.041   4.107  15.636  0.00  0.00    +0.000 C 
ATOM      6  C   UNL     1       5.756   4.162  14.305  0.00  0.00    +0.000 A 
ATOM      7  C   UNL     1       5.213   3.413  13.240  0.00  0.00    +0.000 A 
ATOM      8  C   UNL     1       5.810   3.401  11.978  0.00  0.00    +0.000 A 
ATOM      9  C   UNL     1       6.956   4.151  11.750  0.00  0.00    +0.000 A 
ATOM     10  C   UNL     1       7.540   4.845  12.806  0.00  0.00    +0.000 A 
ATOM     11  C   UNL     1       6.974   4.805  14.091  0.00  0.00    +0.000 A 
ATOM     12  O   UNL     1       7.759   5.377  15.059  0.00  0.00    +0.000 OA
ATOM     13  C   UNL     1       7.358   5.255  16.363  0.00  0.00    +0.000 A 
ATOM     14  N   UNL     1       8.142   4.528  17.185  0.00  0.00    +0.000 NA
ATOM     15  C   UNL     1       7.889   4.662  18.501  0.00  0.00    +0.000 A 
ATOM     16  C   UNL     1       7.118   5.695  19.001  0.00  0.00    +0.000 A 
ATOM     17  C   UNL     1       6.403   6.457  18.091  0.00  0.00    +0.000 A 
ATOM     18  C   UNL     1       6.241   5.943  16.814  0.00  0.00    +0.000 A 
ENDBRANCH   1   2
BRANCH   1  19
ATOM     19  C   UNL     1       2.358   6.376  19.077  0.00  0.00    +0.000 C 
BRANCH  19  21
ATOM     20  N   UNL     1       1.704   8.692  18.750  0.00  0.00    +0.000 N 
ATOM     21  C   UNL     1       1.952   7.702  19.668  0.00  0.00    +0.000 C 
ATOM     22  O   UNL     1       1.780   7.845  20.882  0.00  0.00    +0.000 OA
ATOM     23  H   UNL     1       2.137   8.621  17.832  0.00  0.00    +0.000 HD
BRANCH  20  24
ATOM     24  C   UNL     1       1.426  10.034  19.203  0.00  0.00    +0.000 C 
BRANCH  24  29
ATOM     25  C   UNL     1      -1.893  10.323  17.372  0.00  0.00    +0.000 A 
ATOM     26  C   UNL     1      -2.209  11.671  17.550  0.00  0.00    +0.000 A 
ATOM     27  C   UNL     1      -1.342  12.523  18.241  0.00  0.00    +0.000 A 
ATOM     28  C   UNL     1      -0.132  12.044  18.756  0.00  0.00    +0.000 A 
ATOM     29  C   UNL     1       0.206  10.683  18.593  0.00  0.00    +0.000 A 
ATOM     30  C   UNL     1      -0.700   9.844  17.904  0.00  0.00    +0.000 A 
BRANCH  25  32
ATOM     31  C   UNL     1      -2.941   9.889  15.289  0.00  0.00    +0.000 C 
ATOM     32  O   UNL     1      -2.820   9.607  16.676  0.00  0.00    +0.000 OA
ENDBRANCH  25  32
BRANCH  28  33
ATOM     33  O   UNL     1       0.756  12.833  19.449  0.00  0.00    +0.000 OA
ATOM     34  C   UNL     1       0.181  13.895  20.208  0.00  0.00    +0.000 C 
ENDBRANCH  28  33
ENDBRANCH  24  29
ENDBRANCH  20  24
ENDBRANCH  19  21
ENDBRANCH   1  19
TORSDOF 7
ENDMDL
MODEL 2
REMARK VINA RESULT:      -8.8      3.016      4.299
REMARK  Name = 
REMARK  9 active torsions:
REMARK  status: ('A' for Active; 'I' for Inactive)
REMARK    1  A    between atoms: C_1  and  O_2
REMARK    2  A    between atoms: O_2  and  C_3
REMARK    3  A    between atoms: C_6  and  O_7
REMARK    4  A    between atoms: O_7  and  C_8
REMARK    5  A    between atoms: C_9  and  C_10
REMARK    6  A    between atoms: C_10  and  N_11
REMARK    7  A    between atoms: C_12  and  C_14
REMARK    8  A    between atoms: C_14  and  C_15
REMARK    9  A    between atoms: C_15  and  C_16
REMARK                            x       y       z     vdW  Elec       q    Type
REMARK                         _______ _______ _______ _____ _____    ______ ____
ROOT
ATOM      1  C   UNL     1       1.146   7.676  21.067  0.00  0.00    +0.000 C 
ENDROOT
BRANCH   1   2
ATOM      2  C   UNL     1       1.844   7.538  19.729  0.00  0.00    +0.000 C 
ATOM      3  O   UNL     1       1.494   8.276  18.799  0.00  0.00    +0.000 OA
ATOM      4  N   UNL     1       2.862   6.574  19.561  0.00  0.00    +0.000 N 
ATOM      5  C   UNL     1       3.504   6.646  18.220  0.00  0.00    +0.000 C 
ATOM      6  C   UNL     1       4.930   6.164  18.082  0.00  0.00    +0.000 A 
ATOM      7  C   UNL     1       5.787   6.895  17.232  0.00  0.00    +0.000 A 
ATOM      8  C   UNL     1       7.118   6.518  17.040  0.00  0.00    +0.000 A 
ATOM      9  C   UNL     1       7.625   5.411  17.707  0.00  0.00    +0.000 A 
ATOM     10  C   UNL     1       6.776   4.643  18.500  0.00  0.00    +0.000 A 
ATOM     11  C   UNL     1       5.422   4.986  18.642  0.00  0.00    +0.000 A 
ATOM     12  O   UNL     1       4.677   4.037  19.293  0.00  0.00    +0.000 OA
ATOM     13  C   UNL     1       3.320   4.216  19.349  0.00  0.00    +0.000 A 
ATOM     14  N   UNL     1       2.551   3.320  18.696  0.00  0.00    +0.000 NA
ATOM     15  C   UNL     1       1.239   3.346  19.001  0.00  0.00    +0.000 A 
ATOM     16  C   UNL     1       0.756   3.999  20.118  0.00  0.00    +0.000 A 
ATOM     17  C   UNL     1       1.627   4.841  20.793  0.00  0.00    +0.000 A 
ATOM     18  C   UNL     1       2.783   5.226  20.134  0.00  0.00    +0.000 A 
ENDBRANCH   1   2
BRANCH   1  19
ATOM     19  C   UNL     1       1.622   8.902  21.834  0.00  0.00    +0.000 C 
BRANCH  19  21
ATOM     20  N   UNL     1       0.656  10.772  20.622  0.00  0.00    +0.000 N 
ATOM     21  C   UNL     1       0.567   9.972  21.734  0.00  0.00    +0.000 C 
ATOM     22  O   UNL     1      -0.350  10.056  22.557  0.00  0.00    +0.000 OA
ATOM     23  H   UNL     1       1.560  10.861  20.163  0.00  0.00    +0.000 HD
BRANCH  20  24
ATOM     24  C   UNL     1      -0.226  11.906  20.483  0.00  0.00    +0.000 C 
BRANCH  24  29
ATOM     25  C   UNL     1      -2.207  10.541  17.540  0.00  0.00    +0.000 A 
ATOM     26  C   UNL     1      -3.477  11.072  17.770  0.00  0.00    +0.000 A 
ATOM     27  C   UNL     1      -3.714  11.909  18.866  0.00  0.00    +0.000 A 
ATOM     28  C   UNL     1      -2.678  12.240  19.746  0.00  0.00    +0.000 A 
ATOM     29  C   UNL     1      -1.387  11.709  19.536  0.00  0.00    +0.000 A 
ATOM     30  C   UNL     1      -1.184  10.853  18.429  0.00  0.00    +0.000 A 
BRANCH  25  32
ATOM     31  C   UNL     1      -2.940  10.083  15.331  0.00  0.00    +0.000 C 
ATOM     32  O   UNL     1      -2.113   9.748  16.435  0.00  0.00    +0.000 OA
ENDBRANCH  25  32
BRANCH  28  33
ATOM     33  O   UNL     1      -2.853  13.051  20.842  0.00  0.00    +0.000 OA
ATOM     34  C   UNL     1      -4.011  12.787  21.631  0.00  0.00    +0.000 C 
ENDBRANCH  28  33
ENDBRANCH  24  29
ENDBRANCH  20  24
ENDBRANCH  19  21
ENDBRANCH   1  19
TORSDOF 7
ENDMDL
MODEL 3
REMARK VINA RESULT:      -8.8      1.061      1.095
REMARK  Name = 
REMARK  9 active torsions:
REMARK  status: ('A' for Active; 'I' for Inactive)
REMARK    1  A    between atoms: C_1  and  O_2
REMARK    2  A    between atoms: O_2  and  C_3
REMARK    3  A    between atoms: C_6  and  O_7
REMARK    4  A    between atoms: O_7  and  C_8
REMARK    5  A    between atoms: C_9  and  C_10
REMARK    6  A    between atoms: C_10  and  N_11
REMARK    7  A    between atoms: C_12  and  C_14
REMARK    8  A    between atoms: C_14  and  C_15
REMARK    9  A    between atoms: C_15  and  C_16
REMARK                            x       y       z     vdW  Elec       q    Type
REMARK                         _______ _______ _______ _____ _____    ______ ____
ROOT
ATOM      1  C   UNL     1       3.804   7.056  18.026  0.00  0.00    +0.000 C 
ENDROOT
BRANCH   1   2
ATOM      2  C   UNL     1       3.946   5.759  17.255  0.00  0.00    +0.000 C 
ATOM      3  O   UNL     1       3.093   4.877  17.417  0.00  0.00    +0.000 OA
ATOM      4  N   UNL     1       5.044   5.571  16.385  0.00  0.00    +0.000 N 
ATOM      5  C   UNL     1       4.971   4.286  15.639  0.00  0.00    +0.000 C 
ATOM      6  C   UNL     1       5.659   4.198  14.296  0.00  0.00    +0.000 A 
ATOM      7  C   UNL     1       5.010   3.472  13.275  0.00  0.00    +0.000 A 
ATOM      8  C   UNL     1       5.576   3.334  12.006  0.00  0.00    +0.000 A 
ATOM      9  C   UNL     1       6.798   3.932  11.727  0.00  0.00    +0.000 A 
ATOM     10  C   UNL     1       7.481   4.598  12.741  0.00  0.00    +0.000 A 
ATOM     11  C   UNL     1       6.940   4.682  14.034  0.00  0.00    +0.000 A 
ATOM     12  O   UNL     1       7.807   5.198  14.963  0.00  0.00    +0.000 OA
ATOM     13  C   UNL     1       7.421   5.183  16.277  0.00  0.00    +0.000 A 
ATOM     14  N   UNL     1       8.131   4.404  17.120  0.00  0.00    +0.000 NA
ATOM     15  C   UNL     1       7.922   4.626  18.432  0.00  0.00    +0.000 A 
ATOM     16  C   UNL     1       7.288   5.764  18.895  0.00  0.00    +0.000 A 
ATOM     17  C   UNL     1       6.649   6.564  17.961  0.00  0.00    +0.000 A 
ATOM     18  C   UNL     1       6.403   6.018  16.713  0.00  0.00    +0.000 A 
ENDBRANCH   1   2
BRANCH   1  19
ATOM     19  C   UNL     1       2.596   7.861  17.566  0.00  0.00    +0.000 C 
BRANCH  19  21
ATOM     20  N   UNL     1       1.158   9.557  18.543  0.00  0.00    +0.000 N 
ATOM     21  C   UNL     1       1.909   8.432  18.779  0.00  0.00    +0.000 C 
ATOM     22  O   UNL     1       1.960   7.870  19.877  0.00  0.00    +0.000 OA
ATOM     23  H   UNL     1       1.387  10.129  17.734  0.00  0.00    +0.000 HD
BRANCH  20  24
ATOM     24  C   UNL     1       0.554  10.260  19.650  0.00  0.00    +0.000 C 
BRANCH  24  29
ATOM     25  C   UNL     1      -2.761  10.920  17.911  0.00  0.00    +0.000 A 
ATOM     26  C   UNL     1      -3.344  11.876  18.746  0.00  0.00    +0.000 A 
ATOM     27  C   UNL     1      -2.664  12.351  19.872  0.00  0.00    +0.000 A 
ATOM     28  C   UNL     1      -1.380  11.886  20.178  0.00  0.00    +0.000 A 
ATOM     29  C   UNL     1      -0.774  10.914  19.353  0.00  0.00    +0.000 A 
ATOM     30  C   UNL     1      -1.494  10.442  18.231  0.00  0.00    +0.000 A 
BRANCH  25  32
ATOM     31  C   UNL     1      -2.966  10.738  15.556  0.00  0.00    +0.000 C 
ATOM     32  O   UNL     1      -3.527  10.550  16.847  0.00  0.00    +0.000 OA
ENDBRANCH  25  32
BRANCH  28  33
ATOM     33  O   UNL     1      -0.668  12.310  21.275  0.00  0.00    +0.000 OA
ATOM     34  C   UNL     1      -1.343  13.223  22.138  0.00  0.00    +0.000 C 
ENDBRANCH  28  33
ENDBRANCH  24  29
ENDBRANCH  20  24
ENDBRANCH  19  21
ENDBRANCH   1  19
TORSDOF 7
ENDMDL
MODEL 4
REMARK VINA RESULT:      -8.8      2.159      3.036
REMARK  Name = 
REMARK  9 active torsions:
REMARK  status: ('A' for Active; 'I' for Inactive)
REMARK    1  A    between atoms: C_1  and  O_2
REMARK    2  A    between atoms: O_2  and  C_3
REMARK    3  A    between atoms: C_6  and  O_7
REMARK    4  A    between atoms: O_7  and  C_8
REMARK    5  A    between atoms: C_9  and  C_10
REMARK    6  A    between atoms: C_10  and  N_11
REMARK    7  A    between atoms: C_12  and  C_14
REMARK    8  A    between atoms: C_14  and  C_15
REMARK    9  A    between atoms: C_15  and  C_16
REMARK                            x       y       z     vdW  Elec       q    Type
REMARK                         _______ _______ _______ _____ _____    ______ ____
ROOT
ATOM      1  C   UNL     1       3.059   5.221  18.169  0.00  0.00    +0.000 C 
ENDROOT
BRANCH   1   2
ATOM      2  C   UNL     1       3.764   4.212  17.285  0.00  0.00    +0.000 C 
ATOM      3  O   UNL     1       3.371   3.039  17.295  0.00  0.00    +0.000 OA
ATOM      4  N   UNL     1       4.855   4.618  16.483  0.00  0.00    +0.000 N 
ATOM      5  C   UNL     1       5.360   3.525  15.608  0.00  0.00    +0.000 C 
ATOM      6  C   UNL     1       6.049   3.903  14.317  0.00  0.00    +0.000 A 
ATOM      7  C   UNL     1       5.800   3.100  13.184  0.00  0.00    +0.000 A 
ATOM      8  C   UNL     1       6.399   3.371  11.952  0.00  0.00    +0.000 A 
ATOM      9  C   UNL     1       7.249   4.462  11.824  0.00  0.00    +0.000 A 
ATOM     10  C   UNL     1       7.555   5.226  12.947  0.00  0.00    +0.000 A 
ATOM     11  C   UNL     1       7.002   4.914  14.199  0.00  0.00    +0.000 A 
ATOM     12  O   UNL     1       7.540   5.633  15.235  0.00  0.00    +0.000 OA
ATOM     13  C   UNL     1       7.169   5.294  16.510  0.00  0.00    +0.000 A 
ATOM     14  N   UNL     1       8.125   4.796  17.320  0.00  0.00    +0.000 NA
ATOM     15  C   UNL     1       7.812   4.746  18.629  0.00  0.00    +0.000 A 
ATOM     16  C   UNL     1       6.739   5.440  19.156  0.00  0.00    +0.000 A 
ATOM     17  C   UNL     1       5.839   6.000  18.263  0.00  0.00    +0.000 A 
ATOM     18  C   UNL     1       5.880   5.556  16.952  0.00  0.00    +0.000 A 
ENDBRANCH   1   2
BRANCH   1  19
ATOM     19  C   UNL     1       3.102   4.819  19.637  0.00  0.00    +0.000 C 
BRANCH  19  21
ATOM     20  N   UNL     1       1.921   6.719  20.583  0.00  0.00    +0.000 N 
ATOM     21  C   UNL     1       1.880   5.372  20.323  0.00  0.00    +0.000 C 
ATOM     22  O   UNL     1       0.892   4.668  20.552  0.00  0.00    +0.000 OA
ATOM     23  H   UNL     1       2.830   7.170  20.657  0.00  0.00    +0.000 HD
BRANCH  20  24
ATOM     24  C   UNL     1       0.860   7.334  21.345  0.00  0.00    +0.000 C 
BRANCH  24  29
ATOM     25  C   UNL     1       0.038  10.985  22.013  0.00  0.00    +0.000 A 
ATOM     26  C   UNL     1       0.323  11.579  20.782  0.00  0.00    +0.000 A 
ATOM     27  C   UNL     1       0.758  10.807  19.699  0.00  0.00    +0.000 A 
ATOM     28  C   UNL     1       0.903   9.420  19.826  0.00  0.00    +0.000 A 
ATOM     29  C   UNL     1       0.628   8.800  21.063  0.00  0.00    +0.000 A 
ATOM     30  C   UNL     1       0.206   9.610  22.142  0.00  0.00    +0.000 A 
BRANCH  25  32
ATOM     31  C   UNL     1      -1.348  12.818  22.598  0.00  0.00    +0.000 C 
ATOM     32  O   UNL     1      -0.382  11.849  22.979  0.00  0.00    +0.000 OA
ENDBRANCH  25  32
BRANCH  28  33
ATOM     33  O   UNL     1       1.333   8.613  18.799  0.00  0.00    +0.000 OA
ATOM     34  C   UNL     1       2.276   9.197  17.902  0.00  0.00    +0.000 C 
ENDBRANCH  28  33
ENDBRANCH  24  29
ENDBRANCH  20  24
ENDBRANCH  19  21
ENDBRANCH   1  19
TORSDOF 7
ENDMDL
MODEL 5
REMARK VINA RESULT:      -8.6      1.887      3.074
REMARK  Name = 
REMARK  9 active torsions:
REMARK  status: ('A' for Active; 'I' for Inactive)
REMARK    1  A    between atoms: C_1  and  O_2
REMARK    2  A    between atoms: O_2  and  C_3
REMARK    3  A    between atoms: C_6  and  O_7
REMARK    4  A    between atoms: O_7  and  C_8
REMARK    5  A    between atoms: C_9  and  C_10
REMARK    6  A    between atoms: C_10  and  N_11
REMARK    7  A    between atoms: C_12  and  C_14
REMARK    8  A    between atoms: C_14  and  C_15
REMARK    9  A    between atoms: C_15  and  C_16
REMARK                            x       y       z     vdW  Elec       q    Type
REMARK                         _______ _______ _______ _____ _____    ______ ____
ROOT
ATOM      1  C   UNL     1       3.816   7.256  18.049  0.00  0.00    +0.000 C 
ENDROOT
BRANCH   1   2
ATOM      2  C   UNL     1       3.928   5.935  17.313  0.00  0.00    +0.000 C 
ATOM      3  O   UNL     1       3.058   5.076  17.501  0.00  0.00    +0.000 OA
ATOM      4  N   UNL     1       5.018   5.702  16.446  0.00  0.00    +0.000 N 
ATOM      5  C   UNL     1       4.916   4.399  15.734  0.00  0.00    +0.000 C 
ATOM      6  C   UNL     1       5.598   4.260  14.393  0.00  0.00    +0.000 A 
ATOM      7  C   UNL     1       4.930   3.520  13.394  0.00  0.00    +0.000 A 
ATOM      8  C   UNL     1       5.488   3.336  12.127  0.00  0.00    +0.000 A 
ATOM      9  C   UNL     1       6.721   3.900  11.828  0.00  0.00    +0.000 A 
ATOM     10  C   UNL     1       7.422   4.579  12.821  0.00  0.00    +0.000 A 
ATOM     11  C   UNL     1       6.887   4.709  14.114  0.00  0.00    +0.000 A 
ATOM     12  O   UNL     1       7.768   5.232  15.025  0.00  0.00    +0.000 OA
ATOM     13  C   UNL     1       7.387   5.261  16.341  0.00  0.00    +0.000 A 
ATOM     14  N   UNL     1       8.083   4.491  17.202  0.00  0.00    +0.000 NA
ATOM     15  C   UNL     1       7.883   4.752  18.509  0.00  0.00    +0.000 A 
ATOM     16  C   UNL     1       7.275   5.915  18.942  0.00  0.00    +0.000 A 
ATOM     17  C   UNL     1       6.650   6.703  17.989  0.00  0.00    +0.000 A 
ATOM     18  C   UNL     1       6.387   6.128  16.756  0.00  0.00    +0.000 A 
ENDBRANCH   1   2
BRANCH   1  19
ATOM     19  C   UNL     1       2.426   7.463  18.635  0.00  0.00    +0.000 C 
BRANCH  19  21
ATOM     20  N   UNL     1       1.211   9.492  19.191  0.00  0.00    +0.000 N 
ATOM     21  C   UNL     1       1.932   8.829  18.229  0.00  0.00    +0.000 C 
ATOM     22  O   UNL     1       2.233   9.330  17.143  0.00  0.00    +0.000 OA
ATOM     23  H   UNL     1       0.748   8.944  19.912  0.00  0.00    +0.000 HD
BRANCH  20  24
ATOM     24  C   UNL     1       0.586  10.754  18.873  0.00  0.00    +0.000 C 
BRANCH  24  29
ATOM     25  C   UNL     1       2.544  14.011  18.927  0.00  0.00    +0.000 A 
ATOM     26  C   UNL     1       2.450  14.387  20.268  0.00  0.00    +0.000 A 
ATOM     27  C   UNL     1       1.776  13.580  21.191  0.00  0.00    +0.000 A 
ATOM     28  C   UNL     1       1.195  12.372  20.790  0.00  0.00    +0.000 A 
ATOM     29  C   UNL     1       1.272  11.975  19.437  0.00  0.00    +0.000 A 
ATOM     30  C   UNL     1       1.945  12.821  18.526  0.00  0.00    +0.000 A 
BRANCH  25  32
ATOM     31  C   UNL     1       4.625  14.654  17.989  0.00  0.00    +0.000 C 
ATOM     32  O   UNL     1       3.231  14.884  18.137  0.00  0.00    +0.000 OA
ENDBRANCH  25  32
BRANCH  28  33
ATOM     33  O   UNL     1       0.516  11.542  21.650  0.00  0.00    +0.000 OA
ATOM     34  C   UNL     1      -0.690  12.070  22.199  0.00  0.00    +0.000 C 
ENDBRANCH  28  33
ENDBRANCH  24  29
ENDBRANCH  20  24
ENDBRANCH  19  21
ENDBRANCH   1  19
TORSDOF 7
ENDMDL
MODEL 6
REMARK VINA RESULT:      -8.4      1.367      2.654
REMARK  Name = 
REMARK  9 active torsions:
REMARK  status: ('A' for Active; 'I' for Inactive)
REMARK    1  A    between atoms: C_1  and  O_2
REMARK    2  A    between atoms: O_2  and  C_3
REMARK    3  A    between atoms: C_6  and  O_7
REMARK    4  A    between atoms: O_7  and  C_8
REMARK    5  A    between atoms: C_9  and  C_10
REMARK    6  A    between atoms: C_10  and  N_11
REMARK    7  A    between atoms: C_12  and  C_14
REMARK    8  A    between atoms: C_14  and  C_15
REMARK    9  A    between atoms: C_15  and  C_16
REMARK                            x       y       z     vdW  Elec       q    Type
REMARK                         _______ _______ _______ _____ _____    ______ ____
ROOT
ATOM      1  C   UNL     1       3.461   6.373  18.309  0.00  0.00    +0.000 C 
ENDROOT
BRANCH   1   2
ATOM      2  C   UNL     1       3.813   5.184  17.437  0.00  0.00    +0.000 C 
ATOM      3  O   UNL     1       3.111   4.168  17.510  0.00  0.00    +0.000 OA
ATOM      4  N   UNL     1       4.930   5.247  16.575  0.00  0.00    +0.000 N 
ATOM      5  C   UNL     1       5.067   4.034  15.723  0.00  0.00    +0.000 C 
ATOM      6  C   UNL     1       5.767   4.170  14.391  0.00  0.00    +0.000 A 
ATOM      7  C   UNL     1       5.247   3.439  13.302  0.00  0.00    +0.000 A 
ATOM      8  C   UNL     1       5.834   3.499  12.036  0.00  0.00    +0.000 A 
ATOM      9  C   UNL     1       6.946   4.305  11.829  0.00  0.00    +0.000 A 
ATOM     10  C   UNL     1       7.509   4.984  12.907  0.00  0.00    +0.000 A 
ATOM     11  C   UNL     1       6.955   4.871  14.193  0.00  0.00    +0.000 A 
ATOM     12  O   UNL     1       7.724   5.439  15.177  0.00  0.00    +0.000 OA
ATOM     13  C   UNL     1       7.339   5.252  16.478  0.00  0.00    +0.000 A 
ATOM     14  N   UNL     1       8.160   4.528  17.266  0.00  0.00    +0.000 NA
ATOM     15  C   UNL     1       7.912   4.602  18.589  0.00  0.00    +0.000 A 
ATOM     16  C   UNL     1       7.103   5.582  19.132  0.00  0.00    +0.000 A 
ATOM     17  C   UNL     1       6.349   6.346  18.256  0.00  0.00    +0.000 A 
ATOM     18  C   UNL     1       6.198   5.875  16.962  0.00  0.00    +0.000 A 
ENDBRANCH   1   2
BRANCH   1  19
ATOM     19  C   UNL     1       2.053   6.882  18.035  0.00  0.00    +0.000 C 
BRANCH  19  21
ATOM     20  N   UNL     1       1.343   9.104  18.713  0.00  0.00    +0.000 N 
ATOM     21  C   UNL     1       2.111   8.375  17.839  0.00  0.00    +0.000 C 
ATOM     22  O   UNL     1       2.862   8.890  17.005  0.00  0.00    +0.000 OA
ATOM     23  H   UNL     1       0.545   8.648  19.151  0.00  0.00    +0.000 HD
BRANCH  20  24
ATOM     24  C   UNL     1       1.225  10.533  18.542  0.00  0.00    +0.000 C 
BRANCH  24  29
ATOM     25  C   UNL     1      -0.974  12.767  20.691  0.00  0.00    +0.000 A 
ATOM     26  C   UNL     1      -2.241  12.538  20.151  0.00  0.00    +0.000 A 
ATOM     27  C   UNL     1      -2.416  11.633  19.099  0.00  0.00    +0.000 A 
ATOM     28  C   UNL     1      -1.325  10.928  18.576  0.00  0.00    +0.000 A 
ATOM     29  C   UNL     1      -0.035  11.149  19.103  0.00  0.00    +0.000 A 
ATOM     30  C   UNL     1       0.111  12.083  20.154  0.00  0.00    +0.000 A 
BRANCH  25  32
ATOM     31  C   UNL     1      -1.514  13.254  22.949  0.00  0.00    +0.000 C 
ATOM     32  O   UNL     1      -0.946  13.666  21.714  0.00  0.00    +0.000 OA
ENDBRANCH  25  32
BRANCH  28  33
ATOM     33  O   UNL     1      -1.436  10.032  17.539  0.00  0.00    +0.000 OA
ATOM     34  C   UNL     1      -2.392  10.361  16.533  0.00  0.00    +0.000 C 
ENDBRANCH  28  33
ENDBRANCH  24  29
ENDBRANCH  20  24
ENDBRANCH  19  21
ENDBRANCH   1  19
TORSDOF 7
ENDMDL
MODEL 7
REMARK VINA RESULT:      -8.4      1.772      2.834
REMARK  Name = 
REMARK  9 active torsions:
REMARK  status: ('A' for Active; 'I' for Inactive)
REMARK    1  A    between atoms: C_1  and  O_2
REMARK    2  A    between atoms: O_2  and  C_3
REMARK    3  A    between atoms: C_6  and  O_7
REMARK    4  A    between atoms: O_7  and  C_8
REMARK    5  A    between atoms: C_9  and  C_10
REMARK    6  A    between atoms: C_10  and  N_11
REMARK    7  A    between atoms: C_12  and  C_14
REMARK    8  A    between atoms: C_14  and  C_15
REMARK    9  A    between atoms: C_15  and  C_16
REMARK                            x       y       z     vdW  Elec       q    Type
REMARK                         _______ _______ _______ _____ _____    ______ ____
ROOT
ATOM      1  C   UNL     1       3.838   7.362  17.871  0.00  0.00    +0.000 C 
ENDROOT
BRANCH   1   2
ATOM      2  C   UNL     1       3.939   6.023  17.168  0.00  0.00    +0.000 C 
ATOM      3  O   UNL     1       3.053   5.182  17.365  0.00  0.00    +0.000 OA
ATOM      4  N   UNL     1       5.036   5.752  16.320  0.00  0.00    +0.000 N 
ATOM      5  C   UNL     1       4.922   4.434  15.638  0.00  0.00    +0.000 C 
ATOM      6  C   UNL     1       5.619   4.253  14.309  0.00  0.00    +0.000 A 
ATOM      7  C   UNL     1       4.952   3.500  13.319  0.00  0.00    +0.000 A 
ATOM      8  C   UNL     1       5.523   3.278  12.065  0.00  0.00    +0.000 A 
ATOM      9  C   UNL     1       6.768   3.816  11.768  0.00  0.00    +0.000 A 
ATOM     10  C   UNL     1       7.467   4.507  12.755  0.00  0.00    +0.000 A 
ATOM     11  C   UNL     1       6.918   4.676  14.037  0.00  0.00    +0.000 A 
ATOM     12  O   UNL     1       7.796   5.207  14.947  0.00  0.00    +0.000 OA
ATOM     13  C   UNL     1       7.398   5.272  16.256  0.00  0.00    +0.000 A 
ATOM     14  N   UNL     1       8.071   4.513  17.144  0.00  0.00    +0.000 NA
ATOM     15  C   UNL     1       7.860   4.807  18.442  0.00  0.00    +0.000 A 
ATOM     16  C   UNL     1       7.265   5.990  18.840  0.00  0.00    +0.000 A 
ATOM     17  C   UNL     1       6.664   6.765  17.861  0.00  0.00    +0.000 A 
ATOM     18  C   UNL     1       6.407   6.165  16.639  0.00  0.00    +0.000 A 
ENDBRANCH   1   2
BRANCH   1  19
ATOM     19  C   UNL     1       2.646   7.419  18.817  0.00  0.00    +0.000 C 
BRANCH  19  21
ATOM     20  N   UNL     1       1.013   9.095  19.464  0.00  0.00    +0.000 N 
ATOM     21  C   UNL     1       1.795   8.606  18.448  0.00  0.00    +0.000 C 
ATOM     22  O   UNL     1       1.871   9.137  17.336  0.00  0.00    +0.000 OA
ATOM     23  H   UNL     1       0.763   8.470  20.226  0.00  0.00    +0.000 HD
BRANCH  20  24
ATOM     24  C   UNL     1       0.068  10.153  19.194  0.00  0.00    +0.000 C 
BRANCH  24  29
ATOM     25  C   UNL     1      -0.360  12.604  22.068  0.00  0.00    +0.000 A 
ATOM     26  C   UNL     1       0.589  13.581  21.764  0.00  0.00    +0.000 A 
ATOM     27  C   UNL     1       1.368  13.484  20.606  0.00  0.00    +0.000 A 
ATOM     28  C   UNL     1       1.201  12.411  19.722  0.00  0.00    +0.000 A 
ATOM     29  C   UNL     1       0.251  11.409  20.014  0.00  0.00    +0.000 A 
ATOM     30  C   UNL     1      -0.508  11.527  21.200  0.00  0.00    +0.000 A 
BRANCH  25  32
ATOM     31  C   UNL     1      -2.016  13.868  23.202  0.00  0.00    +0.000 C 
ATOM     32  O   UNL     1      -1.054  12.823  23.220  0.00  0.00    +0.000 OA
ENDBRANCH  25  32
BRANCH  28  33
ATOM     33  O   UNL     1       1.942  12.261  18.574  0.00  0.00    +0.000 OA
ATOM     34  C   UNL     1       2.806  13.346  18.246  0.00  0.00    +0.000 C 
ENDBRANCH  28  33
ENDBRANCH  24  29
ENDBRANCH  20  24
ENDBRANCH  19  21
ENDBRANCH   1  19
TORSDOF 7
ENDMDL
MODEL 8
REMARK VINA RESULT:      -8.4      1.553      2.843
REMARK  Name = 
REMARK  9 active torsions:
REMARK  status: ('A' for Active; 'I' for Inactive)
REMARK    1  A    between atoms: C_1  and  O_2
REMARK    2  A    between atoms: O_2  and  C_3
REMARK    3  A    between atoms: C_6  and  O_7
REMARK    4  A    between atoms: O_7  and  C_8
REMARK    5  A    between atoms: C_9  and  C_10
REMARK    6  A    between atoms: C_10  and  N_11
REMARK    7  A    between atoms: C_12  and  C_14
REMARK    8  A    between atoms: C_14  and  C_15
REMARK    9  A    between atoms: C_15  and  C_16
REMARK                            x       y       z     vdW  Elec       q    Type
REMARK                         _______ _______ _______ _____ _____    ______ ____
ROOT
ATOM      1  C   UNL     1       3.697   7.056  18.075  0.00  0.00    +0.000 C 
ENDROOT
BRANCH   1   2
ATOM      2  C   UNL     1       3.874   5.761  17.308  0.00  0.00    +0.000 C 
ATOM      3  O   UNL     1       3.039   4.861  17.464  0.00  0.00    +0.000 OA
ATOM      4  N   UNL     1       4.982   5.596  16.448  0.00  0.00    +0.000 N 
ATOM      5  C   UNL     1       4.943   4.308  15.703  0.00  0.00    +0.000 C 
ATOM      6  C   UNL     1       5.644   4.232  14.366  0.00  0.00    +0.000 A 
ATOM      7  C   UNL     1       5.019   3.490  13.342  0.00  0.00    +0.000 A 
ATOM      8  C   UNL     1       5.599   3.362  12.077  0.00  0.00    +0.000 A 
ATOM      9  C   UNL     1       6.809   3.986  11.807  0.00  0.00    +0.000 A 
ATOM     10  C   UNL     1       7.470   4.668  12.825  0.00  0.00    +0.000 A 
ATOM     11  C   UNL     1       6.917   4.743  14.114  0.00  0.00    +0.000 A 
ATOM     12  O   UNL     1       7.765   5.280  15.049  0.00  0.00    +0.000 OA
ATOM     13  C   UNL     1       7.368   5.258  16.360  0.00  0.00    +0.000 A 
ATOM     14  N   UNL     1       8.087   4.497  17.210  0.00  0.00    +0.000 NA
ATOM     15  C   UNL     1       7.863   4.716  18.520  0.00  0.00    +0.000 A 
ATOM     16  C   UNL     1       7.201   5.841  18.976  0.00  0.00    +0.000 A 
ATOM     17  C   UNL     1       6.553   6.626  18.035  0.00  0.00    +0.000 A 
ATOM     18  C   UNL     1       6.328   6.072  16.785  0.00  0.00    +0.000 A 
ENDBRANCH   1   2
BRANCH   1  19
ATOM     19  C   UNL     1       2.599   7.926  17.477  0.00  0.00    +0.000 C 
BRANCH  19  21
ATOM     20  N   UNL     1       1.036   9.626  18.226  0.00  0.00    +0.000 N 
ATOM     21  C   UNL     1       1.834   8.574  18.601  0.00  0.00    +0.000 C 
ATOM     22  O   UNL     1       1.870   8.128  19.751  0.00  0.00    +0.000 OA
ATOM     23  H   UNL     1       1.267  10.128  17.372  0.00  0.00    +0.000 HD
BRANCH  20  24
ATOM     24  C   UNL     1       0.351  10.400  19.235  0.00  0.00    +0.000 C 
BRANCH  24  29
ATOM     25  C   UNL     1       2.173  13.733  19.100  0.00  0.00    +0.000 A 
ATOM     26  C   UNL     1       1.135  14.624  18.821  0.00  0.00    +0.000 A 
ATOM     27  C   UNL     1      -0.183  14.170  18.700  0.00  0.00    +0.000 A 
ATOM     28  C   UNL     1      -0.487  12.814  18.870  0.00  0.00    +0.000 A 
ATOM     29  C   UNL     1       0.548  11.895  19.146  0.00  0.00    +0.000 A 
ATOM     30  C   UNL     1       1.871  12.383  19.246  0.00  0.00    +0.000 A 
BRANCH  25  32
ATOM     31  C   UNL     1       3.880  14.591  20.507  0.00  0.00    +0.000 C 
ATOM     32  O   UNL     1       3.405  14.307  19.198  0.00  0.00    +0.000 OA
ENDBRANCH  25  32
BRANCH  28  33
ATOM     33  O   UNL     1      -1.761  12.310  18.756  0.00  0.00    +0.000 OA
ATOM     34  C   UNL     1      -2.597  12.468  19.901  0.00  0.00    +0.000 C 
ENDBRANCH  28  33
ENDBRANCH  24  29
ENDBRANCH  20  24
ENDBRANCH  19  21
ENDBRANCH   1  19
TORSDOF 7
ENDMDL
MODEL 9
REMARK VINA RESULT:      -8.4      1.668      2.205
REMARK  Name = 
REMARK  9 active torsions:
REMARK  status: ('A' for Active; 'I' for Inactive)
REMARK    1  A    between atoms: C_1  and  O_2
REMARK    2  A    between atoms: O_2  and  C_3
REMARK    3  A    between atoms: C_6  and  O_7
REMARK    4  A    between atoms: O_7  and  C_8
REMARK    5  A    between atoms: C_9  and  C_10
REMARK    6  A    between atoms: C_10  and  N_11
REMARK    7  A    between atoms: C_12  and  C_14
REMARK    8  A    between atoms: C_14  and  C_15
REMARK    9  A    between atoms: C_15  and  C_16
REMARK                            x       y       z     vdW  Elec       q    Type
REMARK                         _______ _______ _______ _____ _____    ______ ____
ROOT
ATOM      1  C   UNL     1       2.663   4.929  17.866  0.00  0.00    +0.000 C 
ENDROOT
BRANCH   1   2
ATOM      2  C   UNL     1       3.526   4.016  17.019  0.00  0.00    +0.000 C 
ATOM      3  O   UNL     1       3.227   2.818  16.946  0.00  0.00    +0.000 OA
ATOM      4  N   UNL     1       4.652   4.537  16.343  0.00  0.00    +0.000 N 
ATOM      5  C   UNL     1       5.322   3.525  15.482  0.00  0.00    +0.000 C 
ATOM      6  C   UNL     1       6.100   4.010  14.280  0.00  0.00    +0.000 A 
ATOM      7  C   UNL     1       6.023   3.242  13.098  0.00  0.00    +0.000 A 
ATOM      8  C   UNL     1       6.713   3.613  11.942  0.00  0.00    +0.000 A 
ATOM      9  C   UNL     1       7.484   4.768  11.939  0.00  0.00    +0.000 A 
ATOM     10  C   UNL     1       7.621   5.502  13.114  0.00  0.00    +0.000 A 
ATOM     11  C   UNL     1       6.977   5.093  14.294  0.00  0.00    +0.000 A 
ATOM     12  O   UNL     1       7.357   5.803  15.404  0.00  0.00    +0.000 OA
ATOM     13  C   UNL     1       6.894   5.381  16.623  0.00  0.00    +0.000 A 
ATOM     14  N   UNL     1       7.805   4.919  17.503  0.00  0.00    +0.000 NA
ATOM     15  C   UNL     1       7.373   4.787  18.772  0.00  0.00    +0.000 A 
ATOM     16  C   UNL     1       6.205   5.376  19.218  0.00  0.00    +0.000 A 
ATOM     17  C   UNL     1       5.352   5.906  18.262  0.00  0.00    +0.000 A 
ATOM     18  C   UNL     1       5.552   5.527  16.945  0.00  0.00    +0.000 A 
ENDBRANCH   1   2
BRANCH   1  19
ATOM     19  C   UNL     1       2.203   4.248  19.148  0.00  0.00    +0.000 C 
BRANCH  19  21
ATOM     20  N   UNL     1       1.799   6.532  19.868  0.00  0.00    +0.000 N 
ATOM     21  C   UNL     1       2.180   5.271  20.255  0.00  0.00    +0.000 C 
ATOM     22  O   UNL     1       2.409   4.962  21.428  0.00  0.00    +0.000 OA
ATOM     23  H   UNL     1       1.918   6.796  18.893  0.00  0.00    +0.000 HD
BRANCH  20  24
ATOM     24  C   UNL     1       1.857   7.619  20.817  0.00  0.00    +0.000 C 
BRANCH  24  29
ATOM     25  C   UNL     1      -0.183  10.008  18.677  0.00  0.00    +0.000 A 
ATOM     26  C   UNL     1      -0.621  10.943  19.617  0.00  0.00    +0.000 A 
ATOM     27  C   UNL     1      -0.241  10.837  20.960  0.00  0.00    +0.000 A 
ATOM     28  C   UNL     1       0.597   9.800  21.384  0.00  0.00    +0.000 A 
ATOM     29  C   UNL     1       1.047   8.840  20.451  0.00  0.00    +0.000 A 
ATOM     30  C   UNL     1       0.632   8.965  19.105  0.00  0.00    +0.000 A 
BRANCH  25  32
ATOM     31  C   UNL     1      -2.021  10.163  17.187  0.00  0.00    +0.000 C 
ATOM     32  O   UNL     1      -0.620  10.231  17.406  0.00  0.00    +0.000 OA
ENDBRANCH  25  32
BRANCH  28  33
ATOM     33  O   UNL     1       0.997   9.642  22.690  0.00  0.00    +0.000 OA
ATOM     34  C   UNL     1      -0.048   9.615  23.660  0.00  0.00    +0.000 C 
ENDBRANCH  28  33
ENDBRANCH  24  29
ENDBRANCH  20  24
ENDBRANCH  19  21
ENDBRANCH   1  19
TORSDOF 7
ENDMDL
