MODEL 1
REMARK VINA RESULT:      -7.6      0.000      0.000
REMARK  Name = 
REMARK  10 active torsions:
REMARK  status: ('A' for Active; 'I' for Inactive)
REMARK    1  A    between atoms: C_1  and  C_2
REMARK    2  A    between atoms: C_2  and  C_3
REMARK    3  A    between atoms: C_2  and  C_4
REMARK    4  A    between atoms: C_2  and  N_5
REMARK    5  A    between atoms: C_6  and  C_8
REMARK    6  A    between atoms: C_8  and  C_9
REMARK    7  A    between atoms: C_8  and  N_14
REMARK    8  A    between atoms: N_14  and  C_27
REMARK    9  A    between atoms: C_15  and  C_17
REMARK   10  A    between atoms: C_17  and  C_18
REMARK                            x       y       z     vdW  Elec       q    Type
REMARK                         _______ _______ _______ _____ _____    ______ ____
ROOT
ATOM      1  N   UNL     1       0.950   9.711  19.412  0.00  0.00    +0.000 N 
ATOM      2  C   UNL     1       1.695   8.763  18.670  0.00  0.00    +0.000 C 
ATOM      3  O   UNL     1       1.758   8.801  17.441  0.00  0.00    +0.000 OA
ENDROOT
BRANCH   1   4
ATOM      4  C   UNL     1       0.855   9.633  20.858  0.00  0.00    +0.000 C 
ATOM      5  C   UNL     1      -0.330  10.063  21.679  0.00  0.00    +0.000 C 
ATOM      6  C   UNL     1      -0.072   8.609  21.477  0.00  0.00    +0.000 C 
ENDBRANCH   1   4
BRANCH   1   7
ATOM      7  C   UNL     1       0.390  10.900  18.717  0.00  0.00    +0.000 C 
BRANCH   7   8
ATOM      8  C   UNL     1       0.779  12.184  19.468  0.00  0.00    +0.000 A 
ATOM      9  C   UNL     1      -0.167  13.135  20.000  0.00  0.00    +0.000 A 
ATOM     10  C   UNL     1       0.429  14.168  20.688  0.00  0.00    +0.000 A 
ATOM     11  S   UNL     1       2.133  14.032  20.697  0.00  0.00    +0.000 S 
ATOM     12  C   UNL     1       2.069  12.584  19.795  0.00  0.00    +0.000 A 
ENDBRANCH   7   8
BRANCH   7  14
ATOM     13  N   UNL     1      -1.538  10.516  17.133  0.00  0.00    +0.000 N 
ATOM     14  C   UNL     1      -1.146  10.858  18.416  0.00  0.00    +0.000 C 
ATOM     15  O   UNL     1      -1.973  11.168  19.277  0.00  0.00    +0.000 OA
ATOM     16  H   UNL     1      -0.814  10.421  16.431  0.00  0.00    +0.000 HD
BRANCH  13  18
ATOM     17  C   UNL     1      -3.740  11.634  16.797  0.00  0.00    +0.000 C 
ATOM     18  C   UNL     1      -2.955  10.313  16.747  0.00  0.00    +0.000 C 
ATOM     19  C   UNL     1      -3.622   9.263  17.657  0.00  0.00    +0.000 C 
ATOM     20  C   UNL     1      -3.032   9.777  15.302  0.00  0.00    +0.000 C 
ENDBRANCH  13  18
ENDBRANCH   7  14
ENDBRANCH   1   7
BRANCH   2  21
ATOM     21  C   UNL     1       2.418   7.712  19.520  0.00  0.00    +0.000 C 
BRANCH  21  22
ATOM     22  C   UNL     1       2.750   6.386  18.905  0.00  0.00    +0.000 A 
ATOM     23  C   UNL     1       3.559   6.204  17.795  0.00  0.00    +0.000 A 
ATOM     24  N   UNL     1       3.482   4.895  17.406  0.00  0.00    +0.000 N 
ATOM     25  C   UNL     1       2.623   4.208  18.227  0.00  0.00    +0.000 A 
ATOM     26  C   UNL     1       2.203   2.871  18.167  0.00  0.00    +0.000 A 
ATOM     27  C   UNL     1       1.292   2.437  19.129  0.00  0.00    +0.000 A 
ATOM     28  C   UNL     1       0.819   3.307  20.110  0.00  0.00    +0.000 A 
ATOM     29  C   UNL     1       1.246   4.642  20.153  0.00  0.00    +0.000 A 
ATOM     30  C   UNL     1       2.163   5.109  19.192  0.00  0.00    +0.000 A 
ATOM     31  H   UNL     1       3.942   4.497  16.600  0.00  0.00    +0.000 HD
ENDBRANCH  21  22
ENDBRANCH   2  21
TORSDOF 7
ENDMDL
MODEL 2
REMARK VINA RESULT:      -7.6      0.409      1.112
REMARK  Name = 
REMARK  10 active torsions:
REMARK  status: ('A' for Active; 'I' for Inactive)
REMARK    1  A    between atoms: C_1  and  C_2
REMARK    2  A    between atoms: C_2  and  C_3
REMARK    3  A    between atoms: C_2  and  C_4
REMARK    4  A    between atoms: C_2  and  N_5
REMARK    5  A    between atoms: C_6  and  C_8
REMARK    6  A    between atoms: C_8  and  C_9
REMARK    7  A    between atoms: C_8  and  N_14
REMARK    8  A    between atoms: N_14  and  C_27
REMARK    9  A    between atoms: C_15  and  C_17
REMARK   10  A    between atoms: C_17  and  C_18
REMARK                            x       y       z     vdW  Elec       q    Type
REMARK                         _______ _______ _______ _____ _____    ______ ____
ROOT
ATOM      1  N   UNL     1       1.051   9.619  19.329  0.00  0.00    +0.000 N 
ATOM      2  C   UNL     1       1.813   8.687  18.582  0.00  0.00    +0.000 C 
ATOM      3  O   UNL     1       1.890   8.745  17.355  0.00  0.00    +0.000 OA
ENDROOT
BRANCH   1   4
ATOM      4  C   UNL     1       0.939   9.518  20.772  0.00  0.00    +0.000 C 
ATOM      5  C   UNL     1      -0.326   9.707  21.564  0.00  0.00    +0.000 C 
ATOM      6  C   UNL     1       0.213   8.331  21.369  0.00  0.00    +0.000 C 
ENDBRANCH   1   4
BRANCH   1   7
ATOM      7  C   UNL     1       0.491  10.814  18.645  0.00  0.00    +0.000 C 
BRANCH   7   8
ATOM      8  C   UNL     1       0.907  12.093  19.389  0.00  0.00    +0.000 A 
ATOM      9  C   UNL     1       2.224  12.679  19.331  0.00  0.00    +0.000 A 
ATOM     10  C   UNL     1       2.327  13.859  20.031  0.00  0.00    +0.000 A 
ATOM     11  S   UNL     1       0.855  14.283  20.791  0.00  0.00    +0.000 S 
ATOM     12  C   UNL     1       0.080  12.895  20.167  0.00  0.00    +0.000 A 
ENDBRANCH   7   8
BRANCH   7  14
ATOM     13  N   UNL     1      -1.469  10.483  17.089  0.00  0.00    +0.000 N 
ATOM     14  C   UNL     1      -1.051  10.789  18.373  0.00  0.00    +0.000 C 
ATOM     15  O   UNL     1      -1.859  11.080  19.257  0.00  0.00    +0.000 OA
ATOM     16  H   UNL     1      -0.759  10.403  16.371  0.00  0.00    +0.000 HD
BRANCH  13  18
ATOM     17  C   UNL     1      -3.036   9.742  15.298  0.00  0.00    +0.000 C 
ATOM     18  C   UNL     1      -2.894  10.298  16.725  0.00  0.00    +0.000 C 
ATOM     19  C   UNL     1      -3.666  11.625  16.856  0.00  0.00    +0.000 C 
ATOM     20  C   UNL     1      -3.554   9.290  17.687  0.00  0.00    +0.000 C 
ENDBRANCH  13  18
ENDBRANCH   7  14
ENDBRANCH   1   7
BRANCH   2  21
ATOM     21  C   UNL     1       2.533   7.629  19.425  0.00  0.00    +0.000 C 
BRANCH  21  22
ATOM     22  C   UNL     1       2.831   6.294  18.811  0.00  0.00    +0.000 A 
ATOM     23  C   UNL     1       3.648   6.090  17.712  0.00  0.00    +0.000 A 
ATOM     24  N   UNL     1       3.536   4.784  17.319  0.00  0.00    +0.000 N 
ATOM     25  C   UNL     1       2.646   4.122  18.128  0.00  0.00    +0.000 A 
ATOM     26  C   UNL     1       2.186   2.799  18.060  0.00  0.00    +0.000 A 
ATOM     27  C   UNL     1       1.250   2.392  19.010  0.00  0.00    +0.000 A 
ATOM     28  C   UNL     1       0.792   3.275  19.987  0.00  0.00    +0.000 A 
ATOM     29  C   UNL     1       1.258   4.596  20.038  0.00  0.00    +0.000 A 
ATOM     30  C   UNL     1       2.201   5.036  19.089  0.00  0.00    +0.000 A 
ATOM     31  H   UNL     1       3.994   4.373  16.518  0.00  0.00    +0.000 HD
ENDBRANCH  21  22
ENDBRANCH   2  21
TORSDOF 7
ENDMDL
MODEL 3
REMARK VINA RESULT:      -7.5      1.041      2.349
REMARK  Name = 
REMARK  10 active torsions:
REMARK  status: ('A' for Active; 'I' for Inactive)
REMARK    1  A    between atoms: C_1  and  C_2
REMARK    2  A    between atoms: C_2  and  C_3
REMARK    3  A    between atoms: C_2  and  C_4
REMARK    4  A    between atoms: C_2  and  N_5
REMARK    5  A    between atoms: C_6  and  C_8
REMARK    6  A    between atoms: C_8  and  C_9
REMARK    7  A    between atoms: C_8  and  N_14
REMARK    8  A    between atoms: N_14  and  C_27
REMARK    9  A    between atoms: C_15  and  C_17
REMARK   10  A    between atoms: C_17  and  C_18
REMARK                            x       y       z     vdW  Elec       q    Type
REMARK                         _______ _______ _______ _____ _____    ______ ____
ROOT
ATOM      1  N   UNL     1       0.954   9.758  19.424  0.00  0.00    +0.000 N 
ATOM      2  C   UNL     1       1.679   8.840  18.624  0.00  0.00    +0.000 C 
ATOM      3  O   UNL     1       1.713   8.930  17.397  0.00  0.00    +0.000 OA
ENDROOT
BRANCH   1   4
ATOM      4  C   UNL     1       0.893   9.618  20.866  0.00  0.00    +0.000 C 
ATOM      5  C   UNL     1      -0.289   9.972  21.727  0.00  0.00    +0.000 C 
ATOM      6  C   UNL     1       0.015   8.537  21.461  0.00  0.00    +0.000 C 
ENDBRANCH   1   4
BRANCH   1   7
ATOM      7  C   UNL     1       0.382  10.976  18.793  0.00  0.00    +0.000 C 
BRANCH   7   8
ATOM      8  C   UNL     1       0.730  12.218  19.629  0.00  0.00    +0.000 A 
ATOM      9  C   UNL     1       2.073  12.669  19.899  0.00  0.00    +0.000 A 
ATOM     10  C   UNL     1       2.119  13.843  20.616  0.00  0.00    +0.000 A 
ATOM     11  S   UNL     1       0.557  14.421  20.999  0.00  0.00    +0.000 S 
ATOM     12  C   UNL     1      -0.178  13.109  20.190  0.00  0.00    +0.000 A 
ENDBRANCH   7   8
BRANCH   7  14
ATOM     13  N   UNL     1      -1.511  10.532  17.182  0.00  0.00    +0.000 N 
ATOM     14  C   UNL     1      -1.147  10.923  18.460  0.00  0.00    +0.000 C 
ATOM     15  O   UNL     1      -1.993  11.263  19.291  0.00  0.00    +0.000 OA
ATOM     16  H   UNL     1      -0.772  10.411  16.501  0.00  0.00    +0.000 HD
BRANCH  13  18
ATOM     17  C   UNL     1      -3.614   9.295  17.691  0.00  0.00    +0.000 C 
ATOM     18  C   UNL     1      -2.919  10.314  16.773  0.00  0.00    +0.000 C 
ATOM     19  C   UNL     1      -2.993   9.844  15.307  0.00  0.00    +0.000 C 
ATOM     20  C   UNL     1      -3.703  11.639  16.867  0.00  0.00    +0.000 C 
ENDBRANCH  13  18
ENDBRANCH   7  14
ENDBRANCH   1   7
BRANCH   2  21
ATOM     21  C   UNL     1       2.418   7.752  19.412  0.00  0.00    +0.000 C 
BRANCH  21  22
ATOM     22  C   UNL     1       2.642   6.417  18.768  0.00  0.00    +0.000 A 
ATOM     23  C   UNL     1       2.096   5.221  19.205  0.00  0.00    +0.000 A 
ATOM     24  N   UNL     1       2.665   4.196  18.500  0.00  0.00    +0.000 N 
ATOM     25  C   UNL     1       3.592   4.688  17.615  0.00  0.00    +0.000 A 
ATOM     26  C   UNL     1       4.446   4.004  16.739  0.00  0.00    +0.000 A 
ATOM     27  C   UNL     1       5.316   4.765  15.959  0.00  0.00    +0.000 A 
ATOM     28  C   UNL     1       5.331   6.156  16.055  0.00  0.00    +0.000 A 
ATOM     29  C   UNL     1       4.473   6.825  16.939  0.00  0.00    +0.000 A 
ATOM     30  C   UNL     1       3.586   6.081  17.742  0.00  0.00    +0.000 A 
ATOM     31  H   UNL     1       2.478   3.214  18.644  0.00  0.00    +0.000 HD
ENDBRANCH  21  22
ENDBRANCH   2  21
TORSDOF 7
ENDMDL
MODEL 4
REMARK VINA RESULT:      -7.5      1.051      2.120
REMARK  Name = 
REMARK  10 active torsions:
REMARK  status: ('A' for Active; 'I' for Inactive)
REMARK    1  A    between atoms: C_1  and  C_2
REMARK    2  A    between atoms: C_2  and  C_3
REMARK    3  A    between atoms: C_2  and  C_4
REMARK    4  A    between atoms: C_2  and  N_5
REMARK    5  A    between atoms: C_6  and  C_8
REMARK    6  A    between atoms: C_8  and  C_9
REMARK    7  A    between atoms: C_8  and  N_14
REMARK    8  A    between atoms: N_14  and  C_27
REMARK    9  A    between atoms: C_15  and  C_17
REMARK   10  A    between atoms: C_17  and  C_18
REMARK                            x       y       z     vdW  Elec       q    Type
REMARK                         _______ _______ _______ _____ _____    ______ ____
ROOT
ATOM      1  N   UNL     1       1.072   9.640  19.358  0.00  0.00    +0.000 N 
ATOM      2  C   UNL     1       1.811   8.750  18.540  0.00  0.00    +0.000 C 
ATOM      3  O   UNL     1       1.872   8.887  17.318  0.00  0.00    +0.000 OA
ENDROOT
BRANCH   1   4
ATOM      4  C   UNL     1       0.979   9.445  20.792  0.00  0.00    +0.000 C 
ATOM      5  C   UNL     1      -0.298   9.427  21.589  0.00  0.00    +0.000 C 
ATOM      6  C   UNL     1       0.412   8.145  21.320  0.00  0.00    +0.000 C 
ENDBRANCH   1   4
BRANCH   1   7
ATOM      7  C   UNL     1       0.518  10.884  18.762  0.00  0.00    +0.000 C 
BRANCH   7   8
ATOM      8  C   UNL     1       0.931  12.102  19.602  0.00  0.00    +0.000 A 
ATOM      9  C   UNL     1       0.118  12.692  20.638  0.00  0.00    +0.000 A 
ATOM     10  C   UNL     1       0.739  13.733  21.291  0.00  0.00    +0.000 A 
ATOM     11  S   UNL     1       2.300  14.041  20.665  0.00  0.00    +0.000 S 
ATOM     12  C   UNL     1       2.149  12.770  19.535  0.00  0.00    +0.000 A 
ENDBRANCH   7   8
BRANCH   7  14
ATOM     13  N   UNL     1      -1.443  10.474  17.225  0.00  0.00    +0.000 N 
ATOM     14  C   UNL     1      -1.023  10.882  18.479  0.00  0.00    +0.000 C 
ATOM     15  O   UNL     1      -1.827  11.276  19.327  0.00  0.00    +0.000 OA
ATOM     16  H   UNL     1      -0.732  10.307  16.523  0.00  0.00    +0.000 HD
BRANCH  13  18
ATOM     17  C   UNL     1      -3.631  11.635  16.951  0.00  0.00    +0.000 C 
ATOM     18  C   UNL     1      -2.871  10.301  16.866  0.00  0.00    +0.000 C 
ATOM     19  C   UNL     1      -3.537   9.251  17.777  0.00  0.00    +0.000 C 
ATOM     20  C   UNL     1      -2.988   9.786  15.417  0.00  0.00    +0.000 C 
ENDBRANCH  13  18
ENDBRANCH   7  14
ENDBRANCH   1   7
BRANCH   2  21
ATOM     21  C   UNL     1       2.529   7.630  19.301  0.00  0.00    +0.000 C 
BRANCH  21  22
ATOM     22  C   UNL     1       2.717   6.303  18.630  0.00  0.00    +0.000 A 
ATOM     23  C   UNL     1       2.117   5.119  19.026  0.00  0.00    +0.000 A 
ATOM     24  N   UNL     1       2.663   4.090  18.309  0.00  0.00    +0.000 N 
ATOM     25  C   UNL     1       3.626   4.567  17.455  0.00  0.00    +0.000 A 
ATOM     26  C   UNL     1       4.473   3.871  16.580  0.00  0.00    +0.000 A 
ATOM     27  C   UNL     1       5.388   4.617  15.838  0.00  0.00    +0.000 A 
ATOM     28  C   UNL     1       5.452   6.004  15.967  0.00  0.00    +0.000 A 
ATOM     29  C   UNL     1       4.601   6.684  16.850  0.00  0.00    +0.000 A 
ATOM     30  C   UNL     1       3.670   5.956  17.615  0.00  0.00    +0.000 A 
ATOM     31  H   UNL     1       2.437   3.112  18.425  0.00  0.00    +0.000 HD
ENDBRANCH  21  22
ENDBRANCH   2  21
TORSDOF 7
ENDMDL
MODEL 5
REMARK VINA RESULT:      -7.5      2.161      3.393
REMARK  Name = 
REMARK  10 active torsions:
REMARK  status: ('A' for Active; 'I' for Inactive)
REMARK    1  A    between atoms: C_1  and  C_2
REMARK    2  A    between atoms: C_2  and  C_3
REMARK    3  A    between atoms: C_2  and  C_4
REMARK    4  A    between atoms: C_2  and  N_5
REMARK    5  A    between atoms: C_6  and  C_8
REMARK    6  A    between atoms: C_8  and  C_9
REMARK    7  A    between atoms: C_8  and  N_14
REMARK    8  A    between atoms: N_14  and  C_27
REMARK    9  A    between atoms: C_15  and  C_17
REMARK   10  A    between atoms: C_17  and  C_18
REMARK                            x       y       z     vdW  Elec       q    Type
REMARK                         _______ _______ _______ _____ _____    ______ ____
ROOT
ATOM      1  N   UNL     1       0.183  12.092  19.091  0.00  0.00    +0.000 N 
ATOM      2  C   UNL     1       0.138  10.678  19.180  0.00  0.00    +0.000 C 
ATOM      3  O   UNL     1      -0.884  10.080  19.517  0.00  0.00    +0.000 OA
ENDROOT
BRANCH   1   4
ATOM      4  C   UNL     1       1.404  12.786  18.727  0.00  0.00    +0.000 C 
ATOM      5  C   UNL     1       1.593  14.279  18.734  0.00  0.00    +0.000 C 
ATOM      6  C   UNL     1       2.215  13.460  19.813  0.00  0.00    +0.000 C 
ENDBRANCH   1   4
BRANCH   1   7
ATOM      7  C   UNL     1      -1.079  12.868  19.211  0.00  0.00    +0.000 C 
BRANCH   7   8
ATOM      8  C   UNL     1      -1.272  13.342  20.660  0.00  0.00    +0.000 A 
ATOM      9  C   UNL     1      -0.920  12.567  21.826  0.00  0.00    +0.000 A 
ATOM     10  C   UNL     1      -1.128  13.240  23.009  0.00  0.00    +0.000 A 
ATOM     11  S   UNL     1      -1.767  14.804  22.753  0.00  0.00    +0.000 S 
ATOM     12  C   UNL     1      -1.748  14.586  21.060  0.00  0.00    +0.000 A 
ENDBRANCH   7   8
BRANCH   7  14
ATOM     13  N   UNL     1      -2.378  11.796  17.330  0.00  0.00    +0.000 N 
ATOM     14  C   UNL     1      -2.369  12.169  18.664  0.00  0.00    +0.000 C 
ATOM     15  O   UNL     1      -3.358  12.002  19.382  0.00  0.00    +0.000 OA
ATOM     16  H   UNL     1      -1.600  12.094  16.755  0.00  0.00    +0.000 HD
BRANCH  13  18
ATOM     17  C   UNL     1      -3.653   9.656  17.417  0.00  0.00    +0.000 C 
ATOM     18  C   UNL     1      -3.477  11.013  16.716  0.00  0.00    +0.000 C 
ATOM     19  C   UNL     1      -3.221  10.804  15.210  0.00  0.00    +0.000 C 
ATOM     20  C   UNL     1      -4.806  11.784  16.849  0.00  0.00    +0.000 C 
ENDBRANCH  13  18
ENDBRANCH   7  14
ENDBRANCH   1   7
BRANCH   2  21
ATOM     21  C   UNL     1       1.447   9.973  18.810  0.00  0.00    +0.000 C 
BRANCH  21  22
ATOM     22  C   UNL     1       1.711   8.602  19.357  0.00  0.00    +0.000 A 
ATOM     23  C   UNL     1       1.347   8.167  20.621  0.00  0.00    +0.000 A 
ATOM     24  N   UNL     1       1.913   6.942  20.843  0.00  0.00    +0.000 N 
ATOM     25  C   UNL     1       2.660   6.563  19.755  0.00  0.00    +0.000 A 
ATOM     26  C   UNL     1       3.451   5.420  19.564  0.00  0.00    +0.000 A 
ATOM     27  C   UNL     1       4.131   5.300  18.353  0.00  0.00    +0.000 A 
ATOM     28  C   UNL     1       4.023   6.284  17.372  0.00  0.00    +0.000 A 
ATOM     29  C   UNL     1       3.232   7.423  17.579  0.00  0.00    +0.000 A 
ATOM     30  C   UNL     1       2.537   7.573  18.795  0.00  0.00    +0.000 A 
ATOM     31  H   UNL     1       1.843   6.412  21.699  0.00  0.00    +0.000 HD
ENDBRANCH  21  22
ENDBRANCH   2  21
TORSDOF 7
ENDMDL
MODEL 6
REMARK VINA RESULT:      -7.4      3.147      8.205
REMARK  Name = 
REMARK  10 active torsions:
REMARK  status: ('A' for Active; 'I' for Inactive)
REMARK    1  A    between atoms: C_1  and  C_2
REMARK    2  A    between atoms: C_2  and  C_3
REMARK    3  A    between atoms: C_2  and  C_4
REMARK    4  A    between atoms: C_2  and  N_5
REMARK    5  A    between atoms: C_6  and  C_8
REMARK    6  A    between atoms: C_8  and  C_9
REMARK    7  A    between atoms: C_8  and  N_14
REMARK    8  A    between atoms: N_14  and  C_27
REMARK    9  A    between atoms: C_15  and  C_17
REMARK   10  A    between atoms: C_17  and  C_18
REMARK                            x       y       z     vdW  Elec       q    Type
REMARK                         _______ _______ _______ _____ _____    ______ ____
ROOT
ATOM      1  N   UNL     1       2.725   6.731  18.760  0.00  0.00    +0.000 N 
ATOM      2  C   UNL     1       2.259   8.026  18.426  0.00  0.00    +0.000 C 
ATOM      3  O   UNL     1       2.419   8.506  17.304  0.00  0.00    +0.000 OA
ENDROOT
BRANCH   1   4
ATOM      4  C   UNL     1       2.562   6.191  20.096  0.00  0.00    +0.000 C 
ATOM      5  C   UNL     1       1.566   6.673  21.116  0.00  0.00    +0.000 C 
ATOM      6  C   UNL     1       1.322   5.381  20.413  0.00  0.00    +0.000 C 
ENDBRANCH   1   4
BRANCH   1   7
ATOM      7  C   UNL     1       3.242   5.845  17.683  0.00  0.00    +0.000 C 
BRANCH   7   8
ATOM      8  C   UNL     1       2.937   4.376  18.015  0.00  0.00    +0.000 A 
ATOM      9  C   UNL     1       1.668   3.732  17.775  0.00  0.00    +0.000 A 
ATOM     10  C   UNL     1       1.668   2.393  18.097  0.00  0.00    +0.000 A 
ATOM     11  S   UNL     1       3.179   1.882  18.712  0.00  0.00    +0.000 S 
ATOM     12  C   UNL     1       3.835   3.448  18.530  0.00  0.00    +0.000 A 
ENDBRANCH   7   8
BRANCH   7  14
ATOM     13  N   UNL     1       5.687   5.933  18.309  0.00  0.00    +0.000 N 
ATOM     14  C   UNL     1       4.747   6.042  17.297  0.00  0.00    +0.000 C 
ATOM     15  O   UNL     1       5.077   6.333  16.145  0.00  0.00    +0.000 OA
ATOM     16  H   UNL     1       5.345   5.844  19.258  0.00  0.00    +0.000 HD
BRANCH  13  18
ATOM     17  C   UNL     1       7.578   7.316  17.461  0.00  0.00    +0.000 C 
ATOM     18  C   UNL     1       7.148   5.968  18.063  0.00  0.00    +0.000 C 
ATOM     19  C   UNL     1       7.571   4.813  17.134  0.00  0.00    +0.000 C 
ATOM     20  C   UNL     1       7.907   5.785  19.392  0.00  0.00    +0.000 C 
ENDBRANCH  13  18
ENDBRANCH   7  14
ENDBRANCH   1   7
BRANCH   2  21
ATOM     21  C   UNL     1       1.537   8.757  19.563  0.00  0.00    +0.000 C 
BRANCH  21  22
ATOM     22  C   UNL     1       0.854  10.059  19.269  0.00  0.00    +0.000 A 
ATOM     23  C   UNL     1       1.096  11.252  19.932  0.00  0.00    +0.000 A 
ATOM     24  N   UNL     1       0.166  12.171  19.532  0.00  0.00    +0.000 N 
ATOM     25  C   UNL     1      -0.700  11.606  18.628  0.00  0.00    +0.000 A 
ATOM     26  C   UNL     1      -1.829  12.156  18.003  0.00  0.00    +0.000 A 
ATOM     27  C   UNL     1      -2.549  11.337  17.135  0.00  0.00    +0.000 A 
ATOM     28  C   UNL     1      -2.155  10.020  16.902  0.00  0.00    +0.000 A 
ATOM     29  C   UNL     1      -1.027   9.484  17.538  0.00  0.00    +0.000 A 
ATOM     30  C   UNL     1      -0.282  10.287  18.424  0.00  0.00    +0.000 A 
ATOM     31  H   UNL     1       0.085  13.113  19.887  0.00  0.00    +0.000 HD
ENDBRANCH  21  22
ENDBRANCH   2  21
TORSDOF 7
ENDMDL
MODEL 7
REMARK VINA RESULT:      -7.4      0.860      1.135
REMARK  Name = 
REMARK  10 active torsions:
REMARK  status: ('A' for Active; 'I' for Inactive)
REMARK    1  A    between atoms: C_1  and  C_2
REMARK    2  A    between atoms: C_2  and  C_3
REMARK    3  A    between atoms: C_2  and  C_4
REMARK    4  A    between atoms: C_2  and  N_5
REMARK    5  A    between atoms: C_6  and  C_8
REMARK    6  A    between atoms: C_8  and  C_9
REMARK    7  A    between atoms: C_8  and  N_14
REMARK    8  A    between atoms: N_14  and  C_27
REMARK    9  A    between atoms: C_15  and  C_17
REMARK   10  A    between atoms: C_17  and  C_18
REMARK                            x       y       z     vdW  Elec       q    Type
REMARK                         _______ _______ _______ _____ _____    ______ ____
ROOT
ATOM      1  N   UNL     1       1.208   9.849  19.237  0.00  0.00    +0.000 N 
ATOM      2  C   UNL     1       1.889   8.780  18.604  0.00  0.00    +0.000 C 
ATOM      3  O   UNL     1       2.151   8.797  17.401  0.00  0.00    +0.000 OA
ENDROOT
BRANCH   1   4
ATOM      4  C   UNL     1       0.874   9.801  20.648  0.00  0.00    +0.000 C 
ATOM      5  C   UNL     1      -0.413  10.286  21.257  0.00  0.00    +0.000 C 
ATOM      6  C   UNL     1      -0.179   8.821  21.119  0.00  0.00    +0.000 C 
ENDBRANCH   1   4
BRANCH   1   7
ATOM      7  C   UNL     1       0.976  11.110  18.485  0.00  0.00    +0.000 C 
BRANCH   7   8
ATOM      8  C   UNL     1       1.774  12.260  19.120  0.00  0.00    +0.000 A 
ATOM      9  C   UNL     1       2.680  13.121  18.398  0.00  0.00    +0.000 A 
ATOM     10  C   UNL     1       3.221  14.117  19.179  0.00  0.00    +0.000 A 
ATOM     11  S   UNL     1       2.675  14.032  20.796  0.00  0.00    +0.000 S 
ATOM     12  C   UNL     1       1.701  12.674  20.445  0.00  0.00    +0.000 A 
ENDBRANCH   7   8
BRANCH   7  14
ATOM     13  N   UNL     1      -1.375  10.542  17.760  0.00  0.00    +0.000 N 
ATOM     14  C   UNL     1      -0.521  11.510  18.262  0.00  0.00    +0.000 C 
ATOM     15  O   UNL     1      -0.914  12.659  18.480  0.00  0.00    +0.000 OA
ATOM     16  H   UNL     1      -0.965   9.666  17.458  0.00  0.00    +0.000 HD
BRANCH  13  18
ATOM     17  C   UNL     1      -3.363  11.732  18.678  0.00  0.00    +0.000 C 
ATOM     18  C   UNL     1      -2.837  10.744  17.623  0.00  0.00    +0.000 C 
ATOM     19  C   UNL     1      -3.585   9.401  17.734  0.00  0.00    +0.000 C 
ATOM     20  C   UNL     1      -3.156  11.330  16.233  0.00  0.00    +0.000 C 
ENDBRANCH  13  18
ENDBRANCH   7  14
ENDBRANCH   1   7
BRANCH   2  21
ATOM     21  C   UNL     1       2.279   7.629  19.538  0.00  0.00    +0.000 C 
BRANCH  21  22
ATOM     22  C   UNL     1       2.686   6.317  18.938  0.00  0.00    +0.000 A 
ATOM     23  C   UNL     1       3.546   6.167  17.862  0.00  0.00    +0.000 A 
ATOM     24  N   UNL     1       3.536   4.856  17.472  0.00  0.00    +0.000 N 
ATOM     25  C   UNL     1       2.670   4.135  18.258  0.00  0.00    +0.000 A 
ATOM     26  C   UNL     1       2.305   2.783  18.184  0.00  0.00    +0.000 A 
ATOM     27  C   UNL     1       1.372   2.315  19.108  0.00  0.00    +0.000 A 
ATOM     28  C   UNL     1       0.827   3.166  20.068  0.00  0.00    +0.000 A 
ATOM     29  C   UNL     1       1.200   4.516  20.127  0.00  0.00    +0.000 A 
ATOM     30  C   UNL     1       2.137   5.018  19.203  0.00  0.00    +0.000 A 
ATOM     31  H   UNL     1       4.043   4.476  16.686  0.00  0.00    +0.000 HD
ENDBRANCH  21  22
ENDBRANCH   2  21
TORSDOF 7
ENDMDL
MODEL 8
REMARK VINA RESULT:      -7.3      1.091      1.748
REMARK  Name = 
REMARK  10 active torsions:
REMARK  status: ('A' for Active; 'I' for Inactive)
REMARK    1  A    between atoms: C_1  and  C_2
REMARK    2  A    between atoms: C_2  and  C_3
REMARK    3  A    between atoms: C_2  and  C_4
REMARK    4  A    between atoms: C_2  and  N_5
REMARK    5  A    between atoms: C_6  and  C_8
REMARK    6  A    between atoms: C_8  and  C_9
REMARK    7  A    between atoms: C_8  and  N_14
REMARK    8  A    between atoms: N_14  and  C_27
REMARK    9  A    between atoms: C_15  and  C_17
REMARK   10  A    between atoms: C_17  and  C_18
REMARK                            x       y       z     vdW  Elec       q    Type
REMARK                         _______ _______ _______ _____ _____    ______ ____
ROOT
ATOM      1  N   UNL     1       1.104   9.446  19.302  0.00  0.00    +0.000 N 
ATOM      2  C   UNL     1       1.784   8.351  18.714  0.00  0.00    +0.000 C 
ATOM      3  O   UNL     1       1.802   8.174  17.497  0.00  0.00    +0.000 OA
ENDROOT
BRANCH   1   4
ATOM      4  C   UNL     1       1.060   9.623  20.741  0.00  0.00    +0.000 C 
ATOM      5  C   UNL     1      -0.085  10.221  21.512  0.00  0.00    +0.000 C 
ATOM      6  C   UNL     1       0.135   8.747  21.559  0.00  0.00    +0.000 C 
ENDBRANCH   1   4
BRANCH   1   7
ATOM      7  C   UNL     1       0.565  10.521  18.427  0.00  0.00    +0.000 C 
BRANCH   7   8
ATOM      8  C   UNL     1       1.123  11.886  18.862  0.00  0.00    +0.000 A 
ATOM      9  C   UNL     1       2.461  12.347  18.580  0.00  0.00    +0.000 A 
ATOM     10  C   UNL     1       2.697  13.631  19.017  0.00  0.00    +0.000 A 
ATOM     11  S   UNL     1       1.330  14.305  19.791  0.00  0.00    +0.000 S 
ATOM     12  C   UNL     1       0.420  12.885  19.524  0.00  0.00    +0.000 A 
ENDBRANCH   7   8
BRANCH   7  14
ATOM     13  N   UNL     1      -1.516  10.397  17.003  0.00  0.00    +0.000 N 
ATOM     14  C   UNL     1      -0.993  10.564  18.275  0.00  0.00    +0.000 C 
ATOM     15  O   UNL     1      -1.723  10.787  19.243  0.00  0.00    +0.000 OA
ATOM     16  H   UNL     1      -0.865  10.370  16.228  0.00  0.00    +0.000 HD
BRANCH  13  18
ATOM     17  C   UNL     1      -3.676  11.639  16.934  0.00  0.00    +0.000 C 
ATOM     18  C   UNL     1      -2.970  10.288  16.735  0.00  0.00    +0.000 C 
ATOM     19  C   UNL     1      -3.611   9.216  17.639  0.00  0.00    +0.000 C 
ATOM     20  C   UNL     1      -3.201   9.849  15.274  0.00  0.00    +0.000 C 
ENDBRANCH  13  18
ENDBRANCH   7  14
ENDBRANCH   1   7
BRANCH   2  21
ATOM     21  C   UNL     1       2.496   7.432  19.713  0.00  0.00    +0.000 C 
BRANCH  21  22
ATOM     22  C   UNL     1       2.063   6.000  19.815  0.00  0.00    +0.000 A 
ATOM     23  C   UNL     1       1.454   5.431  20.922  0.00  0.00    +0.000 A 
ATOM     24  N   UNL     1       1.378   4.079  20.733  0.00  0.00    +0.000 N 
ATOM     25  C   UNL     1       1.940   3.737  19.527  0.00  0.00    +0.000 A 
ATOM     26  C   UNL     1       2.129   2.472  18.952  0.00  0.00    +0.000 A 
ATOM     27  C   UNL     1       2.759   2.415  17.710  0.00  0.00    +0.000 A 
ATOM     28  C   UNL     1       3.183   3.579  17.069  0.00  0.00    +0.000 A 
ATOM     29  C   UNL     1       2.990   4.836  17.660  0.00  0.00    +0.000 A 
ATOM     30  C   UNL     1       2.360   4.923  18.916  0.00  0.00    +0.000 A 
ATOM     31  H   UNL     1       1.014   3.415  21.401  0.00  0.00    +0.000 HD
ENDBRANCH  21  22
ENDBRANCH   2  21
TORSDOF 7
ENDMDL
MODEL 9
REMARK VINA RESULT:      -7.2      2.024      3.950
REMARK  Name = 
REMARK  10 active torsions:
REMARK  status: ('A' for Active; 'I' for Inactive)
REMARK    1  A    between atoms: C_1  and  C_2
REMARK    2  A    between atoms: C_2  and  C_3
REMARK    3  A    between atoms: C_2  and  C_4
REMARK    4  A    between atoms: C_2  and  N_5
REMARK    5  A    between atoms: C_6  and  C_8
REMARK    6  A    between atoms: C_8  and  C_9
REMARK    7  A    between atoms: C_8  and  N_14
REMARK    8  A    between atoms: N_14  and  C_27
REMARK    9  A    between atoms: C_15  and  C_17
REMARK   10  A    between atoms: C_17  and  C_18
REMARK                            x       y       z     vdW  Elec       q    Type
REMARK                         _______ _______ _______ _____ _____    ______ ____
ROOT
ATOM      1  N   UNL     1      -0.063   9.995  20.187  0.00  0.00    +0.000 N 
ATOM      2  C   UNL     1       1.072   9.518  19.487  0.00  0.00    +0.000 C 
ATOM      3  O   UNL     1       1.412   9.987  18.401  0.00  0.00    +0.000 OA
ENDROOT
BRANCH   1   4
ATOM      4  C   UNL     1      -0.472   9.410  21.450  0.00  0.00    +0.000 C 
ATOM      5  C   UNL     1       0.361   9.364  22.701  0.00  0.00    +0.000 C 
ATOM      6  C   UNL     1      -0.776  10.324  22.617  0.00  0.00    +0.000 C 
ENDBRANCH   1   4
BRANCH   1   7
ATOM      7  C   UNL     1      -0.751  11.222  19.705  0.00  0.00    +0.000 C 
BRANCH   7   8
ATOM      8  C   UNL     1      -1.776  10.861  18.619  0.00  0.00    +0.000 A 
ATOM      9  C   UNL     1      -3.114  11.397  18.550  0.00  0.00    +0.000 A 
ATOM     10  C   UNL     1      -3.815  10.969  17.445  0.00  0.00    +0.000 A 
ATOM     11  S   UNL     1      -2.895   9.903  16.476  0.00  0.00    +0.000 S 
ATOM     12  C   UNL     1      -1.555  10.029  17.527  0.00  0.00    +0.000 A 
ENDBRANCH   7   8
BRANCH   7  14
ATOM     13  N   UNL     1       1.200  12.776  20.100  0.00  0.00    +0.000 N 
ATOM     14  C   UNL     1       0.180  12.394  19.244  0.00  0.00    +0.000 C 
ATOM     15  O   UNL     1      -0.019  12.986  18.181  0.00  0.00    +0.000 OA
ATOM     16  H   UNL     1       1.220  12.356  21.021  0.00  0.00    +0.000 HD
BRANCH  13  18
ATOM     17  C   UNL     1       1.605  15.170  19.539  0.00  0.00    +0.000 C 
ATOM     18  C   UNL     1       2.229  13.778  19.736  0.00  0.00    +0.000 C 
ATOM     19  C   UNL     1       2.980  13.348  18.460  0.00  0.00    +0.000 C 
ATOM     20  C   UNL     1       3.274  13.890  20.864  0.00  0.00    +0.000 C 
ENDBRANCH  13  18
ENDBRANCH   7  14
ENDBRANCH   1   7
BRANCH   2  21
ATOM     21  C   UNL     1       1.836   8.396  20.199  0.00  0.00    +0.000 C 
BRANCH  21  22
ATOM     22  C   UNL     1       2.301   7.216  19.399  0.00  0.00    +0.000 A 
ATOM     23  C   UNL     1       2.966   7.289  18.187  0.00  0.00    +0.000 A 
ATOM     24  N   UNL     1       3.061   6.030  17.661  0.00  0.00    +0.000 N 
ATOM     25  C   UNL     1       2.455   5.123  18.496  0.00  0.00    +0.000 A 
ATOM     26  C   UNL     1       2.266   3.743  18.334  0.00  0.00    +0.000 A 
ATOM     27  C   UNL     1       1.586   3.062  19.343  0.00  0.00    +0.000 A 
ATOM     28  C   UNL     1       1.113   3.736  20.468  0.00  0.00    +0.000 A 
ATOM     29  C   UNL     1       1.306   5.117  20.612  0.00  0.00    +0.000 A 
ATOM     30  C   UNL     1       1.987   5.832  19.607  0.00  0.00    +0.000 A 
ATOM     31  H   UNL     1       3.465   5.799  16.765  0.00  0.00    +0.000 HD
ENDBRANCH  21  22
ENDBRANCH   2  21
TORSDOF 7
ENDMDL
