MODEL 1
REMARK VINA RESULT:      -8.0      0.000      0.000
REMARK  Name = 
REMARK  12 active torsions:
REMARK  status: ('A' for Active; 'I' for Inactive)
REMARK    1  A    between atoms: CD_2  and  OE2_3
REMARK    2  A    between atoms: CD_2  and  CG_4
REMARK    3  A    between atoms: CG_4  and  CB_5
REMARK    4  A    between atoms: CB_5  and  CA_6
REMARK    5  A    between atoms: CA_6  and  N_7
REMARK    6  A    between atoms: CA_6  and  C_32
REMARK    7  A    between atoms: C_8  and  C_10
REMARK    8  A    between atoms: C_13  and  C_14
REMARK    9  A    between atoms: C_14  and  O_15
REMARK   10  A    between atoms: O_15  and  C_16
REMARK   11  A    between atoms: C_20  and  C_21
REMARK   12  A    between atoms: C_32  and  OXT_34
REMARK                            x       y       z     vdW  Elec       q    Type
REMARK                         _______ _______ _______ _____ _____    ______ ____
ROOT
ATOM      1  C   UNK A   0       3.223   5.440  19.146  0.00  0.00    +0.000 A 
ATOM      2  C   UNK A   0       2.450   4.995  20.226  0.00  0.00    +0.000 A 
ATOM      3  C   UNK A   0       1.576   5.874  20.866  0.00  0.00    +0.000 A 
ATOM      4  C   UNK A   0       1.459   7.200  20.425  0.00  0.00    +0.000 A 
ATOM      5  C   UNK A   0       2.277   7.650  19.379  0.00  0.00    +0.000 A 
ATOM      6  C   UNK A   0       3.160   6.774  18.742  0.00  0.00    +0.000 A 
ENDROOT
BRANCH   1   8
ATOM      7  N   GLU A   1       4.956   5.112  17.496  0.00  0.00    +0.000 N 
ATOM      8  C   UNK A   0       4.125   4.512  18.420  0.00  0.00    +0.000 C 
ATOM      9  O   UNK A   0       4.108   3.308  18.627  0.00  0.00    +0.000 OA
ATOM     10  H   GLU A   1       5.146   6.103  17.675  0.00  0.00    +0.000 HD
BRANCH   7  11
ATOM     11  CA  GLU A   1       5.971   4.344  16.760  0.00  0.00    +0.000 C 
BRANCH  11  12
ATOM     12  C   GLU A   1       5.846   4.580  15.246  0.00  0.00    +0.000 C 
ATOM     13  O   GLU A   1       6.034   3.717  14.397  0.00  0.00    +0.000 OA
BRANCH  12  14
ATOM     14  OXT GLU A   1       5.626   5.875  14.918  0.00  0.00    +0.000 OA
ATOM     15  HXT GLU A   1       6.484   6.292  14.688  0.00  0.00    +0.000 HD
ENDBRANCH  12  14
ENDBRANCH  11  12
BRANCH  11  16
ATOM     16  CB  GLU A   1       7.409   4.663  17.222  0.00  0.00    +0.000 C 
BRANCH  16  17
ATOM     17  CG  GLU A   1       7.545   5.614  18.422  0.00  0.00    +0.000 C 
BRANCH  17  19
ATOM     18  OE1 GLU A   1       8.497   7.826  18.594  0.00  0.00    +0.000 OA
ATOM     19  CD  GLU A   1       7.753   7.053  18.013  0.00  0.00    +0.000 C 
BRANCH  19  20
ATOM     20  OE2 GLU A   1       6.990   7.439  16.974  0.00  0.00    +0.000 OA
ATOM     21  HE2 GLU A   1       6.786   6.734  16.328  0.00  0.00    +0.000 HD
ENDBRANCH  19  20
ENDBRANCH  17  19
ENDBRANCH  16  17
ENDBRANCH  11  16
ENDBRANCH   7  11
ENDBRANCH   1   8
BRANCH   4  22
ATOM     22  C   UNK A   0       0.472   8.132  21.084  0.00  0.00    +0.000 C 
BRANCH  22  23
ATOM     23  O   UNK A   0       1.076   9.415  21.219  0.00  0.00    +0.000 OA
BRANCH  23  24
ATOM     24  C   UNK A   0       0.559  10.424  20.452  0.00  0.00    +0.000 A 
ATOM     25  C   UNK A   0       1.475  11.415  20.095  0.00  0.00    +0.000 A 
ATOM     26  C   UNK A   0       1.078  12.509  19.326  0.00  0.00    +0.000 A 
ATOM     27  C   UNK A   0      -0.249  12.628  18.915  0.00  0.00    +0.000 A 
ATOM     28  C   UNK A   0      -1.177  11.648  19.275  0.00  0.00    +0.000 A 
ATOM     29  C   UNK A   0      -0.768  10.539  20.032  0.00  0.00    +0.000 A 
BRANCH  28  30
ATOM     30  C   UNK A   0      -2.590  11.794  18.921  0.00  0.00    +0.000 C 
ATOM     31  C   UNK A   0      -3.122  11.356  17.773  0.00  0.00    +0.000 C 
ATOM     32  S   UNK A   0      -2.331  10.511  16.491  0.00  0.00    +0.000 S 
ATOM     33  C   UNK A   0      -3.772  10.503  15.498  0.00  0.00    +0.000 C 
ATOM     34  O   UNK A   0      -3.829  10.042  14.372  0.00  0.00    +0.000 OA
ATOM     35  N   UNK A   0      -4.794  11.093  16.169  0.00  0.00    +0.000 N 
ATOM     36  C   UNK A   0      -4.544  11.594  17.411  0.00  0.00    +0.000 C 
ATOM     37  O   UNK A   0      -5.363  12.171  18.109  0.00  0.00    +0.000 OA
ATOM     38  H   UNK A   0      -5.699  11.190  15.741  0.00  0.00    +0.000 HD
ENDBRANCH  28  30
ENDBRANCH  23  24
ENDBRANCH  22  23
ENDBRANCH   4  22
TORSDOF 12
ENDMDL
MODEL 2
REMARK VINA RESULT:      -8.0      3.190      3.853
REMARK  Name = 
REMARK  12 active torsions:
REMARK  status: ('A' for Active; 'I' for Inactive)
REMARK    1  A    between atoms: CD_2  and  OE2_3
REMARK    2  A    between atoms: CD_2  and  CG_4
REMARK    3  A    between atoms: CG_4  and  CB_5
REMARK    4  A    between atoms: CB_5  and  CA_6
REMARK    5  A    between atoms: CA_6  and  N_7
REMARK    6  A    between atoms: CA_6  and  C_32
REMARK    7  A    between atoms: C_8  and  C_10
REMARK    8  A    between atoms: C_13  and  C_14
REMARK    9  A    between atoms: C_14  and  O_15
REMARK   10  A    between atoms: O_15  and  C_16
REMARK   11  A    between atoms: C_20  and  C_21
REMARK   12  A    between atoms: C_32  and  OXT_34
REMARK                            x       y       z     vdW  Elec       q    Type
REMARK                         _______ _______ _______ _____ _____    ______ ____
ROOT
ATOM      1  C   UNK A   0       3.481   6.447  18.301  0.00  0.00    +0.000 A 
ATOM      2  C   UNK A   0       2.769   6.459  19.507  0.00  0.00    +0.000 A 
ATOM      3  C   UNK A   0       1.931   7.533  19.809  0.00  0.00    +0.000 A 
ATOM      4  C   UNK A   0       1.789   8.594  18.905  0.00  0.00    +0.000 A 
ATOM      5  C   UNK A   0       2.548   8.598  17.726  0.00  0.00    +0.000 A 
ATOM      6  C   UNK A   0       3.395   7.529  17.425  0.00  0.00    +0.000 A 
ENDROOT
BRANCH   1   8
ATOM      7  N   GLU A   1       5.301   5.564  16.980  0.00  0.00    +0.000 N 
ATOM      8  C   UNK A   0       4.344   5.295  17.937  0.00  0.00    +0.000 C 
ATOM      9  O   UNK A   0       4.192   4.194  18.445  0.00  0.00    +0.000 OA
ATOM     10  H   GLU A   1       5.572   6.551  16.915  0.00  0.00    +0.000 HD
BRANCH   7  11
ATOM     11  CA  GLU A   1       6.292   4.556  16.576  0.00  0.00    +0.000 C 
BRANCH  11  12
ATOM     12  C   GLU A   1       6.616   4.676  15.077  0.00  0.00    +0.000 C 
ATOM     13  O   GLU A   1       7.602   5.250  14.632  0.00  0.00    +0.000 OA
BRANCH  12  14
ATOM     14  OXT GLU A   1       5.641   4.192  14.274  0.00  0.00    +0.000 OA
ATOM     15  HXT GLU A   1       4.804   4.152  14.783  0.00  0.00    +0.000 HD
ENDBRANCH  12  14
ENDBRANCH  11  12
BRANCH  11  16
ATOM     16  CB  GLU A   1       7.593   4.637  17.402  0.00  0.00    +0.000 C 
BRANCH  16  17
ATOM     17  CG  GLU A   1       7.596   5.628  18.576  0.00  0.00    +0.000 C 
BRANCH  17  19
ATOM     18  OE1 GLU A   1       7.589   7.530  17.087  0.00  0.00    +0.000 OA
ATOM     19  CD  GLU A   1       7.924   7.041  18.155  0.00  0.00    +0.000 C 
BRANCH  19  20
ATOM     20  OE2 GLU A   1       8.682   7.711  19.042  0.00  0.00    +0.000 OA
ATOM     21  HE2 GLU A   1       8.373   8.615  19.249  0.00  0.00    +0.000 HD
ENDBRANCH  19  20
ENDBRANCH  17  19
ENDBRANCH  16  17
ENDBRANCH  11  16
ENDBRANCH   7  11
ENDBRANCH   1   8
BRANCH   4  22
ATOM     22  C   UNK A   0       0.839   9.726  19.210  0.00  0.00    +0.000 C 
BRANCH  22  23
ATOM     23  O   UNK A   0       0.433   9.629  20.572  0.00  0.00    +0.000 OA
BRANCH  23  24
ATOM     24  C   UNK A   0       0.012  10.783  21.174  0.00  0.00    +0.000 A 
ATOM     25  C   UNK A   0       0.724  11.927  20.807  0.00  0.00    +0.000 A 
ATOM     26  C   UNK A   0       0.408  13.170  21.356  0.00  0.00    +0.000 A 
ATOM     27  C   UNK A   0      -0.620  13.278  22.290  0.00  0.00    +0.000 A 
ATOM     28  C   UNK A   0      -1.333  12.139  22.673  0.00  0.00    +0.000 A 
ATOM     29  C   UNK A   0      -1.024  10.895  22.103  0.00  0.00    +0.000 A 
BRANCH  28  30
ATOM     30  C   UNK A   0      -2.362  12.219  23.711  0.00  0.00    +0.000 C 
ATOM     31  C   UNK A   0      -3.641  12.537  23.473  0.00  0.00    +0.000 C 
ATOM     32  S   UNK A   0      -4.383  12.880  21.951  0.00  0.00    +0.000 S 
ATOM     33  C   UNK A   0      -5.923  13.250  22.694  0.00  0.00    +0.000 C 
ATOM     34  O   UNK A   0      -6.910  13.624  22.085  0.00  0.00    +0.000 OA
ATOM     35  N   UNK A   0      -5.840  13.070  24.037  0.00  0.00    +0.000 N 
ATOM     36  C   UNK A   0      -4.642  12.687  24.561  0.00  0.00    +0.000 C 
ATOM     37  O   UNK A   0      -4.422  12.517  25.751  0.00  0.00    +0.000 OA
ATOM     38  H   UNK A   0      -6.632  13.253  24.629  0.00  0.00    +0.000 HD
ENDBRANCH  28  30
ENDBRANCH  23  24
ENDBRANCH  22  23
ENDBRANCH   4  22
TORSDOF 12
ENDMDL
MODEL 3
REMARK VINA RESULT:      -7.9      1.354      2.106
REMARK  Name = 
REMARK  12 active torsions:
REMARK  status: ('A' for Active; 'I' for Inactive)
REMARK    1  A    between atoms: CD_2  and  OE2_3
REMARK    2  A    between atoms: CD_2  and  CG_4
REMARK    3  A    between atoms: CG_4  and  CB_5
REMARK    4  A    between atoms: CB_5  and  CA_6
REMARK    5  A    between atoms: CA_6  and  N_7
REMARK    6  A    between atoms: CA_6  and  C_32
REMARK    7  A    between atoms: C_8  and  C_10
REMARK    8  A    between atoms: C_13  and  C_14
REMARK    9  A    between atoms: C_14  and  O_15
REMARK   10  A    between atoms: O_15  and  C_16
REMARK   11  A    between atoms: C_20  and  C_21
REMARK   12  A    between atoms: C_32  and  OXT_34
REMARK                            x       y       z     vdW  Elec       q    Type
REMARK                         _______ _______ _______ _____ _____    ______ ____
ROOT
ATOM      1  C   UNK A   0       3.060   5.693  18.532  0.00  0.00    +0.000 A 
ATOM      2  C   UNK A   0       2.910   7.062  18.276  0.00  0.00    +0.000 A 
ATOM      3  C   UNK A   0       2.159   7.853  19.145  0.00  0.00    +0.000 A 
ATOM      4  C   UNK A   0       1.562   7.288  20.280  0.00  0.00    +0.000 A 
ATOM      5  C   UNK A   0       1.673   5.907  20.497  0.00  0.00    +0.000 A 
ATOM      6  C   UNK A   0       2.416   5.109  19.624  0.00  0.00    +0.000 A 
ENDROOT
BRANCH   1   8
ATOM      7  N   GLU A   1       5.105   5.386  17.283  0.00  0.00    +0.000 N 
ATOM      8  C   UNK A   0       3.892   4.839  17.648  0.00  0.00    +0.000 C 
ATOM      9  O   UNK A   0       3.508   3.742  17.270  0.00  0.00    +0.000 OA
ATOM     10  H   GLU A   1       5.464   6.095  17.931  0.00  0.00    +0.000 HD
BRANCH   7  11
ATOM     11  CA  GLU A   1       6.082   4.630  16.486  0.00  0.00    +0.000 C 
BRANCH  11  12
ATOM     12  C   GLU A   1       6.164   5.182  15.053  0.00  0.00    +0.000 C 
ATOM     13  O   GLU A   1       6.943   4.770  14.202  0.00  0.00    +0.000 OA
BRANCH  12  14
ATOM     14  OXT GLU A   1       5.375   6.261  14.845  0.00  0.00    +0.000 OA
ATOM     15  HXT GLU A   1       5.478   6.552  13.913  0.00  0.00    +0.000 HD
ENDBRANCH  12  14
ENDBRANCH  11  12
BRANCH  11  16
ATOM     16  CB  GLU A   1       7.488   4.619  17.124  0.00  0.00    +0.000 C 
BRANCH  16  17
ATOM     17  CG  GLU A   1       7.804   5.764  18.100  0.00  0.00    +0.000 C 
BRANCH  17  19
ATOM     18  OE1 GLU A   1       6.417   5.256  20.010  0.00  0.00    +0.000 OA
ATOM     19  CD  GLU A   1       7.535   5.402  19.541  0.00  0.00    +0.000 C 
BRANCH  19  20
ATOM     20  OE2 GLU A   1       8.645   5.311  20.296  0.00  0.00    +0.000 OA
ATOM     21  HE2 GLU A   1       9.086   4.439  20.278  0.00  0.00    +0.000 HD
ENDBRANCH  19  20
ENDBRANCH  17  19
ENDBRANCH  16  17
ENDBRANCH  11  16
ENDBRANCH   7  11
ENDBRANCH   1   8
BRANCH   4  22
ATOM     22  C   UNK A   0       0.798   8.158  21.247  0.00  0.00    +0.000 C 
BRANCH  22  23
ATOM     23  O   UNK A   0       1.233   9.505  21.093  0.00  0.00    +0.000 OA
BRANCH  23  24
ATOM     24  C   UNK A   0       0.303  10.407  20.653  0.00  0.00    +0.000 A 
ATOM     25  C   UNK A   0      -0.035  11.396  21.580  0.00  0.00    +0.000 A 
ATOM     26  C   UNK A   0      -0.981  12.372  21.267  0.00  0.00    +0.000 A 
ATOM     27  C   UNK A   0      -1.610  12.360  20.024  0.00  0.00    +0.000 A 
ATOM     28  C   UNK A   0      -1.287  11.370  19.092  0.00  0.00    +0.000 A 
ATOM     29  C   UNK A   0      -0.320  10.403  19.404  0.00  0.00    +0.000 A 
BRANCH  28  30
ATOM     30  C   UNK A   0      -1.993  11.294  17.812  0.00  0.00    +0.000 C 
ATOM     31  C   UNK A   0      -3.317  11.440  17.678  0.00  0.00    +0.000 C 
ATOM     32  S   UNK A   0      -4.477  11.780  18.913  0.00  0.00    +0.000 S 
ATOM     33  C   UNK A   0      -5.819  11.670  17.795  0.00  0.00    +0.000 C 
ATOM     34  O   UNK A   0      -6.990  11.788  18.111  0.00  0.00    +0.000 OA
ATOM     35  N   UNK A   0      -5.355  11.423  16.544  0.00  0.00    +0.000 N 
ATOM     36  C   UNK A   0      -4.011  11.277  16.374  0.00  0.00    +0.000 C 
ATOM     37  O   UNK A   0      -3.465  11.025  15.311  0.00  0.00    +0.000 OA
ATOM     38  H   UNK A   0      -5.991  11.312  15.773  0.00  0.00    +0.000 HD
ENDBRANCH  28  30
ENDBRANCH  23  24
ENDBRANCH  22  23
ENDBRANCH   4  22
TORSDOF 12
ENDMDL
MODEL 4
REMARK VINA RESULT:      -7.8      3.548      4.550
REMARK  Name = 
REMARK  12 active torsions:
REMARK  status: ('A' for Active; 'I' for Inactive)
REMARK    1  A    between atoms: CD_2  and  OE2_3
REMARK    2  A    between atoms: CD_2  and  CG_4
REMARK    3  A    between atoms: CG_4  and  CB_5
REMARK    4  A    between atoms: CB_5  and  CA_6
REMARK    5  A    between atoms: CA_6  and  N_7
REMARK    6  A    between atoms: CA_6  and  C_32
REMARK    7  A    between atoms: C_8  and  C_10
REMARK    8  A    between atoms: C_13  and  C_14
REMARK    9  A    between atoms: C_14  and  O_15
REMARK   10  A    between atoms: O_15  and  C_16
REMARK   11  A    between atoms: C_20  and  C_21
REMARK   12  A    between atoms: C_32  and  OXT_34
REMARK                            x       y       z     vdW  Elec       q    Type
REMARK                         _______ _______ _______ _____ _____    ______ ____
ROOT
ATOM      1  C   UNK A   0       2.591   7.239  18.942  0.00  0.00    +0.000 A 
ATOM      2  C   UNK A   0       1.959   7.622  20.133  0.00  0.00    +0.000 A 
ATOM      3  C   UNK A   0       1.213   8.800  20.176  0.00  0.00    +0.000 A 
ATOM      4  C   UNK A   0       1.083   9.597  19.031  0.00  0.00    +0.000 A 
ATOM      5  C   UNK A   0       1.764   9.234  17.860  0.00  0.00    +0.000 A 
ATOM      6  C   UNK A   0       2.520   8.060  17.816  0.00  0.00    +0.000 A 
ENDROOT
BRANCH   1   8
ATOM      7  N   GLU A   1       3.521   5.474  17.580  0.00  0.00    +0.000 N 
ATOM      8  C   UNK A   0       3.352   5.968  18.858  0.00  0.00    +0.000 C 
ATOM      9  O   UNK A   0       3.776   5.407  19.857  0.00  0.00    +0.000 OA
ATOM     10  H   GLU A   1       3.465   6.181  16.840  0.00  0.00    +0.000 HD
BRANCH   7  11
ATOM     11  CA  GLU A   1       4.328   4.273  17.319  0.00  0.00    +0.000 C 
BRANCH  11  12
ATOM     12  C   GLU A   1       3.505   2.997  17.561  0.00  0.00    +0.000 C 
ATOM     13  O   GLU A   1       2.345   2.848  17.199  0.00  0.00    +0.000 OA
BRANCH  12  14
ATOM     14  OXT GLU A   1       4.142   2.082  18.328  0.00  0.00    +0.000 OA
ATOM     15  HXT GLU A   1       3.601   1.908  19.127  0.00  0.00    +0.000 HD
ENDBRANCH  12  14
ENDBRANCH  11  12
BRANCH  11  16
ATOM     16  CB  GLU A   1       4.919   4.253  15.893  0.00  0.00    +0.000 C 
BRANCH  16  17
ATOM     17  CG  GLU A   1       5.839   5.425  15.518  0.00  0.00    +0.000 C 
BRANCH  17  19
ATOM     18  OE1 GLU A   1       7.790   4.398  16.505  0.00  0.00    +0.000 OA
ATOM     19  CD  GLU A   1       7.148   5.410  16.271  0.00  0.00    +0.000 C 
BRANCH  19  20
ATOM     20  OE2 GLU A   1       7.529   6.619  16.725  0.00  0.00    +0.000 OA
ATOM     21  HE2 GLU A   1       8.402   6.923  16.408  0.00  0.00    +0.000 HD
ENDBRANCH  19  20
ENDBRANCH  17  19
ENDBRANCH  16  17
ENDBRANCH  11  16
ENDBRANCH   7  11
ENDBRANCH   1   8
BRANCH   4  22
ATOM     22  C   UNK A   0       0.229  10.841  19.067  0.00  0.00    +0.000 C 
BRANCH  22  23
ATOM     23  O   UNK A   0       1.000  11.909  19.610  0.00  0.00    +0.000 OA
BRANCH  23  24
ATOM     24  C   UNK A   0       0.438  12.613  20.639  0.00  0.00    +0.000 A 
ATOM     25  C   UNK A   0       1.106  13.793  20.974  0.00  0.00    +0.000 A 
ATOM     26  C   UNK A   0       0.648  14.601  22.014  0.00  0.00    +0.000 A 
ATOM     27  C   UNK A   0      -0.481  14.228  22.741  0.00  0.00    +0.000 A 
ATOM     28  C   UNK A   0      -1.152  13.045  22.423  0.00  0.00    +0.000 A 
ATOM     29  C   UNK A   0      -0.699  12.246  21.362  0.00  0.00    +0.000 A 
BRANCH  28  30
ATOM     30  C   UNK A   0      -2.292  12.597  23.225  0.00  0.00    +0.000 C 
ATOM     31  C   UNK A   0      -3.459  13.250  23.297  0.00  0.00    +0.000 C 
ATOM     32  S   UNK A   0      -3.916  14.698  22.473  0.00  0.00    +0.000 S 
ATOM     33  C   UNK A   0      -5.469  14.761  23.279  0.00  0.00    +0.000 C 
ATOM     34  O   UNK A   0      -6.289  15.649  23.124  0.00  0.00    +0.000 OA
ATOM     35  N   UNK A   0      -5.604  13.689  24.099  0.00  0.00    +0.000 N 
ATOM     36  C   UNK A   0      -4.567  12.809  24.184  0.00  0.00    +0.000 C 
ATOM     37  O   UNK A   0      -4.546  11.821  24.902  0.00  0.00    +0.000 OA
ATOM     38  H   UNK A   0      -6.433  13.570  24.656  0.00  0.00    +0.000 HD
ENDBRANCH  28  30
ENDBRANCH  23  24
ENDBRANCH  22  23
ENDBRANCH   4  22
TORSDOF 12
ENDMDL
MODEL 5
REMARK VINA RESULT:      -7.8      2.792      4.175
REMARK  Name = 
REMARK  12 active torsions:
REMARK  status: ('A' for Active; 'I' for Inactive)
REMARK    1  A    between atoms: CD_2  and  OE2_3
REMARK    2  A    between atoms: CD_2  and  CG_4
REMARK    3  A    between atoms: CG_4  and  CB_5
REMARK    4  A    between atoms: CB_5  and  CA_6
REMARK    5  A    between atoms: CA_6  and  N_7
REMARK    6  A    between atoms: CA_6  and  C_32
REMARK    7  A    between atoms: C_8  and  C_10
REMARK    8  A    between atoms: C_13  and  C_14
REMARK    9  A    between atoms: C_14  and  O_15
REMARK   10  A    between atoms: O_15  and  C_16
REMARK   11  A    between atoms: C_20  and  C_21
REMARK   12  A    between atoms: C_32  and  OXT_34
REMARK                            x       y       z     vdW  Elec       q    Type
REMARK                         _______ _______ _______ _____ _____    ______ ____
ROOT
ATOM      1  C   UNK A   0       2.370   6.976  19.284  0.00  0.00    +0.000 A 
ATOM      2  C   UNK A   0       2.343   7.807  18.157  0.00  0.00    +0.000 A 
ATOM      3  C   UNK A   0       1.751   9.068  18.237  0.00  0.00    +0.000 A 
ATOM      4  C   UNK A   0       1.193   9.512  19.443  0.00  0.00    +0.000 A 
ATOM      5  C   UNK A   0       1.176   8.651  20.550  0.00  0.00    +0.000 A 
ATOM      6  C   UNK A   0       1.760   7.384  20.471  0.00  0.00    +0.000 A 
ENDROOT
BRANCH   1   8
ATOM      7  N   GLU A   1       3.352   5.201  17.972  0.00  0.00    +0.000 N 
ATOM      8  C   UNK A   0       3.034   5.649  19.238  0.00  0.00    +0.000 C 
ATOM      9  O   UNK A   0       3.260   5.009  20.254  0.00  0.00    +0.000 OA
ATOM     10  H   GLU A   1       3.462   5.944  17.273  0.00  0.00    +0.000 HD
BRANCH   7  11
ATOM     11  CA  GLU A   1       4.093   3.949  17.761  0.00  0.00    +0.000 C 
BRANCH  11  12
ATOM     12  C   GLU A   1       3.130   2.757  17.634  0.00  0.00    +0.000 C 
ATOM     13  O   GLU A   1       3.372   1.631  18.049  0.00  0.00    +0.000 OA
BRANCH  12  14
ATOM     14  OXT GLU A   1       2.025   3.032  16.903  0.00  0.00    +0.000 OA
ATOM     15  HXT GLU A   1       2.271   3.645  16.177  0.00  0.00    +0.000 HD
ENDBRANCH  12  14
ENDBRANCH  11  12
BRANCH  11  16
ATOM     16  CB  GLU A   1       5.020   4.007  16.528  0.00  0.00    +0.000 C 
BRANCH  16  17
ATOM     17  CG  GLU A   1       5.606   5.384  16.179  0.00  0.00    +0.000 C 
BRANCH  17  19
ATOM     18  OE1 GLU A   1       7.807   4.497  16.627  0.00  0.00    +0.000 OA
ATOM     19  CD  GLU A   1       7.097   5.465  16.404  0.00  0.00    +0.000 C 
BRANCH  19  20
ATOM     20  OE2 GLU A   1       7.581   6.721  16.400  0.00  0.00    +0.000 OA
ATOM     21  HE2 GLU A   1       8.491   6.814  16.746  0.00  0.00    +0.000 HD
ENDBRANCH  19  20
ENDBRANCH  17  19
ENDBRANCH  16  17
ENDBRANCH  11  16
ENDBRANCH   7  11
ENDBRANCH   1   8
BRANCH   4  22
ATOM     22  C   UNK A   0       0.604  10.898  19.540  0.00  0.00    +0.000 C 
BRANCH  22  23
ATOM     23  O   UNK A   0      -0.026  11.214  18.303  0.00  0.00    +0.000 OA
BRANCH  23  24
ATOM     24  C   UNK A   0      -1.387  11.079  18.252  0.00  0.00    +0.000 A 
ATOM     25  C   UNK A   0      -1.840  10.020  17.463  0.00  0.00    +0.000 A 
ATOM     26  C   UNK A   0      -3.205   9.776  17.312  0.00  0.00    +0.000 A 
ATOM     27  C   UNK A   0      -4.134  10.601  17.943  0.00  0.00    +0.000 A 
ATOM     28  C   UNK A   0      -3.694  11.670  18.726  0.00  0.00    +0.000 A 
ATOM     29  C   UNK A   0      -2.319  11.899  18.891  0.00  0.00    +0.000 A 
BRANCH  28  30
ATOM     30  C   UNK A   0      -4.654  12.595  19.332  0.00  0.00    +0.000 C 
ATOM     31  C   UNK A   0      -4.606  12.990  20.610  0.00  0.00    +0.000 C 
ATOM     32  S   UNK A   0      -3.437  12.566  21.809  0.00  0.00    +0.000 S 
ATOM     33  C   UNK A   0      -4.281  13.452  23.061  0.00  0.00    +0.000 C 
ATOM     34  O   UNK A   0      -3.930  13.498  24.227  0.00  0.00    +0.000 OA
ATOM     35  N   UNK A   0      -5.375  14.058  22.535  0.00  0.00    +0.000 N 
ATOM     36  C   UNK A   0      -5.644  13.867  21.213  0.00  0.00    +0.000 C 
ATOM     37  O   UNK A   0      -6.608  14.330  20.622  0.00  0.00    +0.000 OA
ATOM     38  H   UNK A   0      -5.990  14.601  23.117  0.00  0.00    +0.000 HD
ENDBRANCH  28  30
ENDBRANCH  23  24
ENDBRANCH  22  23
ENDBRANCH   4  22
TORSDOF 12
ENDMDL
MODEL 6
REMARK VINA RESULT:      -7.7      3.046      4.326
REMARK  Name = 
REMARK  12 active torsions:
REMARK  status: ('A' for Active; 'I' for Inactive)
REMARK    1  A    between atoms: CD_2  and  OE2_3
REMARK    2  A    between atoms: CD_2  and  CG_4
REMARK    3  A    between atoms: CG_4  and  CB_5
REMARK    4  A    between atoms: CB_5  and  CA_6
REMARK    5  A    between atoms: CA_6  and  N_7
REMARK    6  A    between atoms: CA_6  and  C_32
REMARK    7  A    between atoms: C_8  and  C_10
REMARK    8  A    between atoms: C_13  and  C_14
REMARK    9  A    between atoms: C_14  and  O_15
REMARK   10  A    between atoms: O_15  and  C_16
REMARK   11  A    between atoms: C_20  and  C_21
REMARK   12  A    between atoms: C_32  and  OXT_34
REMARK                            x       y       z     vdW  Elec       q    Type
REMARK                         _______ _______ _______ _____ _____    ______ ____
ROOT
ATOM      1  C   UNK A   0       2.876   6.163  18.517  0.00  0.00    +0.000 A 
ATOM      2  C   UNK A   0       2.670   7.482  18.093  0.00  0.00    +0.000 A 
ATOM      3  C   UNK A   0       2.037   8.393  18.938  0.00  0.00    +0.000 A 
ATOM      4  C   UNK A   0       1.615   7.999  20.215  0.00  0.00    +0.000 A 
ATOM      5  C   UNK A   0       1.776   6.663  20.609  0.00  0.00    +0.000 A 
ATOM      6  C   UNK A   0       2.402   5.745  19.761  0.00  0.00    +0.000 A 
ENDROOT
BRANCH   1   8
ATOM      7  N   GLU A   1       4.862   5.562  17.280  0.00  0.00    +0.000 N 
ATOM      8  C   UNK A   0       3.588   5.187  17.655  0.00  0.00    +0.000 C 
ATOM      9  O   UNK A   0       3.063   4.141  17.301  0.00  0.00    +0.000 OA
ATOM     10  H   GLU A   1       5.311   6.232  17.913  0.00  0.00    +0.000 HD
BRANCH   7  11
ATOM     11  CA  GLU A   1       5.731   4.667  16.503  0.00  0.00    +0.000 C 
BRANCH  11  12
ATOM     12  C   GLU A   1       5.740   5.065  15.018  0.00  0.00    +0.000 C 
ATOM     13  O   GLU A   1       5.630   6.216  14.615  0.00  0.00    +0.000 OA
BRANCH  12  14
ATOM     14  OXT GLU A   1       5.758   4.007  14.175  0.00  0.00    +0.000 OA
ATOM     15  HXT GLU A   1       5.667   4.334  13.255  0.00  0.00    +0.000 HD
ENDBRANCH  12  14
ENDBRANCH  11  12
BRANCH  11  16
ATOM     16  CB  GLU A   1       7.177   4.625  17.043  0.00  0.00    +0.000 C 
BRANCH  16  17
ATOM     17  CG  GLU A   1       7.586   5.768  17.986  0.00  0.00    +0.000 C 
BRANCH  17  19
ATOM     18  OE1 GLU A   1       6.309   5.195  19.954  0.00  0.00    +0.000 OA
ATOM     19  CD  GLU A   1       7.394   5.426  19.444  0.00  0.00    +0.000 C 
BRANCH  19  20
ATOM     20  OE2 GLU A   1       8.531   5.455  20.165  0.00  0.00    +0.000 OA
ATOM     21  HE2 GLU A   1       9.305   5.043  19.732  0.00  0.00    +0.000 HD
ENDBRANCH  19  20
ENDBRANCH  17  19
ENDBRANCH  16  17
ENDBRANCH  11  16
ENDBRANCH   7  11
ENDBRANCH   1   8
BRANCH   4  22
ATOM     22  C   UNK A   0       0.981   9.002  21.147  0.00  0.00    +0.000 C 
BRANCH  22  23
ATOM     23  O   UNK A   0      -0.341   9.275  20.693  0.00  0.00    +0.000 OA
BRANCH  23  24
ATOM     24  C   UNK A   0      -0.519  10.418  19.962  0.00  0.00    +0.000 A 
ATOM     25  C   UNK A   0      -1.294  10.261  18.811  0.00  0.00    +0.000 A 
ATOM     26  C   UNK A   0      -1.543  11.342  17.965  0.00  0.00    +0.000 A 
ATOM     27  C   UNK A   0      -1.005  12.594  18.259  0.00  0.00    +0.000 A 
ATOM     28  C   UNK A   0      -0.219  12.762  19.402  0.00  0.00    +0.000 A 
ATOM     29  C   UNK A   0       0.011  11.675  20.260  0.00  0.00    +0.000 A 
BRANCH  28  30
ATOM     30  C   UNK A   0       0.419  14.048  19.685  0.00  0.00    +0.000 C 
ATOM     31  C   UNK A   0       1.639  14.389  19.251  0.00  0.00    +0.000 C 
ATOM     32  S   UNK A   0       2.710  13.463  18.261  0.00  0.00    +0.000 S 
ATOM     33  C   UNK A   0       3.974  14.669  18.361  0.00  0.00    +0.000 C 
ATOM     34  O   UNK A   0       5.076  14.554  17.853  0.00  0.00    +0.000 OA
ATOM     35  N   UNK A   0       3.543  15.726  19.093  0.00  0.00    +0.000 N 
ATOM     36  C   UNK A   0       2.290  15.672  19.625  0.00  0.00    +0.000 C 
ATOM     37  O   UNK A   0       1.790  16.539  20.324  0.00  0.00    +0.000 OA
ATOM     38  H   UNK A   0       4.148  16.510  19.268  0.00  0.00    +0.000 HD
ENDBRANCH  28  30
ENDBRANCH  23  24
ENDBRANCH  22  23
ENDBRANCH   4  22
TORSDOF 12
ENDMDL
MODEL 7
REMARK VINA RESULT:      -7.6      1.847      3.410
REMARK  Name = 
REMARK  12 active torsions:
REMARK  status: ('A' for Active; 'I' for Inactive)
REMARK    1  A    between atoms: CD_2  and  OE2_3
REMARK    2  A    between atoms: CD_2  and  CG_4
REMARK    3  A    between atoms: CG_4  and  CB_5
REMARK    4  A    between atoms: CB_5  and  CA_6
REMARK    5  A    between atoms: CA_6  and  N_7
REMARK    6  A    between atoms: CA_6  and  C_32
REMARK    7  A    between atoms: C_8  and  C_10
REMARK    8  A    between atoms: C_13  and  C_14
REMARK    9  A    between atoms: C_14  and  O_15
REMARK   10  A    between atoms: O_15  and  C_16
REMARK   11  A    between atoms: C_20  and  C_21
REMARK   12  A    between atoms: C_32  and  OXT_34
REMARK                            x       y       z     vdW  Elec       q    Type
REMARK                         _______ _______ _______ _____ _____    ______ ____
ROOT
ATOM      1  C   UNK A   0       2.580   7.499  18.816  0.00  0.00    +0.000 A 
ATOM      2  C   UNK A   0       1.975   8.710  18.455  0.00  0.00    +0.000 A 
ATOM      3  C   UNK A   0       1.146   9.371  19.362  0.00  0.00    +0.000 A 
ATOM      4  C   UNK A   0       0.924   8.835  20.638  0.00  0.00    +0.000 A 
ATOM      5  C   UNK A   0       1.490   7.596  20.970  0.00  0.00    +0.000 A 
ATOM      6  C   UNK A   0       2.313   6.926  20.061  0.00  0.00    +0.000 A 
ENDROOT
BRANCH   1   8
ATOM      7  N   GLU A   1       3.823   5.507  18.247  0.00  0.00    +0.000 N 
ATOM      8  C   UNK A   0       3.501   6.800  17.887  0.00  0.00    +0.000 C 
ATOM      9  O   UNK A   0       3.945   7.350  16.890  0.00  0.00    +0.000 OA
ATOM     10  H   GLU A   1       3.131   5.050  18.851  0.00  0.00    +0.000 HD
BRANCH   7  11
ATOM     11  CA  GLU A   1       4.650   4.651  17.386  0.00  0.00    +0.000 C 
BRANCH  11  12
ATOM     12  C   GLU A   1       6.059   4.475  17.980  0.00  0.00    +0.000 C 
ATOM     13  O   GLU A   1       6.356   4.749  19.135  0.00  0.00    +0.000 OA
BRANCH  12  14
ATOM     14  OXT GLU A   1       6.986   4.102  17.067  0.00  0.00    +0.000 OA
ATOM     15  HXT GLU A   1       7.434   4.905  16.726  0.00  0.00    +0.000 HD
ENDBRANCH  12  14
ENDBRANCH  11  12
BRANCH  11  16
ATOM     16  CB  GLU A   1       4.013   3.267  17.134  0.00  0.00    +0.000 C 
BRANCH  16  17
ATOM     17  CG  GLU A   1       2.519   3.133  17.468  0.00  0.00    +0.000 C 
BRANCH  17  19
ATOM     18  OE1 GLU A   1       2.632   3.133  19.881  0.00  0.00    +0.000 OA
ATOM     19  CD  GLU A   1       2.271   2.583  18.852  0.00  0.00    +0.000 C 
BRANCH  19  20
ATOM     20  OE2 GLU A   1       1.662   1.383  18.860  0.00  0.00    +0.000 OA
ATOM     21  HE2 GLU A   1       1.944   0.781  19.577  0.00  0.00    +0.000 HD
ENDBRANCH  19  20
ENDBRANCH  17  19
ENDBRANCH  16  17
ENDBRANCH  11  16
ENDBRANCH   7  11
ENDBRANCH   1   8
BRANCH   4  22
ATOM     22  C   UNK A   0       0.072   9.581  21.635  0.00  0.00    +0.000 C 
BRANCH  22  23
ATOM     23  O   UNK A   0       0.415  10.962  21.587  0.00  0.00    +0.000 OA
BRANCH  23  24
ATOM     24  C   UNK A   0      -0.586  11.835  21.258  0.00  0.00    +0.000 A 
ATOM     25  C   UNK A   0      -0.507  13.078  21.888  0.00  0.00    +0.000 A 
ATOM     26  C   UNK A   0      -1.472  14.059  21.653  0.00  0.00    +0.000 A 
ATOM     27  C   UNK A   0      -2.535  13.797  20.791  0.00  0.00    +0.000 A 
ATOM     28  C   UNK A   0      -2.631  12.553  20.163  0.00  0.00    +0.000 A 
ATOM     29  C   UNK A   0      -1.647  11.578  20.387  0.00  0.00    +0.000 A 
BRANCH  28  30
ATOM     30  C   UNK A   0      -3.782  12.232  19.317  0.00  0.00    +0.000 C 
ATOM     31  C   UNK A   0      -3.683  11.704  18.090  0.00  0.00    +0.000 C 
ATOM     32  S   UNK A   0      -2.248  11.249  17.243  0.00  0.00    +0.000 S 
ATOM     33  C   UNK A   0      -3.141  10.808  15.804  0.00  0.00    +0.000 C 
ATOM     34  O   UNK A   0      -2.629  10.418  14.769  0.00  0.00    +0.000 OA
ATOM     35  N   UNK A   0      -4.470  10.978  16.018  0.00  0.00    +0.000 N 
ATOM     36  C   UNK A   0      -4.869  11.465  17.227  0.00  0.00    +0.000 C 
ATOM     37  O   UNK A   0      -6.027  11.691  17.540  0.00  0.00    +0.000 OA
ATOM     38  H   UNK A   0      -5.136  10.787  15.289  0.00  0.00    +0.000 HD
ENDBRANCH  28  30
ENDBRANCH  23  24
ENDBRANCH  22  23
ENDBRANCH   4  22
TORSDOF 12
ENDMDL
MODEL 8
REMARK VINA RESULT:      -7.6      3.186      4.294
REMARK  Name = 
REMARK  12 active torsions:
REMARK  status: ('A' for Active; 'I' for Inactive)
REMARK    1  A    between atoms: CD_2  and  OE2_3
REMARK    2  A    between atoms: CD_2  and  CG_4
REMARK    3  A    between atoms: CG_4  and  CB_5
REMARK    4  A    between atoms: CB_5  and  CA_6
REMARK    5  A    between atoms: CA_6  and  N_7
REMARK    6  A    between atoms: CA_6  and  C_32
REMARK    7  A    between atoms: C_8  and  C_10
REMARK    8  A    between atoms: C_13  and  C_14
REMARK    9  A    between atoms: C_14  and  O_15
REMARK   10  A    between atoms: O_15  and  C_16
REMARK   11  A    between atoms: C_20  and  C_21
REMARK   12  A    between atoms: C_32  and  OXT_34
REMARK                            x       y       z     vdW  Elec       q    Type
REMARK                         _______ _______ _______ _____ _____    ______ ____
ROOT
ATOM      1  C   UNK A   0       2.327   7.327  19.091  0.00  0.00    +0.000 A 
ATOM      2  C   UNK A   0       2.404   8.099  17.924  0.00  0.00    +0.000 A 
ATOM      3  C   UNK A   0       1.870   9.387  17.907  0.00  0.00    +0.000 A 
ATOM      4  C   UNK A   0       1.266   9.918  19.054  0.00  0.00    +0.000 A 
ATOM      5  C   UNK A   0       1.146   9.118  20.200  0.00  0.00    +0.000 A 
ATOM      6  C   UNK A   0       1.671   7.823  20.218  0.00  0.00    +0.000 A 
ENDROOT
BRANCH   1   8
ATOM      7  N   GLU A   1       3.342   5.465  17.934  0.00  0.00    +0.000 N 
ATOM      8  C   UNK A   0       2.929   5.971  19.149  0.00  0.00    +0.000 C 
ATOM      9  O   UNK A   0       3.027   5.358  20.202  0.00  0.00    +0.000 OA
ATOM     10  H   GLU A   1       3.553   6.177  17.226  0.00  0.00    +0.000 HD
BRANCH   7  11
ATOM     11  CA  GLU A   1       4.040   4.175  17.834  0.00  0.00    +0.000 C 
BRANCH  11  12
ATOM     12  C   GLU A   1       3.048   3.005  17.957  0.00  0.00    +0.000 C 
ATOM     13  O   GLU A   1       2.226   2.709  17.100  0.00  0.00    +0.000 OA
BRANCH  12  14
ATOM     14  OXT GLU A   1       3.079   2.397  19.165  0.00  0.00    +0.000 OA
ATOM     15  HXT GLU A   1       2.649   2.983  19.825  0.00  0.00    +0.000 HD
ENDBRANCH  12  14
ENDBRANCH  11  12
BRANCH  11  16
ATOM     16  CB  GLU A   1       4.852   4.037  16.529  0.00  0.00    +0.000 C 
BRANCH  16  17
ATOM     17  CG  GLU A   1       5.397   5.340  15.923  0.00  0.00    +0.000 C 
BRANCH  17  19
ATOM     18  OE1 GLU A   1       7.550   5.611  16.984  0.00  0.00    +0.000 OA
ATOM     19  CD  GLU A   1       6.904   5.424  15.964  0.00  0.00    +0.000 C 
BRANCH  19  20
ATOM     20  OE2 GLU A   1       7.487   5.336  14.754  0.00  0.00    +0.000 OA
ATOM     21  HE2 GLU A   1       7.422   6.142  14.205  0.00  0.00    +0.000 HD
ENDBRANCH  19  20
ENDBRANCH  17  19
ENDBRANCH  16  17
ENDBRANCH  11  16
ENDBRANCH   7  11
ENDBRANCH   1   8
BRANCH   4  22
ATOM     22  C   UNK A   0       0.739  11.332  19.048  0.00  0.00    +0.000 C 
BRANCH  22  23
ATOM     23  O   UNK A   0       1.507  12.110  19.961  0.00  0.00    +0.000 OA
BRANCH  23  24
ATOM     24  C   UNK A   0       0.810  12.838  20.888  0.00  0.00    +0.000 A 
ATOM     25  C   UNK A   0       1.342  14.100  21.159  0.00  0.00    +0.000 A 
ATOM     26  C   UNK A   0       0.739  14.942  22.094  0.00  0.00    +0.000 A 
ATOM     27  C   UNK A   0      -0.399  14.521  22.779  0.00  0.00    +0.000 A 
ATOM     28  C   UNK A   0      -0.934  13.256  22.524  0.00  0.00    +0.000 A 
ATOM     29  C   UNK A   0      -0.336  12.421  21.568  0.00  0.00    +0.000 A 
BRANCH  28  30
ATOM     30  C   UNK A   0      -2.081  12.764  23.290  0.00  0.00    +0.000 C 
ATOM     31  C   UNK A   0      -3.350  12.846  22.869  0.00  0.00    +0.000 C 
ATOM     32  S   UNK A   0      -3.934  13.483  21.373  0.00  0.00    +0.000 S 
ATOM     33  C   UNK A   0      -5.606  13.239  21.829  0.00  0.00    +0.000 C 
ATOM     34  O   UNK A   0      -6.560  13.557  21.141  0.00  0.00    +0.000 OA
ATOM     35  N   UNK A   0      -5.667  12.661  23.055  0.00  0.00    +0.000 N 
ATOM     36  C   UNK A   0      -4.498  12.409  23.707  0.00  0.00    +0.000 C 
ATOM     37  O   UNK A   0      -4.411  11.921  24.823  0.00  0.00    +0.000 OA
ATOM     38  H   UNK A   0      -6.555  12.461  23.484  0.00  0.00    +0.000 HD
ENDBRANCH  28  30
ENDBRANCH  23  24
ENDBRANCH  22  23
ENDBRANCH   4  22
TORSDOF 12
ENDMDL
MODEL 9
REMARK VINA RESULT:      -7.6      3.194      3.958
REMARK  Name = 
REMARK  12 active torsions:
REMARK  status: ('A' for Active; 'I' for Inactive)
REMARK    1  A    between atoms: CD_2  and  OE2_3
REMARK    2  A    between atoms: CD_2  and  CG_4
REMARK    3  A    between atoms: CG_4  and  CB_5
REMARK    4  A    between atoms: CB_5  and  CA_6
REMARK    5  A    between atoms: CA_6  and  N_7
REMARK    6  A    between atoms: CA_6  and  C_32
REMARK    7  A    between atoms: C_8  and  C_10
REMARK    8  A    between atoms: C_13  and  C_14
REMARK    9  A    between atoms: C_14  and  O_15
REMARK   10  A    between atoms: O_15  and  C_16
REMARK   11  A    between atoms: C_20  and  C_21
REMARK   12  A    between atoms: C_32  and  OXT_34
REMARK                            x       y       z     vdW  Elec       q    Type
REMARK                         _______ _______ _______ _____ _____    ______ ____
ROOT
ATOM      1  C   UNK A   0       3.170   5.424  19.019  0.00  0.00    +0.000 A 
ATOM      2  C   UNK A   0       2.511   4.949  20.160  0.00  0.00    +0.000 A 
ATOM      3  C   UNK A   0       1.664   5.794  20.877  0.00  0.00    +0.000 A 
ATOM      4  C   UNK A   0       1.460   7.115  20.454  0.00  0.00    +0.000 A 
ATOM      5  C   UNK A   0       2.167   7.596  19.343  0.00  0.00    +0.000 A 
ATOM      6  C   UNK A   0       3.023   6.755  18.628  0.00  0.00    +0.000 A 
ENDROOT
BRANCH   1   8
ATOM      7  N   GLU A   1       5.025   5.174  17.491  0.00  0.00    +0.000 N 
ATOM      8  C   UNK A   0       4.040   4.531  18.214  0.00  0.00    +0.000 C 
ATOM      9  O   UNK A   0       3.872   3.321  18.192  0.00  0.00    +0.000 OA
ATOM     10  H   GLU A   1       5.299   6.088  17.867  0.00  0.00    +0.000 HD
BRANCH   7  11
ATOM     11  CA  GLU A   1       6.024   4.426  16.716  0.00  0.00    +0.000 C 
BRANCH  11  12
ATOM     12  C   GLU A   1       5.959   4.805  15.227  0.00  0.00    +0.000 C 
ATOM     13  O   GLU A   1       6.171   4.024  14.308  0.00  0.00    +0.000 OA
BRANCH  12  14
ATOM     14  OXT GLU A   1       5.763   6.127  15.016  0.00  0.00    +0.000 OA
ATOM     15  HXT GLU A   1       6.266   6.632  15.690  0.00  0.00    +0.000 HD
ENDBRANCH  12  14
ENDBRANCH  11  12
BRANCH  11  16
ATOM     16  CB  GLU A   1       7.461   4.627  17.245  0.00  0.00    +0.000 C 
BRANCH  16  17
ATOM     17  CG  GLU A   1       7.616   5.551  18.463  0.00  0.00    +0.000 C 
BRANCH  17  19
ATOM     18  OE1 GLU A   1       7.381   7.503  17.061  0.00  0.00    +0.000 OA
ATOM     19  CD  GLU A   1       7.817   6.999  18.083  0.00  0.00    +0.000 C 
BRANCH  19  20
ATOM     20  OE2 GLU A   1       8.583   7.687  18.950  0.00  0.00    +0.000 OA
ATOM     21  HE2 GLU A   1       8.257   8.582  19.169  0.00  0.00    +0.000 HD
ENDBRANCH  19  20
ENDBRANCH  17  19
ENDBRANCH  16  17
ENDBRANCH  11  16
ENDBRANCH   7  11
ENDBRANCH   1   8
BRANCH   4  22
ATOM     22  C   UNK A   0       0.500   8.009  21.200  0.00  0.00    +0.000 C 
BRANCH  22  23
ATOM     23  O   UNK A   0       1.086   9.300  21.330  0.00  0.00    +0.000 OA
BRANCH  23  24
ATOM     24  C   UNK A   0       0.249  10.374  21.196  0.00  0.00    +0.000 A 
ATOM     25  C   UNK A   0      -0.126  10.661  19.882  0.00  0.00    +0.000 A 
ATOM     26  C   UNK A   0      -0.967  11.738  19.599  0.00  0.00    +0.000 A 
ATOM     27  C   UNK A   0      -1.431  12.549  20.633  0.00  0.00    +0.000 A 
ATOM     28  C   UNK A   0      -1.054  12.279  21.950  0.00  0.00    +0.000 A 
ATOM     29  C   UNK A   0      -0.225  11.182  22.231  0.00  0.00    +0.000 A 
BRANCH  28  30
ATOM     30  C   UNK A   0      -1.467  13.165  23.040  0.00  0.00    +0.000 C 
ATOM     31  C   UNK A   0      -2.742  13.363  23.400  0.00  0.00    +0.000 C 
ATOM     32  S   UNK A   0      -4.158  12.632  22.735  0.00  0.00    +0.000 S 
ATOM     33  C   UNK A   0      -5.222  13.576  23.754  0.00  0.00    +0.000 C 
ATOM     34  O   UNK A   0      -6.439  13.525  23.713  0.00  0.00    +0.000 OA
ATOM     35  N   UNK A   0      -4.487  14.369  24.574  0.00  0.00    +0.000 N 
ATOM     36  C   UNK A   0      -3.130  14.331  24.459  0.00  0.00    +0.000 C 
ATOM     37  O   UNK A   0      -2.354  15.011  25.113  0.00  0.00    +0.000 OA
ATOM     38  H   UNK A   0      -4.937  14.995  25.221  0.00  0.00    +0.000 HD
ENDBRANCH  28  30
ENDBRANCH  23  24
ENDBRANCH  22  23
ENDBRANCH   4  22
TORSDOF 12
ENDMDL
