MODEL 1
REMARK VINA RESULT:      -7.5      0.000      0.000
REMARK  Name = 
REMARK  3 active torsions:
REMARK  status: ('A' for Active; 'I' for Inactive)
REMARK    1  A    between atoms: C_2  and  OXT_3
REMARK    2  A    between atoms: C_2  and  CA_4
REMARK    3  A    between atoms: C_8  and  C_9
REMARK                            x       y       z     vdW  Elec       q    Type
REMARK                         _______ _______ _______ _____ _____    ______ ____
ROOT
ATOM      1  CA  UNL     1       7.182   4.970  14.048  0.00  0.00    +0.000 A 
ATOM      2  C   UNL     1       6.066   4.137  14.138  0.00  0.00    +0.000 A 
ATOM      3  C   UNL     1       5.673   4.238  15.482  0.00  0.00    +0.000 A 
ATOM      4  O   UNL     1       4.698   3.741  16.284  0.00  0.00    +0.000 OA
ATOM      5  C   UNL     1       4.935   4.299  17.516  0.00  0.00    +0.000 A 
ATOM      6  C   UNL     1       6.043   5.130  17.501  0.00  0.00    +0.000 A 
ATOM      7  C   UNL     1       6.490   5.053  16.171  0.00  0.00    +0.000 A 
ATOM      8  N   UNL     1       7.454   5.491  15.307  0.00  0.00    +0.000 N 
ATOM      9  H   UNL     1       8.215   6.114  15.553  0.00  0.00    +0.000 HD
ENDROOT
BRANCH   5  10
ATOM     10  C   UNL     1       4.004   3.909  18.579  0.00  0.00    +0.000 A 
ATOM     11  C   UNL     1       3.886   2.577  19.003  0.00  0.00    +0.000 A 
ATOM     12  C   UNL     1       3.013   2.229  20.044  0.00  0.00    +0.000 A 
ATOM     13  C   UNL     1       2.246   3.209  20.674  0.00  0.00    +0.000 A 
ATOM     14 CL   UNL     1       1.212   2.719  21.966  0.00  0.00    +0.000 Cl
ATOM     15  C   UNL     1       2.338   4.538  20.249  0.00  0.00    +0.000 A 
ATOM     16 CL   UNL     1       1.413   5.810  20.967  0.00  0.00    +0.000 Cl
ATOM     17  C   UNL     1       3.211   4.876  19.207  0.00  0.00    +0.000 A 
ENDBRANCH   5  10
BRANCH   1  19
ATOM     18  O   UNL     1       8.986   6.028  12.943  0.00  0.00    +0.000 OA
ATOM     19  C   UNL     1       8.017   5.285  12.913  0.00  0.00    +0.000 C 
BRANCH  19  20
ATOM     20  OXT UNL     1       7.561   4.714  11.776  0.00  0.00    +0.000 OA
ATOM     21  HXT UNL     1       7.953   3.837  11.614  0.00  0.00    +0.000 HD
ENDBRANCH  19  20
ENDBRANCH   1  19
TORSDOF 3
ENDMDL
MODEL 2
REMARK VINA RESULT:      -7.2      6.736      8.648
REMARK  Name = 
REMARK  3 active torsions:
REMARK  status: ('A' for Active; 'I' for Inactive)
REMARK    1  A    between atoms: C_2  and  OXT_3
REMARK    2  A    between atoms: C_2  and  CA_4
REMARK    3  A    between atoms: C_8  and  C_9
REMARK                            x       y       z     vdW  Elec       q    Type
REMARK                         _______ _______ _______ _____ _____    ______ ____
ROOT
ATOM      1  CA  UNL     1       6.836   5.624  17.736  0.00  0.00    +0.000 A 
ATOM      2  C   UNL     1       7.792   5.905  18.713  0.00  0.00    +0.000 A 
ATOM      3  C   UNL     1       8.073   7.268  18.531  0.00  0.00    +0.000 A 
ATOM      4  O   UNL     1       8.865   8.214  19.096  0.00  0.00    +0.000 OA
ATOM      5  C   UNL     1       8.604   9.361  18.388  0.00  0.00    +0.000 A 
ATOM      6  C   UNL     1       7.669   9.149  17.388  0.00  0.00    +0.000 A 
ATOM      7  C   UNL     1       7.362   7.783  17.514  0.00  0.00    +0.000 A 
ATOM      8  N   UNL     1       6.613   6.771  16.985  0.00  0.00    +0.000 N 
ATOM      9  H   UNL     1       5.984   6.864  16.195  0.00  0.00    +0.000 HD
ENDROOT
BRANCH   5  10
ATOM     10  C   UNL     1       9.352  10.550  18.807  0.00  0.00    +0.000 A 
ATOM     11  C   UNL     1       9.547  10.858  20.163  0.00  0.00    +0.000 A 
ATOM     12  C   UNL     1      10.294  11.982  20.543  0.00  0.00    +0.000 A 
ATOM     13  C   UNL     1      10.855  12.813  19.573  0.00  0.00    +0.000 A 
ATOM     14 CL   UNL     1      11.786  14.166  20.108  0.00  0.00    +0.000 Cl
ATOM     15  C   UNL     1      10.653  12.530  18.219  0.00  0.00    +0.000 A 
ATOM     16 CL   UNL     1      11.302  13.517  16.956  0.00  0.00    +0.000 Cl
ATOM     17  C   UNL     1       9.903  11.407  17.848  0.00  0.00    +0.000 A 
ENDBRANCH   5  10
BRANCH   1  19
ATOM     18  O   UNL     1       5.790   4.046  16.318  0.00  0.00    +0.000 OA
ATOM     19  C   UNL     1       6.153   4.388  17.432  0.00  0.00    +0.000 C 
BRANCH  19  20
ATOM     20  OXT UNL     1       5.891   3.668  18.546  0.00  0.00    +0.000 OA
ATOM     21  HXT UNL     1       6.043   4.176  19.364  0.00  0.00    +0.000 HD
ENDBRANCH  19  20
ENDBRANCH   1  19
TORSDOF 3
ENDMDL
MODEL 3
REMARK VINA RESULT:      -7.1      5.756      8.361
REMARK  Name = 
REMARK  3 active torsions:
REMARK  status: ('A' for Active; 'I' for Inactive)
REMARK    1  A    between atoms: C_2  and  OXT_3
REMARK    2  A    between atoms: C_2  and  CA_4
REMARK    3  A    between atoms: C_8  and  C_9
REMARK                            x       y       z     vdW  Elec       q    Type
REMARK                         _______ _______ _______ _____ _____    ______ ____
ROOT
ATOM      1  CA  UNL     1       0.376   9.817  21.348  0.00  0.00    +0.000 A 
ATOM      2  C   UNL     1       1.024   8.615  21.635  0.00  0.00    +0.000 A 
ATOM      3  C   UNL     1       1.594   8.234  20.410  0.00  0.00    +0.000 A 
ATOM      4  O   UNL     1       2.355   7.220  19.928  0.00  0.00    +0.000 OA
ATOM      5  C   UNL     1       2.546   7.521  18.602  0.00  0.00    +0.000 A 
ATOM      6  C   UNL     1       1.914   8.701  18.244  0.00  0.00    +0.000 A 
ATOM      7  C   UNL     1       1.308   9.121  19.441  0.00  0.00    +0.000 A 
ATOM      8  N   UNL     1       0.524  10.093  19.995  0.00  0.00    +0.000 N 
ATOM      9  H   UNL     1       0.145  10.890  19.494  0.00  0.00    +0.000 HD
ENDROOT
BRANCH   5  10
ATOM     10  C   UNL     1       3.348   6.558  17.841  0.00  0.00    +0.000 A 
ATOM     11  C   UNL     1       4.370   6.972  16.973  0.00  0.00    +0.000 A 
ATOM     12  C   UNL     1       5.146   6.033  16.280  0.00  0.00    +0.000 A 
ATOM     13  C   UNL     1       4.911   4.668  16.445  0.00  0.00    +0.000 A 
ATOM     14 CL   UNL     1       5.921   3.564  15.583  0.00  0.00    +0.000 Cl
ATOM     15  C   UNL     1       3.884   4.241  17.291  0.00  0.00    +0.000 A 
ATOM     16 CL   UNL     1       3.519   2.569  17.540  0.00  0.00    +0.000 Cl
ATOM     17  C   UNL     1       3.111   5.186  17.978  0.00  0.00    +0.000 A 
ENDBRANCH   5  10
BRANCH   1  19
ATOM     18  O   UNL     1      -1.011  11.670  21.836  0.00  0.00    +0.000 OA
ATOM     19  C   UNL     1      -0.382  10.693  22.210  0.00  0.00    +0.000 C 
BRANCH  19  20
ATOM     20  OXT UNL     1      -0.260  10.349  23.513  0.00  0.00    +0.000 OA
ATOM     21  HXT UNL     1      -1.026   9.842  23.839  0.00  0.00    +0.000 HD
ENDBRANCH  19  20
ENDBRANCH   1  19
TORSDOF 3
ENDMDL
MODEL 4
REMARK VINA RESULT:      -7.1      1.075      1.466
REMARK  Name = 
REMARK  3 active torsions:
REMARK  status: ('A' for Active; 'I' for Inactive)
REMARK    1  A    between atoms: C_2  and  OXT_3
REMARK    2  A    between atoms: C_2  and  CA_4
REMARK    3  A    between atoms: C_8  and  C_9
REMARK                            x       y       z     vdW  Elec       q    Type
REMARK                         _______ _______ _______ _____ _____    ______ ____
ROOT
ATOM      1  CA  UNL     1       7.112   4.914  13.945  0.00  0.00    +0.000 A 
ATOM      2  C   UNL     1       5.920   4.191  14.010  0.00  0.00    +0.000 A 
ATOM      3  C   UNL     1       5.616   4.156  15.379  0.00  0.00    +0.000 A 
ATOM      4  O   UNL     1       4.640   3.659  16.180  0.00  0.00    +0.000 OA
ATOM      5  C   UNL     1       5.004   4.028  17.451  0.00  0.00    +0.000 A 
ATOM      6  C   UNL     1       6.191   4.740  17.462  0.00  0.00    +0.000 A 
ATOM      7  C   UNL     1       6.553   4.791  16.104  0.00  0.00    +0.000 A 
ATOM      8  N   UNL     1       7.507   5.240  15.236  0.00  0.00    +0.000 N 
ATOM      9  H   UNL     1       8.344   5.747  15.503  0.00  0.00    +0.000 HD
ENDROOT
BRANCH   5  10
ATOM     10  C   UNL     1       4.098   3.598  18.520  0.00  0.00    +0.000 A 
ATOM     11  C   UNL     1       4.508   3.555  19.862  0.00  0.00    +0.000 A 
ATOM     12  C   UNL     1       3.616   3.172  20.873  0.00  0.00    +0.000 A 
ATOM     13  C   UNL     1       2.302   2.827  20.557  0.00  0.00    +0.000 A 
ATOM     14 CL   UNL     1       1.247   2.390  21.852  0.00  0.00    +0.000 Cl
ATOM     15  C   UNL     1       1.884   2.846  19.223  0.00  0.00    +0.000 A 
ATOM     16 CL   UNL     1       0.278   2.420  18.746  0.00  0.00    +0.000 Cl
ATOM     17  C   UNL     1       2.782   3.228  18.218  0.00  0.00    +0.000 A 
ENDBRANCH   5  10
BRANCH   1  19
ATOM     18  O   UNL     1       7.678   4.963  11.649  0.00  0.00    +0.000 OA
ATOM     19  C   UNL     1       7.911   5.288  12.802  0.00  0.00    +0.000 C 
BRANCH  19  20
ATOM     20  OXT UNL     1       9.007   5.994  13.162  0.00  0.00    +0.000 OA
ATOM     21  HXT UNL     1       9.274   5.826  14.084  0.00  0.00    +0.000 HD
ENDBRANCH  19  20
ENDBRANCH   1  19
TORSDOF 3
ENDMDL
MODEL 5
REMARK VINA RESULT:      -6.9      3.910      5.195
REMARK  Name = 
REMARK  3 active torsions:
REMARK  status: ('A' for Active; 'I' for Inactive)
REMARK    1  A    between atoms: C_2  and  OXT_3
REMARK    2  A    between atoms: C_2  and  CA_4
REMARK    3  A    between atoms: C_8  and  C_9
REMARK                            x       y       z     vdW  Elec       q    Type
REMARK                         _______ _______ _______ _____ _____    ______ ____
ROOT
ATOM      1  CA  UNL     1       5.600   5.211  16.454  0.00  0.00    +0.000 A 
ATOM      2  C   UNL     1       5.536   6.604  16.478  0.00  0.00    +0.000 A 
ATOM      3  C   UNL     1       4.373   6.878  17.215  0.00  0.00    +0.000 A 
ATOM      4  O   UNL     1       3.692   7.969  17.649  0.00  0.00    +0.000 OA
ATOM      5  C   UNL     1       2.621   7.463  18.344  0.00  0.00    +0.000 A 
ATOM      6  C   UNL     1       2.616   6.078  18.347  0.00  0.00    +0.000 A 
ATOM      7  C   UNL     1       3.760   5.746  17.601  0.00  0.00    +0.000 A 
ATOM      8  N   UNL     1       4.488   4.699  17.109  0.00  0.00    +0.000 N 
ATOM      9  H   UNL     1       4.255   3.720  17.235  0.00  0.00    +0.000 HD
ENDROOT
BRANCH   5  10
ATOM     10  C   UNL     1       1.711   8.458  18.919  0.00  0.00    +0.000 A 
ATOM     11  C   UNL     1       1.098   9.441  18.127  0.00  0.00    +0.000 A 
ATOM     12  C   UNL     1       0.205  10.363  18.691  0.00  0.00    +0.000 A 
ATOM     13  C   UNL     1      -0.086  10.315  20.054  0.00  0.00    +0.000 A 
ATOM     14 CL   UNL     1      -1.214  11.462  20.681  0.00  0.00    +0.000 Cl
ATOM     15  C   UNL     1       0.533   9.354  20.860  0.00  0.00    +0.000 A 
ATOM     16 CL   UNL     1       0.237   9.236  22.559  0.00  0.00    +0.000 Cl
ATOM     17  C   UNL     1       1.425   8.438  20.288  0.00  0.00    +0.000 A 
ENDBRANCH   5  10
BRANCH   1  19
ATOM     18  O   UNL     1       6.356   3.565  14.931  0.00  0.00    +0.000 OA
ATOM     19  C   UNL     1       6.579   4.336  15.852  0.00  0.00    +0.000 C 
BRANCH  19  20
ATOM     20  OXT UNL     1       7.776   4.411  16.476  0.00  0.00    +0.000 OA
ATOM     21  HXT UNL     1       8.516   4.529  15.853  0.00  0.00    +0.000 HD
ENDBRANCH  19  20
ENDBRANCH   1  19
TORSDOF 3
ENDMDL
MODEL 6
REMARK VINA RESULT:      -6.8      5.049      6.843
REMARK  Name = 
REMARK  3 active torsions:
REMARK  status: ('A' for Active; 'I' for Inactive)
REMARK    1  A    between atoms: C_2  and  OXT_3
REMARK    2  A    between atoms: C_2  and  CA_4
REMARK    3  A    between atoms: C_8  and  C_9
REMARK                            x       y       z     vdW  Elec       q    Type
REMARK                         _______ _______ _______ _____ _____    ______ ____
ROOT
ATOM      1  CA  UNL     1       3.713   3.259  19.837  0.00  0.00    +0.000 A 
ATOM      2  C   UNL     1       2.673   3.674  20.670  0.00  0.00    +0.000 A 
ATOM      3  C   UNL     1       2.495   5.028  20.345  0.00  0.00    +0.000 A 
ATOM      4  O   UNL     1       1.689   6.053  20.718  0.00  0.00    +0.000 OA
ATOM      5  C   UNL     1       2.088   7.115  19.945  0.00  0.00    +0.000 A 
ATOM      6  C   UNL     1       3.132   6.776  19.100  0.00  0.00    +0.000 A 
ATOM      7  C   UNL     1       3.365   5.422  19.399  0.00  0.00    +0.000 A 
ATOM      8  N   UNL     1       4.152   4.348  19.095  0.00  0.00    +0.000 N 
ATOM      9  H   UNL     1       4.908   4.354  18.418  0.00  0.00    +0.000 HD
ENDROOT
BRANCH   5  10
ATOM     10  C   UNL     1       1.362   8.369  20.166  0.00  0.00    +0.000 A 
ATOM     11  C   UNL     1       1.230   9.333  19.155  0.00  0.00    +0.000 A 
ATOM     12  C   UNL     1       0.504  10.512  19.377  0.00  0.00    +0.000 A 
ATOM     13  C   UNL     1      -0.101  10.742  20.613  0.00  0.00    +0.000 A 
ATOM     14 CL   UNL     1      -1.004  12.200  20.812  0.00  0.00    +0.000 Cl
ATOM     15  C   UNL     1       0.038   9.800  21.636  0.00  0.00    +0.000 A 
ATOM     16 CL   UNL     1      -0.668  10.015  23.200  0.00  0.00    +0.000 Cl
ATOM     17  C   UNL     1       0.768   8.626  21.407  0.00  0.00    +0.000 A 
ENDBRANCH   5  10
BRANCH   1  19
ATOM     18  O   UNL     1       5.182   1.514  20.463  0.00  0.00    +0.000 OA
ATOM     19  C   UNL     1       4.338   1.964  19.705  0.00  0.00    +0.000 C 
BRANCH  19  20
ATOM     20  OXT UNL     1       3.931   1.319  18.588  0.00  0.00    +0.000 OA
ATOM     21  HXT UNL     1       4.671   0.911  18.101  0.00  0.00    +0.000 HD
ENDBRANCH  19  20
ENDBRANCH   1  19
TORSDOF 3
ENDMDL
MODEL 7
REMARK VINA RESULT:      -6.8      6.537      8.490
REMARK  Name = 
REMARK  3 active torsions:
REMARK  status: ('A' for Active; 'I' for Inactive)
REMARK    1  A    between atoms: C_2  and  OXT_3
REMARK    2  A    between atoms: C_2  and  CA_4
REMARK    3  A    between atoms: C_8  and  C_9
REMARK                            x       y       z     vdW  Elec       q    Type
REMARK                         _______ _______ _______ _____ _____    ______ ____
ROOT
ATOM      1  CA  UNL     1       6.891   5.653  17.742  0.00  0.00    +0.000 A 
ATOM      2  C   UNL     1       7.829   5.949  18.731  0.00  0.00    +0.000 A 
ATOM      3  C   UNL     1       8.105   7.312  18.542  0.00  0.00    +0.000 A 
ATOM      4  O   UNL     1       8.881   8.269  19.110  0.00  0.00    +0.000 OA
ATOM      5  C   UNL     1       8.623   9.408  18.388  0.00  0.00    +0.000 A 
ATOM      6  C   UNL     1       7.705   9.181  17.376  0.00  0.00    +0.000 A 
ATOM      7  C   UNL     1       7.405   7.814  17.510  0.00  0.00    +0.000 A 
ATOM      8  N   UNL     1       6.671   6.792  16.978  0.00  0.00    +0.000 N 
ATOM      9  H   UNL     1       6.053   6.874  16.178  0.00  0.00    +0.000 HD
ENDROOT
BRANCH   5  10
ATOM     10  C   UNL     1       9.356  10.606  18.808  0.00  0.00    +0.000 A 
ATOM     11  C   UNL     1      10.207  11.295  17.930  0.00  0.00    +0.000 A 
ATOM     12  C   UNL     1      10.875  12.457  18.343  0.00  0.00    +0.000 A 
ATOM     13  C   UNL     1      10.701  12.945  19.638  0.00  0.00    +0.000 A 
ATOM     14 CL   UNL     1      11.531  14.395  20.073  0.00  0.00    +0.000 Cl
ATOM     15  C   UNL     1       9.872  12.258  20.530  0.00  0.00    +0.000 A 
ATOM     16 CL   UNL     1       9.614  12.788  22.155  0.00  0.00    +0.000 Cl
ATOM     17  C   UNL     1       9.211  11.097  20.111  0.00  0.00    +0.000 A 
ENDBRANCH   5  10
BRANCH   1  19
ATOM     18  O   UNL     1       5.914   4.036  16.318  0.00  0.00    +0.000 OA
ATOM     19  C   UNL     1       6.221   4.410  17.439  0.00  0.00    +0.000 C 
BRANCH  19  20
ATOM     20  OXT UNL     1       5.900   3.722  18.558  0.00  0.00    +0.000 OA
ATOM     21  HXT UNL     1       5.685   4.307  19.308  0.00  0.00    +0.000 HD
ENDBRANCH  19  20
ENDBRANCH   1  19
TORSDOF 3
ENDMDL
MODEL 8
REMARK VINA RESULT:      -6.8      5.731      7.537
REMARK  Name = 
REMARK  3 active torsions:
REMARK  status: ('A' for Active; 'I' for Inactive)
REMARK    1  A    between atoms: C_2  and  OXT_3
REMARK    2  A    between atoms: C_2  and  CA_4
REMARK    3  A    between atoms: C_8  and  C_9
REMARK                            x       y       z     vdW  Elec       q    Type
REMARK                         _______ _______ _______ _____ _____    ______ ____
ROOT
ATOM      1  CA  UNL     1       0.371  11.327  19.114  0.00  0.00    +0.000 A 
ATOM      2  C   UNL     1       0.479  10.465  20.206  0.00  0.00    +0.000 A 
ATOM      3  C   UNL     1       1.130   9.336  19.685  0.00  0.00    +0.000 A 
ATOM      4  O   UNL     1       1.573   8.135  20.135  0.00  0.00    +0.000 OA
ATOM      5  C   UNL     1       2.139   7.534  19.038  0.00  0.00    +0.000 A 
ATOM      6  C   UNL     1       2.053   8.333  17.910  0.00  0.00    +0.000 A 
ATOM      7  C   UNL     1       1.388   9.481  18.374  0.00  0.00    +0.000 A 
ATOM      8  N   UNL     1       0.894  10.696  17.993  0.00  0.00    +0.000 N 
ATOM      9  H   UNL     1       0.936  11.071  17.051  0.00  0.00    +0.000 HD
ENDROOT
BRANCH   5  10
ATOM     10  C   UNL     1       2.697   6.197  19.265  0.00  0.00    +0.000 A 
ATOM     11  C   UNL     1       3.836   5.748  18.578  0.00  0.00    +0.000 A 
ATOM     12  C   UNL     1       4.373   4.478  18.834  0.00  0.00    +0.000 A 
ATOM     13  C   UNL     1       3.778   3.640  19.777  0.00  0.00    +0.000 A 
ATOM     14 CL   UNL     1       4.504   2.101  20.063  0.00  0.00    +0.000 Cl
ATOM     15  C   UNL     1       2.631   4.067  20.454  0.00  0.00    +0.000 A 
ATOM     16 CL   UNL     1       1.826   3.085  21.628  0.00  0.00    +0.000 Cl
ATOM     17  C   UNL     1       2.100   5.336  20.192  0.00  0.00    +0.000 A 
ENDBRANCH   5  10
BRANCH   1  19
ATOM     18  O   UNL     1      -0.530  13.334  19.984  0.00  0.00    +0.000 OA
ATOM     19  C   UNL     1      -0.200  12.651  19.027  0.00  0.00    +0.000 C 
BRANCH  19  20
ATOM     20  OXT UNL     1      -0.399  13.032  17.745  0.00  0.00    +0.000 OA
ATOM     21  HXT UNL     1       0.178  13.771  17.481  0.00  0.00    +0.000 HD
ENDBRANCH  19  20
ENDBRANCH   1  19
TORSDOF 3
ENDMDL
MODEL 9
REMARK VINA RESULT:      -6.8      3.778      4.926
REMARK  Name = 
REMARK  3 active torsions:
REMARK  status: ('A' for Active; 'I' for Inactive)
REMARK    1  A    between atoms: C_2  and  OXT_3
REMARK    2  A    between atoms: C_2  and  CA_4
REMARK    3  A    between atoms: C_8  and  C_9
REMARK                            x       y       z     vdW  Elec       q    Type
REMARK                         _______ _______ _______ _____ _____    ______ ____
ROOT
ATOM      1  CA  UNL     1       5.548   5.190  16.355  0.00  0.00    +0.000 A 
ATOM      2  C   UNL     1       5.224   6.545  16.276  0.00  0.00    +0.000 A 
ATOM      3  C   UNL     1       4.257   6.723  17.277  0.00  0.00    +0.000 A 
ATOM      4  O   UNL     1       3.512   7.737  17.786  0.00  0.00    +0.000 OA
ATOM      5  C   UNL     1       2.770   7.162  18.788  0.00  0.00    +0.000 A 
ATOM      6  C   UNL     1       3.033   5.808  18.912  0.00  0.00    +0.000 A 
ATOM      7  C   UNL     1       3.992   5.569  17.913  0.00  0.00    +0.000 A 
ATOM      8  N   UNL     1       4.758   4.598  17.333  0.00  0.00    +0.000 N 
ATOM      9  H   UNL     1       4.758   3.620  17.601  0.00  0.00    +0.000 HD
ENDROOT
BRANCH   5  10
ATOM     10  C   UNL     1       1.862   8.064  19.502  0.00  0.00    +0.000 A 
ATOM     11  C   UNL     1       1.493   7.833  20.836  0.00  0.00    +0.000 A 
ATOM     12  C   UNL     1       0.648   8.726  21.512  0.00  0.00    +0.000 A 
ATOM     13  C   UNL     1       0.163   9.861  20.863  0.00  0.00    +0.000 A 
ATOM     14 CL   UNL     1      -0.850  10.934  21.760  0.00  0.00    +0.000 Cl
ATOM     15  C   UNL     1       0.507  10.094  19.528  0.00  0.00    +0.000 A 
ATOM     16 CL   UNL     1      -0.063  11.469  18.648  0.00  0.00    +0.000 Cl
ATOM     17  C   UNL     1       1.349   9.196  18.859  0.00  0.00    +0.000 A 
ENDBRANCH   5  10
BRANCH   1  19
ATOM     18  O   UNL     1       7.462   4.869  15.003  0.00  0.00    +0.000 OA
ATOM     19  C   UNL     1       6.491   4.413  15.586  0.00  0.00    +0.000 C 
BRANCH  19  20
ATOM     20  OXT UNL     1       6.137   3.109  15.520  0.00  0.00    +0.000 OA
ATOM     21  HXT UNL     1       6.826   2.555  15.110  0.00  0.00    +0.000 HD
ENDBRANCH  19  20
ENDBRANCH   1  19
TORSDOF 3
ENDMDL
