MODEL 1
REMARK VINA RESULT:      -7.5      0.000      0.000
REMARK  Name = 
REMARK  4 active torsions:
REMARK  status: ('A' for Active; 'I' for Inactive)
REMARK    1  A    between atoms: C_1  and  C_2
REMARK    2  A    between atoms: C_2  and  C_3
REMARK    3  A    between atoms: C_5  and  N_6
REMARK    4  A    between atoms: C_16  and  C_17
REMARK                            x       y       z     vdW  Elec       q    Type
REMARK                         _______ _______ _______ _____ _____    ______ ____
ROOT
ATOM      1  C   UNL     1       4.796   4.314  15.734  0.00  0.00    +0.000 C 
ATOM      2  C   UNL     1       4.653   4.616  17.261  0.00  0.00    +0.000 C 
ATOM      3  N   UNL     1       4.809   3.247  17.838  0.00  0.00    +0.000 NA
ATOM      4  C   UNL     1       3.860   2.680  18.486  0.00  0.00    +0.000 C 
ATOM      5  N   UNL     1       4.079   1.422  18.967  0.00  0.00    +0.000 N 
ATOM      6  C   UNL     1       2.545   3.382  18.767  0.00  0.00    +0.000 C 
ATOM      7  O   UNL     1       2.197   4.213  17.674  0.00  0.00    +0.000 OA
ATOM      8  C   UNL     1       3.207   5.239  17.431  0.00  0.00    +0.000 C 
ATOM      9  H   UNL     1       5.051   1.116  18.931  0.00  0.00    +0.000 HD
ATOM     10  H   UNL     1       3.555   1.088  19.766  0.00  0.00    +0.000 HD
ENDROOT
BRANCH   2  11
ATOM     11  C   UNL     1       5.844   5.460  17.746  0.00  0.00    +0.000 A 
ATOM     12  C   UNL     1       6.576   5.071  18.892  0.00  0.00    +0.000 A 
ATOM     13  C   UNL     1       7.688   5.787  19.362  0.00  0.00    +0.000 A 
ATOM     14  C   UNL     1       8.139   6.876  18.621  0.00  0.00    +0.000 A 
ATOM     15  C   UNL     1       7.429   7.307  17.503  0.00  0.00    +0.000 A 
ATOM     16  C   UNL     1       6.288   6.613  17.086  0.00  0.00    +0.000 A 
ATOM     17  F   UNL     1       5.614   7.100  16.037  0.00  0.00    +0.000 F 
BRANCH  13  18
ATOM     18  N   UNL     1       8.466   5.271  20.404  0.00  0.00    +0.000 N 
ATOM     19  H   UNL     1       7.991   4.575  20.965  0.00  0.00    +0.000 HD
ATOM     20  H   UNL     1       8.916   5.983  20.975  0.00  0.00    +0.000 HD
ENDBRANCH  13  18
ENDBRANCH   2  11
BRANCH   8  21
ATOM     21  C   UNL     1       2.980   6.475  18.326  0.00  0.00    +0.000 C 
ATOM     22  F   UNL     1       3.382   7.649  17.812  0.00  0.00    +0.000 F 
ATOM     23  F   UNL     1       1.649   6.607  18.585  0.00  0.00    +0.000 F 
ATOM     24  F   UNL     1       3.581   6.353  19.536  0.00  0.00    +0.000 F 
ENDBRANCH   8  21
TORSDOF 3
ENDMDL
MODEL 2
REMARK VINA RESULT:      -7.4      2.054      4.932
REMARK  Name = 
REMARK  4 active torsions:
REMARK  status: ('A' for Active; 'I' for Inactive)
REMARK    1  A    between atoms: C_1  and  C_2
REMARK    2  A    between atoms: C_2  and  C_3
REMARK    3  A    between atoms: C_5  and  N_6
REMARK    4  A    between atoms: C_16  and  C_17
REMARK                            x       y       z     vdW  Elec       q    Type
REMARK                         _______ _______ _______ _____ _____    ______ ____
ROOT
ATOM      1  C   UNL     1       3.985   6.914  18.077  0.00  0.00    +0.000 C 
ATOM      2  C   UNL     1       4.758   5.583  17.805  0.00  0.00    +0.000 C 
ATOM      3  N   UNL     1       5.655   5.526  18.998  0.00  0.00    +0.000 NA
ATOM      4  C   UNL     1       6.931   5.574  18.882  0.00  0.00    +0.000 C 
ATOM      5  N   UNL     1       7.677   5.532  20.023  0.00  0.00    +0.000 N 
ATOM      6  C   UNL     1       7.614   5.626  17.529  0.00  0.00    +0.000 C 
ATOM      7  O   UNL     1       6.837   6.388  16.622  0.00  0.00    +0.000 OA
ATOM      8  C   UNL     1       5.510   5.810  16.429  0.00  0.00    +0.000 C 
ATOM      9  H   UNL     1       7.158   5.273  20.861  0.00  0.00    +0.000 HD
ATOM     10  H   UNL     1       8.631   5.196  19.991  0.00  0.00    +0.000 HD
ENDROOT
BRANCH   2  11
ATOM     11  C   UNL     1       3.797   4.387  17.891  0.00  0.00    +0.000 A 
ATOM     12  C   UNL     1       4.299   3.080  18.092  0.00  0.00    +0.000 A 
ATOM     13  C   UNL     1       3.467   1.955  18.208  0.00  0.00    +0.000 A 
ATOM     14  C   UNL     1       2.087   2.146  18.209  0.00  0.00    +0.000 A 
ATOM     15  C   UNL     1       1.555   3.414  17.985  0.00  0.00    +0.000 A 
ATOM     16  C   UNL     1       2.404   4.512  17.813  0.00  0.00    +0.000 A 
ATOM     17  F   UNL     1       1.841   5.697  17.550  0.00  0.00    +0.000 F 
BRANCH  13  18
ATOM     18  N   UNL     1       4.007   0.714  18.562  0.00  0.00    +0.000 N 
ATOM     19  H   UNL     1       4.273   0.142  17.769  0.00  0.00    +0.000 HD
ATOM     20  H   UNL     1       3.450   0.198  19.238  0.00  0.00    +0.000 HD
ENDBRANCH  13  18
ENDBRANCH   2  11
BRANCH   8  21
ATOM     21  C   UNL     1       5.528   4.709  15.348  0.00  0.00    +0.000 C 
ATOM     22  F   UNL     1       4.324   4.271  14.943  0.00  0.00    +0.000 F 
ATOM     23  F   UNL     1       6.158   5.179  14.235  0.00  0.00    +0.000 F 
ATOM     24  F   UNL     1       6.230   3.616  15.737  0.00  0.00    +0.000 F 
ENDBRANCH   8  21
TORSDOF 3
ENDMDL
MODEL 3
REMARK VINA RESULT:      -7.3      1.681      2.068
REMARK  Name = 
REMARK  4 active torsions:
REMARK  status: ('A' for Active; 'I' for Inactive)
REMARK    1  A    between atoms: C_1  and  C_2
REMARK    2  A    between atoms: C_2  and  C_3
REMARK    3  A    between atoms: C_5  and  N_6
REMARK    4  A    between atoms: C_16  and  C_17
REMARK                            x       y       z     vdW  Elec       q    Type
REMARK                         _______ _______ _______ _____ _____    ______ ____
ROOT
ATOM      1  C   UNL     1       2.968   2.805  17.427  0.00  0.00    +0.000 C 
ATOM      2  C   UNL     1       3.406   3.939  18.410  0.00  0.00    +0.000 C 
ATOM      3  N   UNL     1       3.391   3.209  19.713  0.00  0.00    +0.000 NA
ATOM      4  C   UNL     1       2.592   3.540  20.658  0.00  0.00    +0.000 C 
ATOM      5  N   UNL     1       2.631   2.811  21.811  0.00  0.00    +0.000 N 
ATOM      6  C   UNL     1       1.658   4.729  20.543  0.00  0.00    +0.000 C 
ATOM      7  O   UNL     1       1.196   4.856  19.210  0.00  0.00    +0.000 OA
ATOM      8  C   UNL     1       2.297   5.062  18.273  0.00  0.00    +0.000 C 
ATOM      9  H   UNL     1       3.430   2.183  21.890  0.00  0.00    +0.000 HD
ATOM     10  H   UNL     1       2.326   3.226  22.682  0.00  0.00    +0.000 HD
ENDROOT
BRANCH   2  11
ATOM     11  C   UNL     1       4.860   4.350  18.127  0.00  0.00    +0.000 A 
ATOM     12  C   UNL     1       5.692   4.802  19.178  0.00  0.00    +0.000 A 
ATOM     13  C   UNL     1       7.035   5.162  18.982  0.00  0.00    +0.000 A 
ATOM     14  C   UNL     1       7.593   4.987  17.719  0.00  0.00    +0.000 A 
ATOM     15  C   UNL     1       6.799   4.571  16.653  0.00  0.00    +0.000 A 
ATOM     16  C   UNL     1       5.448   4.274  16.858  0.00  0.00    +0.000 A 
ATOM     17  F   UNL     1       4.719   3.929  15.789  0.00  0.00    +0.000 F 
BRANCH  13  18
ATOM     18  N   UNL     1       7.852   5.451  20.081  0.00  0.00    +0.000 N 
ATOM     19  H   UNL     1       8.018   6.441  20.219  0.00  0.00    +0.000 HD
ATOM     20  H   UNL     1       8.712   4.910  20.110  0.00  0.00    +0.000 HD
ENDBRANCH  13  18
ENDBRANCH   2  11
BRANCH   8  21
ATOM     21  C   UNL     1       2.688   6.552  18.184  0.00  0.00    +0.000 C 
ATOM     22  F   UNL     1       3.595   6.861  17.242  0.00  0.00    +0.000 F 
ATOM     23  F   UNL     1       1.580   7.294  17.905  0.00  0.00    +0.000 F 
ATOM     24  F   UNL     1       3.169   7.030  19.358  0.00  0.00    +0.000 F 
ENDBRANCH   8  21
TORSDOF 3
ENDMDL
MODEL 4
REMARK VINA RESULT:      -7.2      2.308      4.458
REMARK  Name = 
REMARK  4 active torsions:
REMARK  status: ('A' for Active; 'I' for Inactive)
REMARK    1  A    between atoms: C_1  and  C_2
REMARK    2  A    between atoms: C_2  and  C_3
REMARK    3  A    between atoms: C_5  and  N_6
REMARK    4  A    between atoms: C_16  and  C_17
REMARK                            x       y       z     vdW  Elec       q    Type
REMARK                         _______ _______ _______ _____ _____    ______ ____
ROOT
ATOM      1  C   UNL     1       5.892   4.609  19.240  0.00  0.00    +0.000 C 
ATOM      2  C   UNL     1       4.679   4.757  18.266  0.00  0.00    +0.000 C 
ATOM      3  N   UNL     1       5.204   4.070  17.049  0.00  0.00    +0.000 NA
ATOM      4  C   UNL     1       5.380   4.698  15.946  0.00  0.00    +0.000 C 
ATOM      5  N   UNL     1       5.878   3.999  14.886  0.00  0.00    +0.000 N 
ATOM      6  C   UNL     1       5.007   6.159  15.785  0.00  0.00    +0.000 C 
ATOM      7  O   UNL     1       5.251   6.859  16.992  0.00  0.00    +0.000 OA
ATOM      8  C   UNL     1       4.467   6.318  18.099  0.00  0.00    +0.000 C 
ATOM      9  H   UNL     1       5.889   2.987  15.011  0.00  0.00    +0.000 HD
ATOM     10  H   UNL     1       5.691   4.310  13.942  0.00  0.00    +0.000 HD
ENDROOT
BRANCH   2  11
ATOM     11  C   UNL     1       3.485   3.938  18.782  0.00  0.00    +0.000 A 
ATOM     12  C   UNL     1       3.303   3.737  20.171  0.00  0.00    +0.000 A 
ATOM     13  C   UNL     1       2.216   3.023  20.699  0.00  0.00    +0.000 A 
ATOM     14  C   UNL     1       1.232   2.566  19.825  0.00  0.00    +0.000 A 
ATOM     15  C   UNL     1       1.390   2.721  18.450  0.00  0.00    +0.000 A 
ATOM     16  C   UNL     1       2.511   3.384  17.941  0.00  0.00    +0.000 A 
ATOM     17  F   UNL     1       2.638   3.459  16.611  0.00  0.00    +0.000 F 
BRANCH  13  18
ATOM     18  N   UNL     1       2.003   2.989  22.081  0.00  0.00    +0.000 N 
ATOM     19  H   UNL     1       1.579   2.129  22.410  0.00  0.00    +0.000 HD
ATOM     20  H   UNL     1       1.533   3.813  22.448  0.00  0.00    +0.000 HD
ENDBRANCH  13  18
ENDBRANCH   2  11
BRANCH   8  21
ATOM     21  C   UNL     1       3.051   6.931  18.136  0.00  0.00    +0.000 C 
ATOM     22  F   UNL     1       2.099   6.239  17.489  0.00  0.00    +0.000 F 
ATOM     23  F   UNL     1       2.637   7.033  19.430  0.00  0.00    +0.000 F 
ATOM     24  F   UNL     1       3.022   8.192  17.637  0.00  0.00    +0.000 F 
ENDBRANCH   8  21
TORSDOF 3
ENDMDL
MODEL 5
REMARK VINA RESULT:      -7.1      2.003      2.858
REMARK  Name = 
REMARK  4 active torsions:
REMARK  status: ('A' for Active; 'I' for Inactive)
REMARK    1  A    between atoms: C_1  and  C_2
REMARK    2  A    between atoms: C_2  and  C_3
REMARK    3  A    between atoms: C_5  and  N_6
REMARK    4  A    between atoms: C_16  and  C_17
REMARK                            x       y       z     vdW  Elec       q    Type
REMARK                         _______ _______ _______ _____ _____    ______ ____
ROOT
ATOM      1  C   UNL     1       2.500   2.867  17.195  0.00  0.00    +0.000 C 
ATOM      2  C   UNL     1       3.272   3.838  18.146  0.00  0.00    +0.000 C 
ATOM      3  N   UNL     1       3.373   3.008  19.382  0.00  0.00    +0.000 NA
ATOM      4  C   UNL     1       2.812   3.363  20.478  0.00  0.00    +0.000 C 
ATOM      5  N   UNL     1       2.941   2.538  21.557  0.00  0.00    +0.000 N 
ATOM      6  C   UNL     1       2.066   4.677  20.611  0.00  0.00    +0.000 C 
ATOM      7  O   UNL     1       1.403   4.983  19.397  0.00  0.00    +0.000 OA
ATOM      8  C   UNL     1       2.341   5.113  18.285  0.00  0.00    +0.000 C 
ATOM      9  H   UNL     1       3.635   1.800  21.448  0.00  0.00    +0.000 HD
ATOM     10  H   UNL     1       2.861   2.914  22.493  0.00  0.00    +0.000 HD
ENDROOT
BRANCH   2  11
ATOM     11  C   UNL     1       4.700   4.066  17.622  0.00  0.00    +0.000 A 
ATOM     12  C   UNL     1       5.002   3.853  16.257  0.00  0.00    +0.000 A 
ATOM     13  C   UNL     1       6.279   4.073  15.718  0.00  0.00    +0.000 A 
ATOM     14  C   UNL     1       7.267   4.601  16.545  0.00  0.00    +0.000 A 
ATOM     15  C   UNL     1       7.016   4.798  17.900  0.00  0.00    +0.000 A 
ATOM     16  C   UNL     1       5.752   4.516  18.429  0.00  0.00    +0.000 A 
ATOM     17  F   UNL     1       5.581   4.674  19.747  0.00  0.00    +0.000 F 
BRANCH  13  18
ATOM     18  N   UNL     1       6.482   3.997  14.336  0.00  0.00    +0.000 N 
ATOM     19  H   UNL     1       7.457   4.021  14.062  0.00  0.00    +0.000 HD
ATOM     20  H   UNL     1       5.917   4.650  13.799  0.00  0.00    +0.000 HD
ENDBRANCH  13  18
ENDBRANCH   2  11
BRANCH   8  21
ATOM     21  C   UNL     1       2.934   6.536  18.215  0.00  0.00    +0.000 C 
ATOM     22  F   UNL     1       3.703   6.794  17.144  0.00  0.00    +0.000 F 
ATOM     23  F   UNL     1       1.921   7.446  18.186  0.00  0.00    +0.000 F 
ATOM     24  F   UNL     1       3.676   6.840  19.309  0.00  0.00    +0.000 F 
ENDBRANCH   8  21
TORSDOF 3
ENDMDL
MODEL 6
REMARK VINA RESULT:      -7.1      1.009      1.055
REMARK  Name = 
REMARK  4 active torsions:
REMARK  status: ('A' for Active; 'I' for Inactive)
REMARK    1  A    between atoms: C_1  and  C_2
REMARK    2  A    between atoms: C_2  and  C_3
REMARK    3  A    between atoms: C_5  and  N_6
REMARK    4  A    between atoms: C_16  and  C_17
REMARK                            x       y       z     vdW  Elec       q    Type
REMARK                         _______ _______ _______ _____ _____    ______ ____
ROOT
ATOM      1  C   UNL     1       4.025   3.682  16.648  0.00  0.00    +0.000 C 
ATOM      2  C   UNL     1       4.036   4.562  17.940  0.00  0.00    +0.000 C 
ATOM      3  N   UNL     1       3.987   3.512  19.000  0.00  0.00    +0.000 NA
ATOM      4  C   UNL     1       2.998   3.420  19.809  0.00  0.00    +0.000 C 
ATOM      5  N   UNL     1       3.024   2.422  20.739  0.00  0.00    +0.000 N 
ATOM      6  C   UNL     1       1.846   4.407  19.787  0.00  0.00    +0.000 C 
ATOM      7  O   UNL     1       1.578   4.810  18.456  0.00  0.00    +0.000 OA
ATOM      8  C   UNL     1       2.735   5.460  17.844  0.00  0.00    +0.000 C 
ATOM      9  H   UNL     1       3.923   1.951  20.831  0.00  0.00    +0.000 HD
ATOM     10  H   UNL     1       2.502   2.520  21.601  0.00  0.00    +0.000 HD
ENDROOT
BRANCH   2  11
ATOM     11  C   UNL     1       5.384   5.291  18.071  0.00  0.00    +0.000 A 
ATOM     12  C   UNL     1       6.173   5.127  19.233  0.00  0.00    +0.000 A 
ATOM     13  C   UNL     1       7.424   5.743  19.395  0.00  0.00    +0.000 A 
ATOM     14  C   UNL     1       7.946   6.478  18.333  0.00  0.00    +0.000 A 
ATOM     15  C   UNL     1       7.186   6.685  17.183  0.00  0.00    +0.000 A 
ATOM     16  C   UNL     1       5.916   6.109  17.068  0.00  0.00    +0.000 A 
ATOM     17  F   UNL     1       5.209   6.383  15.965  0.00  0.00    +0.000 F 
BRANCH  13  18
ATOM     18  N   UNL     1       8.229   5.422  20.493  0.00  0.00    +0.000 N 
ATOM     19  H   UNL     1       9.128   5.890  20.494  0.00  0.00    +0.000 HD
ATOM     20  H   UNL     1       8.317   4.424  20.664  0.00  0.00    +0.000 HD
ENDBRANCH  13  18
ENDBRANCH   2  11
BRANCH   8  21
ATOM     21  C   UNL     1       2.784   6.962  18.193  0.00  0.00    +0.000 C 
ATOM     22  F   UNL     1       3.436   7.743  17.316  0.00  0.00    +0.000 F 
ATOM     23  F   UNL     1       1.515   7.451  18.269  0.00  0.00    +0.000 F 
ATOM     24  F   UNL     1       3.342   7.191  19.408  0.00  0.00    +0.000 F 
ENDBRANCH   8  21
TORSDOF 3
ENDMDL
MODEL 7
REMARK VINA RESULT:      -7.0      2.279      4.779
REMARK  Name = 
REMARK  4 active torsions:
REMARK  status: ('A' for Active; 'I' for Inactive)
REMARK    1  A    between atoms: C_1  and  C_2
REMARK    2  A    between atoms: C_2  and  C_3
REMARK    3  A    between atoms: C_5  and  N_6
REMARK    4  A    between atoms: C_16  and  C_17
REMARK                            x       y       z     vdW  Elec       q    Type
REMARK                         _______ _______ _______ _____ _____    ______ ____
ROOT
ATOM      1  C   UNL     1       3.880   7.027  17.742  0.00  0.00    +0.000 C 
ATOM      2  C   UNL     1       4.801   5.768  17.646  0.00  0.00    +0.000 C 
ATOM      3  N   UNL     1       5.933   6.174  18.531  0.00  0.00    +0.000 NA
ATOM      4  C   UNL     1       7.122   6.321  18.076  0.00  0.00    +0.000 C 
ATOM      5  N   UNL     1       8.095   6.710  18.950  0.00  0.00    +0.000 N 
ATOM      6  C   UNL     1       7.472   6.031  16.630  0.00  0.00    +0.000 C 
ATOM      7  O   UNL     1       6.391   6.391  15.788  0.00  0.00    +0.000 OA
ATOM      8  C   UNL     1       5.179   5.643  16.113  0.00  0.00    +0.000 C 
ATOM      9  H   UNL     1       7.828   6.665  19.933  0.00  0.00    +0.000 HD
ATOM     10  H   UNL     1       9.064   6.485  18.761  0.00  0.00    +0.000 HD
ENDROOT
BRANCH   2  11
ATOM     11  C   UNL     1       4.112   4.559  18.300  0.00  0.00    +0.000 A 
ATOM     12  C   UNL     1       4.873   3.603  19.013  0.00  0.00    +0.000 A 
ATOM     13  C   UNL     1       4.294   2.497  19.654  0.00  0.00    +0.000 A 
ATOM     14  C   UNL     1       2.907   2.382  19.659  0.00  0.00    +0.000 A 
ATOM     15  C   UNL     1       2.126   3.287  18.945  0.00  0.00    +0.000 A 
ATOM     16  C   UNL     1       2.728   4.350  18.263  0.00  0.00    +0.000 A 
ATOM     17  F   UNL     1       1.936   5.159  17.550  0.00  0.00    +0.000 F 
BRANCH  13  18
ATOM     18  N   UNL     1       5.073   1.673  20.473  0.00  0.00    +0.000 N 
ATOM     19  H   UNL     1       4.536   1.132  21.141  0.00  0.00    +0.000 HD
ATOM     20  H   UNL     1       5.860   2.148  20.909  0.00  0.00    +0.000 HD
ENDBRANCH  13  18
ENDBRANCH   2  11
BRANCH   8  21
ATOM     21  C   UNL     1       5.157   4.274  15.402  0.00  0.00    +0.000 C 
ATOM     22  F   UNL     1       6.009   3.354  15.884  0.00  0.00    +0.000 F 
ATOM     23  F   UNL     1       3.912   3.732  15.505  0.00  0.00    +0.000 F 
ATOM     24  F   UNL     1       5.408   4.378  14.073  0.00  0.00    +0.000 F 
ENDBRANCH   8  21
TORSDOF 3
ENDMDL
MODEL 8
REMARK VINA RESULT:      -6.9      1.422      1.708
REMARK  Name = 
REMARK  4 active torsions:
REMARK  status: ('A' for Active; 'I' for Inactive)
REMARK    1  A    between atoms: C_1  and  C_2
REMARK    2  A    between atoms: C_2  and  C_3
REMARK    3  A    between atoms: C_5  and  N_6
REMARK    4  A    between atoms: C_16  and  C_17
REMARK                            x       y       z     vdW  Elec       q    Type
REMARK                         _______ _______ _______ _____ _____    ______ ____
ROOT
ATOM      1  C   UNL     1       3.992   3.017  17.071  0.00  0.00    +0.000 C 
ATOM      2  C   UNL     1       4.221   3.811  18.398  0.00  0.00    +0.000 C 
ATOM      3  N   UNL     1       4.897   2.777  19.236  0.00  0.00    +0.000 NA
ATOM      4  C   UNL     1       4.364   2.332  20.314  0.00  0.00    +0.000 C 
ATOM      5  N   UNL     1       5.042   1.376  21.013  0.00  0.00    +0.000 N 
ATOM      6  C   UNL     1       3.049   2.870  20.842  0.00  0.00    +0.000 C 
ATOM      7  O   UNL     1       2.190   3.197  19.763  0.00  0.00    +0.000 OA
ATOM      8  C   UNL     1       2.774   4.217  18.897  0.00  0.00    +0.000 C 
ATOM      9  H   UNL     1       6.007   1.235  20.716  0.00  0.00    +0.000 HD
ATOM     10  H   UNL     1       4.880   1.267  22.006  0.00  0.00    +0.000 HD
ENDROOT
BRANCH   2  11
ATOM     11  C   UNL     1       5.229   4.949  18.164  0.00  0.00    +0.000 A 
ATOM     12  C   UNL     1       6.357   5.087  19.005  0.00  0.00    +0.000 A 
ATOM     13  C   UNL     1       7.324   6.088  18.821  0.00  0.00    +0.000 A 
ATOM     14  C   UNL     1       7.211   6.927  17.715  0.00  0.00    +0.000 A 
ATOM     15  C   UNL     1       6.099   6.840  16.881  0.00  0.00    +0.000 A 
ATOM     16  C   UNL     1       5.117   5.872  17.117  0.00  0.00    +0.000 A 
ATOM     17  F   UNL     1       4.045   5.867  16.316  0.00  0.00    +0.000 F 
BRANCH  13  18
ATOM     18  N   UNL     1       8.497   6.081  19.584  0.00  0.00    +0.000 N 
ATOM     19  H   UNL     1       8.729   6.980  19.988  0.00  0.00    +0.000 HD
ATOM     20  H   UNL     1       9.293   5.655  19.115  0.00  0.00    +0.000 HD
ENDBRANCH  13  18
ENDBRANCH   2  11
BRANCH   8  21
ATOM     21  C   UNL     1       2.492   5.637  19.432  0.00  0.00    +0.000 C 
ATOM     22  F   UNL     1       3.533   6.259  20.009  0.00  0.00    +0.000 F 
ATOM     23  F   UNL     1       2.092   6.436  18.403  0.00  0.00    +0.000 F 
ATOM     24  F   UNL     1       1.478   5.656  20.332  0.00  0.00    +0.000 F 
ENDBRANCH   8  21
TORSDOF 3
ENDMDL
MODEL 9
REMARK VINA RESULT:      -6.9      2.608      4.272
REMARK  Name = 
REMARK  4 active torsions:
REMARK  status: ('A' for Active; 'I' for Inactive)
REMARK    1  A    between atoms: C_1  and  C_2
REMARK    2  A    between atoms: C_2  and  C_3
REMARK    3  A    between atoms: C_5  and  N_6
REMARK    4  A    between atoms: C_16  and  C_17
REMARK                            x       y       z     vdW  Elec       q    Type
REMARK                         _______ _______ _______ _____ _____    ______ ____
ROOT
ATOM      1  C   UNL     1       4.425   3.081  17.866  0.00  0.00    +0.000 C 
ATOM      2  C   UNL     1       4.960   4.478  17.412  0.00  0.00    +0.000 C 
ATOM      3  N   UNL     1       4.794   4.380  15.932  0.00  0.00    +0.000 NA
ATOM      4  C   UNL     1       5.800   4.420  15.139  0.00  0.00    +0.000 C 
ATOM      5  N   UNL     1       5.562   4.308  13.800  0.00  0.00    +0.000 N 
ATOM      6  C   UNL     1       7.213   4.635  15.643  0.00  0.00    +0.000 C 
ATOM      7  O   UNL     1       7.383   3.998  16.897  0.00  0.00    +0.000 OA
ATOM      8  C   UNL     1       6.465   4.528  17.902  0.00  0.00    +0.000 C 
ATOM      9  H   UNL     1       4.581   4.392  13.534  0.00  0.00    +0.000 HD
ATOM     10  H   UNL     1       6.219   4.694  13.135  0.00  0.00    +0.000 HD
ENDROOT
BRANCH   2  11
ATOM     11  C   UNL     1       4.022   5.589  17.911  0.00  0.00    +0.000 A 
ATOM     12  C   UNL     1       3.260   5.406  19.089  0.00  0.00    +0.000 A 
ATOM     13  C   UNL     1       2.411   6.397  19.606  0.00  0.00    +0.000 A 
ATOM     14  C   UNL     1       2.381   7.641  18.981  0.00  0.00    +0.000 A 
ATOM     15  C   UNL     1       3.096   7.850  17.803  0.00  0.00    +0.000 A 
ATOM     16  C   UNL     1       3.891   6.829  17.272  0.00  0.00    +0.000 A 
ATOM     17  F   UNL     1       4.514   7.067  16.112  0.00  0.00    +0.000 F 
BRANCH  13  18
ATOM     18  N   UNL     1       1.804   6.220  20.854  0.00  0.00    +0.000 N 
ATOM     19  H   UNL     1       1.867   5.274  21.211  0.00  0.00    +0.000 HD
ATOM     20  H   UNL     1       0.857   6.588  20.909  0.00  0.00    +0.000 HD
ENDBRANCH  13  18
ENDBRANCH   2  11
BRANCH   8  21
ATOM     21  C   UNL     1       7.037   5.796  18.571  0.00  0.00    +0.000 C 
ATOM     22  F   UNL     1       6.857   6.943  17.895  0.00  0.00    +0.000 F 
ATOM     23  F   UNL     1       6.445   5.971  19.786  0.00  0.00    +0.000 F 
ATOM     24  F   UNL     1       8.366   5.694  18.818  0.00  0.00    +0.000 F 
ENDBRANCH   8  21
TORSDOF 3
ENDMDL
