MODEL 1
REMARK VINA RESULT:      -8.4      0.000      0.000
REMARK  Name = 
REMARK  7 active torsions:
REMARK  status: ('A' for Active; 'I' for Inactive)
REMARK    1  A    between atoms: C_1  and  O_2
REMARK    2  A    between atoms: O_2  and  C_3
REMARK    3  A    between atoms: C_5  and  O_6
REMARK    4  A    between atoms: O_6  and  C_7
REMARK    5  A    between atoms: N_13  and  S_14
REMARK    6  A    between atoms: S_14  and  C_17
REMARK    7  A    between atoms: C_19  and  C_20
REMARK                            x       y       z     vdW  Elec       q    Type
REMARK                         _______ _______ _______ _____ _____    ______ ____
ROOT
ATOM      1  C   UNL     1       1.853   8.802  18.603  0.00  0.00    +0.000 A 
ATOM      2  C   UNL     1       1.486   9.298  19.830  0.00  0.00    +0.000 A 
ATOM      3  C   UNL     1       1.440   8.368  20.834  0.00  0.00    +0.000 A 
ATOM      4  N   UNL     1       1.691   7.068  20.643  0.00  0.00    +0.000 NA
ATOM      5  C   UNL     1       2.034   6.689  19.420  0.00  0.00    +0.000 A 
ATOM      6  N   UNL     1       2.323   5.375  19.158  0.00  0.00    +0.000 N 
ATOM      7  C   UNL     1       2.002   4.319  19.953  0.00  0.00    +0.000 C 
ATOM      8  O   UNL     1       1.388   4.357  21.007  0.00  0.00    +0.000 OA
ATOM      9  N   UNL     1       2.388   3.062  19.502  0.00  0.00    +0.000 N 
ATOM     10  N   UNL     1       2.160   7.515  18.377  0.00  0.00    +0.000 NA
ATOM     11  H   UNL     1       2.746   5.242  18.254  0.00  0.00    +0.000 HD
ATOM     12  H   UNL     1       2.046   2.271  20.033  0.00  0.00    +0.000 HD
ENDROOT
BRANCH   9  13
ATOM     13  S   UNL     1       3.169   2.694  18.099  0.00  0.00    +0.000 S 
ATOM     14  O   UNL     1       3.709   1.355  18.213  0.00  0.00    +0.000 OA
ATOM     15  O   UNL     1       2.333   3.099  16.995  0.00  0.00    +0.000 OA
BRANCH  13  16
ATOM     16  C   UNL     1       4.586   3.693  17.974  0.00  0.00    +0.000 A 
ATOM     17  N   UNL     1       5.260   4.196  19.073  0.00  0.00    +0.000 NA
ATOM     18  C   UNL     1       6.306   4.840  18.585  0.00  0.00    +0.000 A 
ATOM     19  C   UNL     1       7.336   5.552  19.386  0.00  0.00    +0.000 C 
ATOM     20  N   UNL     1       6.346   4.764  17.203  0.00  0.00    +0.000 N 
ATOM     21  C   UNL     1       7.254   5.300  16.288  0.00  0.00    +0.000 A 
ATOM     22  C   UNL     1       7.090   5.057  14.976  0.00  0.00    +0.000 A 
ATOM     23  C   UNL     1       5.978   4.223  14.545  0.00  0.00    +0.000 A 
ATOM     24  C   UNL     1       5.097   3.714  15.427  0.00  0.00    +0.000 A 
ATOM     25  C   UNL     1       5.256   3.998  16.810  0.00  0.00    +0.000 A 
ENDBRANCH  13  16
ENDBRANCH   9  13
BRANCH   1  27
ATOM     26  C   UNL     1       2.164  11.037  17.971  0.00  0.00    +0.000 C 
ATOM     27  O   UNL     1       1.896   9.699  17.552  0.00  0.00    +0.000 OA
ENDBRANCH   1  27
BRANCH   3  28
ATOM     28  O   UNL     1       1.117   8.790  22.106  0.00  0.00    +0.000 OA
ATOM     29  C   UNL     1      -0.298   8.945  22.273  0.00  0.00    +0.000 C 
ENDBRANCH   3  28
TORSDOF 4
ENDMDL
MODEL 2
REMARK VINA RESULT:      -7.6      3.742      8.496
REMARK  Name = 
REMARK  7 active torsions:
REMARK  status: ('A' for Active; 'I' for Inactive)
REMARK    1  A    between atoms: C_1  and  O_2
REMARK    2  A    between atoms: O_2  and  C_3
REMARK    3  A    between atoms: C_5  and  O_6
REMARK    4  A    between atoms: O_6  and  C_7
REMARK    5  A    between atoms: N_13  and  S_14
REMARK    6  A    between atoms: S_14  and  C_17
REMARK    7  A    between atoms: C_19  and  C_20
REMARK                            x       y       z     vdW  Elec       q    Type
REMARK                         _______ _______ _______ _____ _____    ______ ____
ROOT
ATOM      1  C   UNL     1       2.730   4.343  19.301  0.00  0.00    +0.000 A 
ATOM      2  C   UNL     1       3.674   4.127  18.328  0.00  0.00    +0.000 A 
ATOM      3  C   UNL     1       4.049   5.247  17.633  0.00  0.00    +0.000 A 
ATOM      4  N   UNL     1       3.518   6.455  17.848  0.00  0.00    +0.000 NA
ATOM      5  C   UNL     1       2.611   6.558  18.809  0.00  0.00    +0.000 A 
ATOM      6  N   UNL     1       2.039   7.771  19.095  0.00  0.00    +0.000 N 
ATOM      7  C   UNL     1       2.065   8.868  18.290  0.00  0.00    +0.000 C 
ATOM      8  O   UNL     1       2.570   8.951  17.183  0.00  0.00    +0.000 OA
ATOM      9  N   UNL     1       1.421  10.004  18.770  0.00  0.00    +0.000 N 
ATOM     10  N   UNL     1       2.207   5.546  19.582  0.00  0.00    +0.000 NA
ATOM     11  H   UNL     1       1.514   7.762  19.953  0.00  0.00    +0.000 HD
ATOM     12  H   UNL     1       1.339  10.778  18.123  0.00  0.00    +0.000 HD
ENDROOT
BRANCH   9  13
ATOM     13  S   UNL     1       0.605  10.173  20.191  0.00  0.00    +0.000 S 
ATOM     14  O   UNL     1       0.239   8.856  20.668  0.00  0.00    +0.000 OA
ATOM     15  O   UNL     1       1.316  11.123  21.012  0.00  0.00    +0.000 OA
BRANCH  13  16
ATOM     16  C   UNL     1      -0.927  10.926  19.864  0.00  0.00    +0.000 A 
ATOM     17  N   UNL     1      -1.490  11.889  20.684  0.00  0.00    +0.000 NA
ATOM     18  C   UNL     1      -2.603  12.264  20.078  0.00  0.00    +0.000 A 
ATOM     19  C   UNL     1      -3.558  13.288  20.578  0.00  0.00    +0.000 C 
ATOM     20  N   UNL     1      -2.782  11.587  18.884  0.00  0.00    +0.000 N 
ATOM     21  C   UNL     1      -3.809  11.660  17.941  0.00  0.00    +0.000 A 
ATOM     22  C   UNL     1      -3.737  10.910  16.828  0.00  0.00    +0.000 A 
ATOM     23  C   UNL     1      -2.578  10.054  16.626  0.00  0.00    +0.000 A 
ATOM     24  C   UNL     1      -1.592   9.977  17.539  0.00  0.00    +0.000 A 
ATOM     25  C   UNL     1      -1.685  10.748  18.728  0.00  0.00    +0.000 A 
ENDBRANCH  13  16
ENDBRANCH   9  13
BRANCH   1  27
ATOM     26  C   UNL     1       1.570   3.584  21.191  0.00  0.00    +0.000 C 
ATOM     27  O   UNL     1       2.305   3.239  20.017  0.00  0.00    +0.000 OA
ENDBRANCH   1  27
BRANCH   3  28
ATOM     28  O   UNL     1       5.021   5.123  16.664  0.00  0.00    +0.000 OA
ATOM     29  C   UNL     1       5.220   6.351  15.950  0.00  0.00    +0.000 C 
ENDBRANCH   3  28
TORSDOF 4
ENDMDL
MODEL 3
REMARK VINA RESULT:      -7.5      3.730      8.766
REMARK  Name = 
REMARK  7 active torsions:
REMARK  status: ('A' for Active; 'I' for Inactive)
REMARK    1  A    between atoms: C_1  and  O_2
REMARK    2  A    between atoms: O_2  and  C_3
REMARK    3  A    between atoms: C_5  and  O_6
REMARK    4  A    between atoms: O_6  and  C_7
REMARK    5  A    between atoms: N_13  and  S_14
REMARK    6  A    between atoms: S_14  and  C_17
REMARK    7  A    between atoms: C_19  and  C_20
REMARK                            x       y       z     vdW  Elec       q    Type
REMARK                         _______ _______ _______ _____ _____    ______ ____
ROOT
ATOM      1  C   UNL     1       2.409   4.692  20.585  0.00  0.00    +0.000 A 
ATOM      2  C   UNL     1       3.419   4.084  19.881  0.00  0.00    +0.000 A 
ATOM      3  C   UNL     1       3.976   4.855  18.895  0.00  0.00    +0.000 A 
ATOM      4  N   UNL     1       3.554   6.089  18.603  0.00  0.00    +0.000 NA
ATOM      5  C   UNL     1       2.571   6.586  19.340  0.00  0.00    +0.000 A 
ATOM      6  N   UNL     1       2.102   7.853  19.106  0.00  0.00    +0.000 N 
ATOM      7  C   UNL     1       2.322   8.583  17.980  0.00  0.00    +0.000 C 
ATOM      8  O   UNL     1       2.942   8.233  16.989  0.00  0.00    +0.000 OA
ATOM      9  N   UNL     1       1.754   9.853  17.944  0.00  0.00    +0.000 N 
ATOM     10  N   UNL     1       1.987   5.945  20.357  0.00  0.00    +0.000 NA
ATOM     11  H   UNL     1       1.494   8.184  19.837  0.00  0.00    +0.000 HD
ATOM     12  H   UNL     1       1.818  10.347  17.063  0.00  0.00    +0.000 HD
ENDROOT
BRANCH   9  13
ATOM     13  S   UNL     1       0.821  10.570  19.096  0.00  0.00    +0.000 S 
ATOM     14  O   UNL     1       0.681   9.653  20.208  0.00  0.00    +0.000 OA
ATOM     15  O   UNL     1       1.275  11.929  19.267  0.00  0.00    +0.000 OA
BRANCH  13  16
ATOM     16  C   UNL     1      -0.800  10.716  18.485  0.00  0.00    +0.000 A 
ATOM     17  N   UNL     1      -1.250  10.049  17.358  0.00  0.00    +0.000 NA
ATOM     18  C   UNL     1      -2.531  10.354  17.253  0.00  0.00    +0.000 A 
ATOM     19  C   UNL     1      -3.452   9.871  16.191  0.00  0.00    +0.000 C 
ATOM     20  N   UNL     1      -2.938  11.189  18.280  0.00  0.00    +0.000 N 
ATOM     21  C   UNL     1      -4.184  11.758  18.551  0.00  0.00    +0.000 A 
ATOM     22  C   UNL     1      -4.336  12.523  19.646  0.00  0.00    +0.000 A 
ATOM     23  C   UNL     1      -3.200  12.720  20.533  0.00  0.00    +0.000 A 
ATOM     24  C   UNL     1      -1.996  12.179  20.268  0.00  0.00    +0.000 A 
ATOM     25  C   UNL     1      -1.831  11.396  19.093  0.00  0.00    +0.000 A 
ENDBRANCH  13  16
ENDBRANCH   9  13
BRANCH   1  27
ATOM     26  C   UNL     1       1.915   2.539  21.370  0.00  0.00    +0.000 C 
ATOM     27  O   UNL     1       1.802   3.947  21.579  0.00  0.00    +0.000 OA
ENDBRANCH   1  27
BRANCH   3  28
ATOM     28  O   UNL     1       5.023   4.333  18.166  0.00  0.00    +0.000 OA
ATOM     29  C   UNL     1       4.568   3.672  16.978  0.00  0.00    +0.000 C 
ENDBRANCH   3  28
TORSDOF 4
ENDMDL
MODEL 4
REMARK VINA RESULT:      -7.4      3.403      8.621
REMARK  Name = 
REMARK  7 active torsions:
REMARK  status: ('A' for Active; 'I' for Inactive)
REMARK    1  A    between atoms: C_1  and  O_2
REMARK    2  A    between atoms: O_2  and  C_3
REMARK    3  A    between atoms: C_5  and  O_6
REMARK    4  A    between atoms: O_6  and  C_7
REMARK    5  A    between atoms: N_13  and  S_14
REMARK    6  A    between atoms: S_14  and  C_17
REMARK    7  A    between atoms: C_19  and  C_20
REMARK                            x       y       z     vdW  Elec       q    Type
REMARK                         _______ _______ _______ _____ _____    ______ ____
ROOT
ATOM      1  C   UNL     1       2.869   3.590  19.912  0.00  0.00    +0.000 A 
ATOM      2  C   UNL     1       3.736   3.513  18.850  0.00  0.00    +0.000 A 
ATOM      3  C   UNL     1       4.018   4.712  18.251  0.00  0.00    +0.000 A 
ATOM      4  N   UNL     1       3.470   5.870  18.635  0.00  0.00    +0.000 NA
ATOM      5  C   UNL     1       2.643   5.838  19.670  0.00  0.00    +0.000 A 
ATOM      6  N   UNL     1       2.060   6.992  20.127  0.00  0.00    +0.000 N 
ATOM      7  C   UNL     1       1.985   8.166  19.444  0.00  0.00    +0.000 C 
ATOM      8  O   UNL     1       2.394   8.383  18.315  0.00  0.00    +0.000 OA
ATOM      9  N   UNL     1       1.349   9.220  20.091  0.00  0.00    +0.000 N 
ATOM     10  N   UNL     1       2.335   4.736  20.361  0.00  0.00    +0.000 NA
ATOM     11  H   UNL     1       1.608   6.873  21.018  0.00  0.00    +0.000 HD
ATOM     12  H   UNL     1       1.190  10.053  19.538  0.00  0.00    +0.000 HD
ENDROOT
BRANCH   9  13
ATOM     13  S   UNL     1       0.649   9.209  21.582  0.00  0.00    +0.000 S 
ATOM     14  O   UNL     1      -0.317   8.132  21.625  0.00  0.00    +0.000 OA
ATOM     15  O   UNL     1       1.688   9.358  22.572  0.00  0.00    +0.000 OA
BRANCH  13  16
ATOM     16  C   UNL     1      -0.329  10.638  21.746  0.00  0.00    +0.000 A 
ATOM     17  N   UNL     1      -0.292  11.459  22.859  0.00  0.00    +0.000 NA
ATOM     18  C   UNL     1      -1.109  12.462  22.588  0.00  0.00    +0.000 A 
ATOM     19  C   UNL     1      -1.402  13.608  23.488  0.00  0.00    +0.000 C 
ATOM     20  N   UNL     1      -1.671  12.330  21.329  0.00  0.00    +0.000 N 
ATOM     21  C   UNL     1      -2.583  13.140  20.650  0.00  0.00    +0.000 A 
ATOM     22  C   UNL     1      -2.959  12.808  19.402  0.00  0.00    +0.000 A 
ATOM     23  C   UNL     1      -2.388  11.621  18.785  0.00  0.00    +0.000 A 
ATOM     24  C   UNL     1      -1.515  10.835  19.443  0.00  0.00    +0.000 A 
ATOM     25  C   UNL     1      -1.143  11.172  20.772  0.00  0.00    +0.000 A 
ENDBRANCH  13  16
ENDBRANCH   9  13
BRANCH   1  27
ATOM     26  C   UNL     1       1.670   2.583  21.656  0.00  0.00    +0.000 C 
ATOM     27  O   UNL     1       2.539   2.403  20.539  0.00  0.00    +0.000 OA
ENDBRANCH   1  27
BRANCH   3  28
ATOM     28  O   UNL     1       4.910   4.728  17.200  0.00  0.00    +0.000 OA
ATOM     29  C   UNL     1       5.185   6.063  16.756  0.00  0.00    +0.000 C 
ENDBRANCH   3  28
TORSDOF 4
ENDMDL
MODEL 5
REMARK VINA RESULT:      -7.4      2.479      3.117
REMARK  Name = 
REMARK  7 active torsions:
REMARK  status: ('A' for Active; 'I' for Inactive)
REMARK    1  A    between atoms: C_1  and  O_2
REMARK    2  A    between atoms: O_2  and  C_3
REMARK    3  A    between atoms: C_5  and  O_6
REMARK    4  A    between atoms: O_6  and  C_7
REMARK    5  A    between atoms: N_13  and  S_14
REMARK    6  A    between atoms: S_14  and  C_17
REMARK    7  A    between atoms: C_19  and  C_20
REMARK                            x       y       z     vdW  Elec       q    Type
REMARK                         _______ _______ _______ _____ _____    ______ ____
ROOT
ATOM      1  C   UNL     1      -0.841  11.496  18.813  0.00  0.00    +0.000 A 
ATOM      2  C   UNL     1      -0.958  12.112  20.035  0.00  0.00    +0.000 A 
ATOM      3  C   UNL     1      -0.245  11.524  21.045  0.00  0.00    +0.000 A 
ATOM      4  N   UNL     1       0.483  10.414  20.879  0.00  0.00    +0.000 NA
ATOM      5  C   UNL     1       0.531   9.895  19.661  0.00  0.00    +0.000 A 
ATOM      6  N   UNL     1       1.273   8.768  19.416  0.00  0.00    +0.000 N 
ATOM      7  C   UNL     1       1.745   7.911  20.361  0.00  0.00    +0.000 C 
ATOM      8  O   UNL     1       1.571   7.981  21.566  0.00  0.00    +0.000 OA
ATOM      9  N   UNL     1       2.480   6.824  19.899  0.00  0.00    +0.000 N 
ATOM     10  N   UNL     1      -0.084  10.411  18.592  0.00  0.00    +0.000 NA
ATOM     11  H   UNL     1       1.382   8.579  18.434  0.00  0.00    +0.000 HD
ATOM     12  H   UNL     1       2.728   6.127  20.590  0.00  0.00    +0.000 HD
ENDROOT
BRANCH   9  13
ATOM     13  S   UNL     1       2.825   6.434  18.336  0.00  0.00    +0.000 S 
ATOM     14  O   UNL     1       2.119   5.215  18.003  0.00  0.00    +0.000 OA
ATOM     15  O   UNL     1       2.723   7.631  17.537  0.00  0.00    +0.000 OA
BRANCH  13  16
ATOM     16  C   UNL     1       4.499   5.974  18.236  0.00  0.00    +0.000 A 
ATOM     17  N   UNL     1       5.352   5.969  19.326  0.00  0.00    +0.000 NA
ATOM     18  C   UNL     1       6.503   5.503  18.874  0.00  0.00    +0.000 A 
ATOM     19  C   UNL     1       7.736   5.310  19.681  0.00  0.00    +0.000 C 
ATOM     20  N   UNL     1       6.428   5.192  17.527  0.00  0.00    +0.000 N 
ATOM     21  C   UNL     1       7.395   4.689  16.654  0.00  0.00    +0.000 A 
ATOM     22  C   UNL     1       7.063   4.438  15.375  0.00  0.00    +0.000 A 
ATOM     23  C   UNL     1       5.695   4.678  14.940  0.00  0.00    +0.000 A 
ATOM     24  C   UNL     1       4.765   5.171  15.780  0.00  0.00    +0.000 A 
ATOM     25  C   UNL     1       5.127   5.464  17.122  0.00  0.00    +0.000 A 
ENDBRANCH  13  16
ENDBRANCH   9  13
BRANCH   1  27
ATOM     26  C   UNL     1      -2.323  11.075  17.047  0.00  0.00    +0.000 C 
ATOM     27  O   UNL     1      -1.558  12.042  17.765  0.00  0.00    +0.000 OA
ENDBRANCH   1  27
BRANCH   3  28
ATOM     28  O   UNL     1      -0.278  12.102  22.296  0.00  0.00    +0.000 OA
ATOM     29  C   UNL     1      -1.355  11.590  23.091  0.00  0.00    +0.000 C 
ENDBRANCH   3  28
TORSDOF 4
ENDMDL
MODEL 6
REMARK VINA RESULT:      -7.4      3.817      8.154
REMARK  Name = 
REMARK  7 active torsions:
REMARK  status: ('A' for Active; 'I' for Inactive)
REMARK    1  A    between atoms: C_1  and  O_2
REMARK    2  A    between atoms: O_2  and  C_3
REMARK    3  A    between atoms: C_5  and  O_6
REMARK    4  A    between atoms: O_6  and  C_7
REMARK    5  A    between atoms: N_13  and  S_14
REMARK    6  A    between atoms: S_14  and  C_17
REMARK    7  A    between atoms: C_19  and  C_20
REMARK                            x       y       z     vdW  Elec       q    Type
REMARK                         _______ _______ _______ _____ _____    ______ ____
ROOT
ATOM      1  C   UNL     1       4.477   6.418  17.064  0.00  0.00    +0.000 A 
ATOM      2  C   UNL     1       4.283   5.081  17.311  0.00  0.00    +0.000 A 
ATOM      3  C   UNL     1       3.300   4.802  18.223  0.00  0.00    +0.000 A 
ATOM      4  N   UNL     1       2.602   5.748  18.861  0.00  0.00    +0.000 NA
ATOM      5  C   UNL     1       2.866   7.010  18.553  0.00  0.00    +0.000 A 
ATOM      6  N   UNL     1       2.175   8.030  19.156  0.00  0.00    +0.000 N 
ATOM      7  C   UNL     1       1.432   7.920  20.290  0.00  0.00    +0.000 C 
ATOM      8  O   UNL     1       1.276   6.919  20.969  0.00  0.00    +0.000 OA
ATOM      9  N   UNL     1       0.808   9.080  20.736  0.00  0.00    +0.000 N 
ATOM     10  N   UNL     1       3.767   7.397  17.644  0.00  0.00    +0.000 NA
ATOM     11  H   UNL     1       2.329   8.920  18.713  0.00  0.00    +0.000 HD
ATOM     12  H   UNL     1       0.355   9.025  21.640  0.00  0.00    +0.000 HD
ENDROOT
BRANCH   9  13
ATOM     13  S   UNL     1       0.885  10.584  20.068  0.00  0.00    +0.000 S 
ATOM     14  O   UNL     1       1.377  11.506  21.070  0.00  0.00    +0.000 OA
ATOM     15  O   UNL     1       1.485  10.470  18.761  0.00  0.00    +0.000 OA
BRANCH  13  16
ATOM     16  C   UNL     1      -0.735  11.141  19.767  0.00  0.00    +0.000 A 
ATOM     17  N   UNL     1      -1.377  12.076  20.560  0.00  0.00    +0.000 NA
ATOM     18  C   UNL     1      -2.545  12.290  19.982  0.00  0.00    +0.000 A 
ATOM     19  C   UNL     1      -3.594  13.224  20.469  0.00  0.00    +0.000 C 
ATOM     20  N   UNL     1      -2.685  11.534  18.830  0.00  0.00    +0.000 N 
ATOM     21  C   UNL     1      -3.745  11.441  17.926  0.00  0.00    +0.000 A 
ATOM     22  C   UNL     1      -3.626  10.645  16.849  0.00  0.00    +0.000 A 
ATOM     23  C   UNL     1      -2.383   9.917  16.643  0.00  0.00    +0.000 A 
ATOM     24  C   UNL     1      -1.364  10.000  17.519  0.00  0.00    +0.000 A 
ATOM     25  C   UNL     1      -1.505  10.818  18.672  0.00  0.00    +0.000 A 
ENDBRANCH  13  16
ENDBRANCH   9  13
BRANCH   1  27
ATOM     26  C   UNL     1       6.614   5.898  16.253  0.00  0.00    +0.000 C 
ATOM     27  O   UNL     1       5.472   6.750  16.164  0.00  0.00    +0.000 OA
ENDBRANCH   1  27
BRANCH   3  28
ATOM     28  O   UNL     1       3.015   3.482  18.500  0.00  0.00    +0.000 OA
ATOM     29  C   UNL     1       2.283   3.341  19.725  0.00  0.00    +0.000 C 
ENDBRANCH   3  28
TORSDOF 4
ENDMDL
MODEL 7
REMARK VINA RESULT:      -7.2      3.764      8.112
REMARK  Name = 
REMARK  7 active torsions:
REMARK  status: ('A' for Active; 'I' for Inactive)
REMARK    1  A    between atoms: C_1  and  O_2
REMARK    2  A    between atoms: O_2  and  C_3
REMARK    3  A    between atoms: C_5  and  O_6
REMARK    4  A    between atoms: O_6  and  C_7
REMARK    5  A    between atoms: N_13  and  S_14
REMARK    6  A    between atoms: S_14  and  C_17
REMARK    7  A    between atoms: C_19  and  C_20
REMARK                            x       y       z     vdW  Elec       q    Type
REMARK                         _______ _______ _______ _____ _____    ______ ____
ROOT
ATOM      1  C   UNL     1       4.454   5.121  17.268  0.00  0.00    +0.000 A 
ATOM      2  C   UNL     1       4.485   4.046  18.122  0.00  0.00    +0.000 A 
ATOM      3  C   UNL     1       3.711   4.183  19.245  0.00  0.00    +0.000 A 
ATOM      4  N   UNL     1       3.007   5.286  19.520  0.00  0.00    +0.000 NA
ATOM      5  C   UNL     1       3.046   6.269  18.632  0.00  0.00    +0.000 A 
ATOM      6  N   UNL     1       2.332   7.421  18.843  0.00  0.00    +0.000 N 
ATOM      7  C   UNL     1       1.807   7.821  20.032  0.00  0.00    +0.000 C 
ATOM      8  O   UNL     1       1.901   7.246  21.104  0.00  0.00    +0.000 OA
ATOM      9  N   UNL     1       1.115   9.027  20.030  0.00  0.00    +0.000 N 
ATOM     10  N   UNL     1       3.724   6.226  17.481  0.00  0.00    +0.000 NA
ATOM     11  H   UNL     1       2.290   8.008  18.026  0.00  0.00    +0.000 HD
ATOM     12  H   UNL     1       0.829   9.380  20.934  0.00  0.00    +0.000 HD
ENDROOT
BRANCH   9  13
ATOM     13  S   UNL     1       0.878  10.048  18.759  0.00  0.00    +0.000 S 
ATOM     14  O   UNL     1       1.804  11.154  18.882  0.00  0.00    +0.000 OA
ATOM     15  O   UNL     1       0.772   9.258  17.556  0.00  0.00    +0.000 OA
BRANCH  13  16
ATOM     16  C   UNL     1      -0.679  10.801  18.935  0.00  0.00    +0.000 A 
ATOM     17  N   UNL     1      -0.971  11.718  19.930  0.00  0.00    +0.000 NA
ATOM     18  C   UNL     1      -2.211  12.111  19.698  0.00  0.00    +0.000 A 
ATOM     19  C   UNL     1      -2.972  13.100  20.507  0.00  0.00    +0.000 C 
ATOM     20  N   UNL     1      -2.736  11.491  18.578  0.00  0.00    +0.000 N 
ATOM     21  C   UNL     1      -3.995  11.599  17.983  0.00  0.00    +0.000 A 
ATOM     22  C   UNL     1      -4.258  10.904  16.863  0.00  0.00    +0.000 A 
ATOM     23  C   UNL     1      -3.214  10.071  16.287  0.00  0.00    +0.000 A 
ATOM     24  C   UNL     1      -2.003   9.959  16.865  0.00  0.00    +0.000 A 
ATOM     25  C   UNL     1      -1.738  10.671  18.065  0.00  0.00    +0.000 A 
ENDBRANCH  13  16
ENDBRANCH   9  13
BRANCH   1  27
ATOM     26  C   UNL     1       6.569   5.500  16.331  0.00  0.00    +0.000 C 
ATOM     27  O   UNL     1       5.234   5.038  16.129  0.00  0.00    +0.000 OA
ENDBRANCH   1  27
BRANCH   3  28
ATOM     28  O   UNL     1       3.656   3.133  20.137  0.00  0.00    +0.000 OA
ATOM     29  C   UNL     1       2.387   3.065  20.800  0.00  0.00    +0.000 C 
ENDBRANCH   3  28
TORSDOF 4
ENDMDL
MODEL 8
REMARK VINA RESULT:      -7.2      3.493      8.820
REMARK  Name = 
REMARK  7 active torsions:
REMARK  status: ('A' for Active; 'I' for Inactive)
REMARK    1  A    between atoms: C_1  and  O_2
REMARK    2  A    between atoms: O_2  and  C_3
REMARK    3  A    between atoms: C_5  and  O_6
REMARK    4  A    between atoms: O_6  and  C_7
REMARK    5  A    between atoms: N_13  and  S_14
REMARK    6  A    between atoms: S_14  and  C_17
REMARK    7  A    between atoms: C_19  and  C_20
REMARK                            x       y       z     vdW  Elec       q    Type
REMARK                         _______ _______ _______ _____ _____    ______ ____
ROOT
ATOM      1  C   UNL     1       3.298   4.083  19.659  0.00  0.00    +0.000 A 
ATOM      2  C   UNL     1       4.009   4.109  18.485  0.00  0.00    +0.000 A 
ATOM      3  C   UNL     1       4.037   5.327  17.858  0.00  0.00    +0.000 A 
ATOM      4  N   UNL     1       3.394   6.405  18.320  0.00  0.00    +0.000 NA
ATOM      5  C   UNL     1       2.733   6.275  19.461  0.00  0.00    +0.000 A 
ATOM      6  N   UNL     1       2.067   7.345  20.001  0.00  0.00    +0.000 N 
ATOM      7  C   UNL     1       1.736   8.487  19.340  0.00  0.00    +0.000 C 
ATOM      8  O   UNL     1       1.949   8.742  18.166  0.00  0.00    +0.000 OA
ATOM      9  N   UNL     1       1.058   9.455  20.074  0.00  0.00    +0.000 N 
ATOM     10  N   UNL     1       2.679   5.152  20.183  0.00  0.00    +0.000 NA
ATOM     11  H   UNL     1       1.765   7.180  20.946  0.00  0.00    +0.000 HD
ATOM     12  H   UNL     1       0.710  10.249  19.553  0.00  0.00    +0.000 HD
ENDROOT
BRANCH   9  13
ATOM     13  S   UNL     1       0.582   9.371  21.649  0.00  0.00    +0.000 S 
ATOM     14  O   UNL     1      -0.402   8.316  21.774  0.00  0.00    +0.000 OA
ATOM     15  O   UNL     1       1.758   9.434  22.483  0.00  0.00    +0.000 OA
BRANCH  13  16
ATOM     16  C   UNL     1      -0.315  10.809  22.035  0.00  0.00    +0.000 A 
ATOM     17  N   UNL     1      -1.426  10.813  22.861  0.00  0.00    +0.000 NA
ATOM     18  C   UNL     1      -1.785  12.080  22.968  0.00  0.00    +0.000 A 
ATOM     19  C   UNL     1      -2.934  12.591  23.760  0.00  0.00    +0.000 C 
ATOM     20  N   UNL     1      -0.939  12.907  22.248  0.00  0.00    +0.000 N 
ATOM     21  C   UNL     1      -0.951  14.293  22.074  0.00  0.00    +0.000 A 
ATOM     22  C   UNL     1       0.014  14.874  21.340  0.00  0.00    +0.000 A 
ATOM     23  C   UNL     1       1.059  14.044  20.763  0.00  0.00    +0.000 A 
ATOM     24  C   UNL     1       1.067  12.707  20.923  0.00  0.00    +0.000 A 
ATOM     25  C   UNL     1       0.029  12.092  21.674  0.00  0.00    +0.000 A 
ENDBRANCH  13  16
ENDBRANCH   9  13
BRANCH   1  27
ATOM     26  C   UNL     1       4.443   2.129  20.263  0.00  0.00    +0.000 C 
ATOM     27  O   UNL     1       3.225   2.871  20.320  0.00  0.00    +0.000 OA
ENDBRANCH   1  27
BRANCH   3  28
ATOM     28  O   UNL     1       4.762   5.449  16.692  0.00  0.00    +0.000 OA
ATOM     29  C   UNL     1       5.348   6.750  16.563  0.00  0.00    +0.000 C 
ENDBRANCH   3  28
TORSDOF 4
ENDMDL
MODEL 9
REMARK VINA RESULT:      -7.2      3.859      9.182
REMARK  Name = 
REMARK  7 active torsions:
REMARK  status: ('A' for Active; 'I' for Inactive)
REMARK    1  A    between atoms: C_1  and  O_2
REMARK    2  A    between atoms: O_2  and  C_3
REMARK    3  A    between atoms: C_5  and  O_6
REMARK    4  A    between atoms: O_6  and  C_7
REMARK    5  A    between atoms: N_13  and  S_14
REMARK    6  A    between atoms: S_14  and  C_17
REMARK    7  A    between atoms: C_19  and  C_20
REMARK                            x       y       z     vdW  Elec       q    Type
REMARK                         _______ _______ _______ _____ _____    ______ ____
ROOT
ATOM      1  C   UNL     1       2.604   4.775  20.427  0.00  0.00    +0.000 A 
ATOM      2  C   UNL     1       3.526   4.330  19.511  0.00  0.00    +0.000 A 
ATOM      3  C   UNL     1       3.872   5.246  18.553  0.00  0.00    +0.000 A 
ATOM      4  N   UNL     1       3.335   6.468  18.479  0.00  0.00    +0.000 NA
ATOM      5  C   UNL     1       2.452   6.801  19.410  0.00  0.00    +0.000 A 
ATOM      6  N   UNL     1       1.875   8.046  19.404  0.00  0.00    +0.000 N 
ATOM      7  C   UNL     1       1.870   8.911  18.355  0.00  0.00    +0.000 C 
ATOM      8  O   UNL     1       2.345   8.722  17.247  0.00  0.00    +0.000 OA
ATOM      9  N   UNL     1       1.227  10.128  18.558  0.00  0.00    +0.000 N 
ATOM     10  N   UNL     1       2.077   6.009  20.418  0.00  0.00    +0.000 NA
ATOM     11  H   UNL     1       1.372   8.246  20.252  0.00  0.00    +0.000 HD
ATOM     12  H   UNL     1       1.121  10.719  17.743  0.00  0.00    +0.000 HD
ENDROOT
BRANCH   9  13
ATOM     13  S   UNL     1       0.446  10.638  19.915  0.00  0.00    +0.000 S 
ATOM     14  O   UNL     1       0.151   9.482  20.735  0.00  0.00    +0.000 OA
ATOM     15  O   UNL     1       1.138  11.795  20.429  0.00  0.00    +0.000 OA
BRANCH  13  16
ATOM     16  C   UNL     1      -1.126  11.226  19.463  0.00  0.00    +0.000 A 
ATOM     17  N   UNL     1      -1.710  10.965  18.234  0.00  0.00    +0.000 NA
ATOM     18  C   UNL     1      -2.911  11.512  18.289  0.00  0.00    +0.000 A 
ATOM     19  C   UNL     1      -3.922  11.494  17.199  0.00  0.00    +0.000 C 
ATOM     20  N   UNL     1      -3.139  12.111  19.517  0.00  0.00    +0.000 N 
ATOM     21  C   UNL     1      -4.250  12.804  19.999  0.00  0.00    +0.000 A 
ATOM     22  C   UNL     1      -4.240  13.274  21.259  0.00  0.00    +0.000 A 
ATOM     23  C   UNL     1      -3.075  13.027  22.095  0.00  0.00    +0.000 A 
ATOM     24  C   UNL     1      -1.999  12.366  21.627  0.00  0.00    +0.000 A 
ATOM     25  C   UNL     1      -2.001  11.898  20.286  0.00  0.00    +0.000 A 
ENDBRANCH  13  16
ENDBRANCH   9  13
BRANCH   1  27
ATOM     26  C   UNL     1       1.257   2.925  20.933  0.00  0.00    +0.000 C 
ATOM     27  O   UNL     1       2.209   3.880  21.403  0.00  0.00    +0.000 OA
ENDBRANCH   1  27
BRANCH   3  28
ATOM     28  O   UNL     1       4.820   4.892  17.617  0.00  0.00    +0.000 OA
ATOM     29  C   UNL     1       6.079   4.577  18.227  0.00  0.00    +0.000 C 
ENDBRANCH   3  28
TORSDOF 4
ENDMDL
