MODEL 1
REMARK VINA RESULT:      -8.2      0.000      0.000
REMARK  Name = 
REMARK  4 active torsions:
REMARK  status: ('A' for Active; 'I' for Inactive)
REMARK    1  A    between atoms: C_1  and  C_2
REMARK    2  A    between atoms: C_2  and  C_3
REMARK    3  A    between atoms: C_2  and  N_4
REMARK    4  A    between atoms: N_12  and  C_13
REMARK                            x       y       z     vdW  Elec       q    Type
REMARK                         _______ _______ _______ _____ _____    ______ ____
ROOT
ATOM      1  N   UNL     1       6.762   5.444  16.952  0.00  0.00    +0.000 N 
ATOM      2  C   UNL     1       6.863   4.831  15.711  0.00  0.00    +0.000 A 
ATOM      3  O   UNL     1       7.812   4.897  14.944  0.00  0.00    +0.000 OA
ATOM      4  N   UNL     1       5.689   4.118  15.468  0.00  0.00    +0.000 NA
ATOM      5  C   UNL     1       4.927   4.429  16.467  0.00  0.00    +0.000 A 
ATOM      6  N   UNL     1       5.436   5.349  17.303  0.00  0.00    +0.000 N 
ATOM      7  C   UNL     1       4.887   5.163  18.544  0.00  0.00    +0.000 C 
ATOM      8  O   UNL     1       5.333   5.620  19.586  0.00  0.00    +0.000 OA
ATOM      9  N   UNL     1       3.772   4.291  18.370  0.00  0.00    +0.000 N 
ATOM     10  C   UNL     1       3.649   3.868  16.974  0.00  0.00    +0.000 C 
ENDROOT
BRANCH   9  11
ATOM     11  C   UNL     1       2.965   3.743  19.403  0.00  0.00    +0.000 A 
ATOM     12  C   UNL     1       1.588   4.005  19.482  0.00  0.00    +0.000 A 
ATOM     13  C   UNL     1       0.809   3.497  20.527  0.00  0.00    +0.000 A 
ATOM     14  C   UNL     1       1.400   2.714  21.502  0.00  0.00    +0.000 A 
ATOM     15  F   UNL     1       0.658   2.233  22.508  0.00  0.00    +0.000 F 
ATOM     16  C   UNL     1       2.755   2.425  21.450  0.00  0.00    +0.000 A 
ATOM     17  C   UNL     1       3.534   2.934  20.402  0.00  0.00    +0.000 A 
ENDBRANCH   9  11
BRANCH   1  19
ATOM     18  C   UNL     1       6.937   7.827  17.507  0.00  0.00    +0.000 C 
ATOM     19  C   UNL     1       7.614   6.457  17.550  0.00  0.00    +0.000 C 
ATOM     20  C   UNL     1       8.030   6.092  18.972  0.00  0.00    +0.000 C 
ENDBRANCH   1  19
TORSDOF 2
ENDMDL
MODEL 2
REMARK VINA RESULT:      -8.1      0.075      1.077
REMARK  Name = 
REMARK  4 active torsions:
REMARK  status: ('A' for Active; 'I' for Inactive)
REMARK    1  A    between atoms: C_1  and  C_2
REMARK    2  A    between atoms: C_2  and  C_3
REMARK    3  A    between atoms: C_2  and  N_4
REMARK    4  A    between atoms: N_12  and  C_13
REMARK                            x       y       z     vdW  Elec       q    Type
REMARK                         _______ _______ _______ _____ _____    ______ ____
ROOT
ATOM      1  N   UNL     1       6.772   5.427  16.949  0.00  0.00    +0.000 N 
ATOM      2  C   UNL     1       6.854   4.783  15.723  0.00  0.00    +0.000 A 
ATOM      3  O   UNL     1       7.793   4.827  14.943  0.00  0.00    +0.000 OA
ATOM      4  N   UNL     1       5.674   4.070  15.514  0.00  0.00    +0.000 NA
ATOM      5  C   UNL     1       4.926   4.408  16.515  0.00  0.00    +0.000 A 
ATOM      6  N   UNL     1       5.450   5.346  17.320  0.00  0.00    +0.000 N 
ATOM      7  C   UNL     1       4.916   5.193  18.573  0.00  0.00    +0.000 C 
ATOM      8  O   UNL     1       5.378   5.674  19.598  0.00  0.00    +0.000 OA
ATOM      9  N   UNL     1       3.796   4.322  18.435  0.00  0.00    +0.000 N 
ATOM     10  C   UNL     1       3.653   3.865  17.053  0.00  0.00    +0.000 C 
ENDROOT
BRANCH   9  11
ATOM     11  C   UNL     1       3.001   3.803  19.493  0.00  0.00    +0.000 A 
ATOM     12  C   UNL     1       3.533   2.932  20.457  0.00  0.00    +0.000 A 
ATOM     13  C   UNL     1       2.734   2.392  21.470  0.00  0.00    +0.000 A 
ATOM     14  C   UNL     1       1.391   2.723  21.532  0.00  0.00    +0.000 A 
ATOM     15  F   UNL     1       0.622   2.200  22.495  0.00  0.00    +0.000 F 
ATOM     16  C   UNL     1       0.835   3.589  20.603  0.00  0.00    +0.000 A 
ATOM     17  C   UNL     1       1.637   4.130  19.590  0.00  0.00    +0.000 A 
ENDBRANCH   9  11
BRANCH   1  19
ATOM     18  C   UNL     1       6.959   7.822  17.451  0.00  0.00    +0.000 C 
ATOM     19  C   UNL     1       7.635   6.451  17.511  0.00  0.00    +0.000 C 
ATOM     20  C   UNL     1       8.075   6.116  18.933  0.00  0.00    +0.000 C 
ENDBRANCH   1  19
TORSDOF 2
ENDMDL
MODEL 3
REMARK VINA RESULT:      -7.5      3.302      6.287
REMARK  Name = 
REMARK  4 active torsions:
REMARK  status: ('A' for Active; 'I' for Inactive)
REMARK    1  A    between atoms: C_1  and  C_2
REMARK    2  A    between atoms: C_2  and  C_3
REMARK    3  A    between atoms: C_2  and  N_4
REMARK    4  A    between atoms: N_12  and  C_13
REMARK                            x       y       z     vdW  Elec       q    Type
REMARK                         _______ _______ _______ _____ _____    ______ ____
ROOT
ATOM      1  N   UNL     1       1.722   3.314  19.322  0.00  0.00    +0.000 N 
ATOM      2  C   UNL     1       1.320   2.443  18.320  0.00  0.00    +0.000 A 
ATOM      3  O   UNL     1       0.238   1.883  18.237  0.00  0.00    +0.000 OA
ATOM      4  N   UNL     1       2.366   2.297  17.409  0.00  0.00    +0.000 NA
ATOM      5  C   UNL     1       3.342   2.953  17.950  0.00  0.00    +0.000 A 
ATOM      6  N   UNL     1       3.084   3.443  19.173  0.00  0.00    +0.000 N 
ATOM      7  C   UNL     1       3.869   4.548  19.377  0.00  0.00    +0.000 C 
ATOM      8  O   UNL     1       3.686   5.392  20.240  0.00  0.00    +0.000 OA
ATOM      9  N   UNL     1       4.861   4.536  18.352  0.00  0.00    +0.000 N 
ATOM     10  C   UNL     1       4.657   3.412  17.437  0.00  0.00    +0.000 C 
ENDROOT
BRANCH   9  11
ATOM     11  C   UNL     1       5.830   5.547  18.109  0.00  0.00    +0.000 A 
ATOM     12  C   UNL     1       7.041   5.593  18.817  0.00  0.00    +0.000 A 
ATOM     13  C   UNL     1       7.971   6.616  18.602  0.00  0.00    +0.000 A 
ATOM     14  C   UNL     1       7.698   7.603  17.671  0.00  0.00    +0.000 A 
ATOM     15  F   UNL     1       8.583   8.589  17.471  0.00  0.00    +0.000 F 
ATOM     16  C   UNL     1       6.517   7.583  16.946  0.00  0.00    +0.000 A 
ATOM     17  C   UNL     1       5.588   6.556  17.162  0.00  0.00    +0.000 A 
ENDBRANCH   9  11
BRANCH   1  19
ATOM     18  C   UNL     1       1.838   2.940  21.744  0.00  0.00    +0.000 C 
ATOM     19  C   UNL     1       1.086   3.611  20.593  0.00  0.00    +0.000 C 
ATOM     20  C   UNL     1       0.944   5.112  20.829  0.00  0.00    +0.000 C 
ENDBRANCH   1  19
TORSDOF 2
ENDMDL
MODEL 4
REMARK VINA RESULT:      -7.3      3.319      6.210
REMARK  Name = 
REMARK  4 active torsions:
REMARK  status: ('A' for Active; 'I' for Inactive)
REMARK    1  A    between atoms: C_1  and  C_2
REMARK    2  A    between atoms: C_2  and  C_3
REMARK    3  A    between atoms: C_2  and  N_4
REMARK    4  A    between atoms: N_12  and  C_13
REMARK                            x       y       z     vdW  Elec       q    Type
REMARK                         _______ _______ _______ _____ _____    ______ ____
ROOT
ATOM      1  N   UNL     1       1.702   3.288  19.311  0.00  0.00    +0.000 N 
ATOM      2  C   UNL     1       1.323   2.420  18.296  0.00  0.00    +0.000 A 
ATOM      3  O   UNL     1       0.252   1.841  18.201  0.00  0.00    +0.000 OA
ATOM      4  N   UNL     1       2.376   2.305  17.390  0.00  0.00    +0.000 NA
ATOM      5  C   UNL     1       3.336   2.974  17.944  0.00  0.00    +0.000 A 
ATOM      6  N   UNL     1       3.061   3.445  19.171  0.00  0.00    +0.000 N 
ATOM      7  C   UNL     1       3.824   4.562  19.392  0.00  0.00    +0.000 C 
ATOM      8  O   UNL     1       3.619   5.393  20.264  0.00  0.00    +0.000 OA
ATOM      9  N   UNL     1       4.822   4.581  18.373  0.00  0.00    +0.000 N 
ATOM     10  C   UNL     1       4.645   3.464  17.444  0.00  0.00    +0.000 C 
ENDROOT
BRANCH   9  11
ATOM     11  C   UNL     1       5.772   5.614  18.147  0.00  0.00    +0.000 A 
ATOM     12  C   UNL     1       5.540   6.640  17.217  0.00  0.00    +0.000 A 
ATOM     13  C   UNL     1       6.498   7.628  16.970  0.00  0.00    +0.000 A 
ATOM     14  C   UNL     1       7.699   7.604  17.657  0.00  0.00    +0.000 A 
ATOM     15  F   UNL     1       8.621   8.544  17.416  0.00  0.00    +0.000 F 
ATOM     16  C   UNL     1       7.957   6.613  18.592  0.00  0.00    +0.000 A 
ATOM     17  C   UNL     1       6.995   5.624  18.839  0.00  0.00    +0.000 A 
ENDBRANCH   9  11
BRANCH   1  19
ATOM     18  C   UNL     1       1.822   2.905  21.731  0.00  0.00    +0.000 C 
ATOM     19  C   UNL     1       1.053   3.558  20.581  0.00  0.00    +0.000 C 
ATOM     20  C   UNL     1       0.863   5.052  20.824  0.00  0.00    +0.000 C 
ENDBRANCH   1  19
TORSDOF 2
ENDMDL
MODEL 5
REMARK VINA RESULT:      -7.1      3.611      6.780
REMARK  Name = 
REMARK  4 active torsions:
REMARK  status: ('A' for Active; 'I' for Inactive)
REMARK    1  A    between atoms: C_1  and  C_2
REMARK    2  A    between atoms: C_2  and  C_3
REMARK    3  A    between atoms: C_2  and  N_4
REMARK    4  A    between atoms: N_12  and  C_13
REMARK                            x       y       z     vdW  Elec       q    Type
REMARK                         _______ _______ _______ _____ _____    ______ ____
ROOT
ATOM      1  N   UNL     1       3.032   3.268  19.277  0.00  0.00    +0.000 N 
ATOM      2  C   UNL     1       3.807   2.865  20.355  0.00  0.00    +0.000 A 
ATOM      3  O   UNL     1       3.403   2.346  21.384  0.00  0.00    +0.000 OA
ATOM      4  N   UNL     1       5.143   3.156  20.078  0.00  0.00    +0.000 NA
ATOM      5  C   UNL     1       5.093   3.805  18.959  0.00  0.00    +0.000 A 
ATOM      6  N   UNL     1       3.854   4.059  18.508  0.00  0.00    +0.000 N 
ATOM      7  C   UNL     1       3.902   4.178  17.144  0.00  0.00    +0.000 C 
ATOM      8  O   UNL     1       2.936   4.116  16.398  0.00  0.00    +0.000 OA
ATOM      9  N   UNL     1       5.278   4.305  16.794  0.00  0.00    +0.000 N 
ATOM     10  C   UNL     1       6.132   4.207  17.978  0.00  0.00    +0.000 C 
ENDROOT
BRANCH   9  11
ATOM     11  C   UNL     1       5.809   4.351  15.476  0.00  0.00    +0.000 A 
ATOM     12  C   UNL     1       5.214   3.649  14.416  0.00  0.00    +0.000 A 
ATOM     13  C   UNL     1       5.767   3.665  13.131  0.00  0.00    +0.000 A 
ATOM     14  C   UNL     1       6.921   4.390  12.893  0.00  0.00    +0.000 A 
ATOM     15  F   UNL     1       7.457   4.399  11.665  0.00  0.00    +0.000 F 
ATOM     16  C   UNL     1       7.529   5.104  13.913  0.00  0.00    +0.000 A 
ATOM     17  C   UNL     1       6.973   5.088  15.199  0.00  0.00    +0.000 A 
ENDBRANCH   9  11
BRANCH   1  19
ATOM     18  C   UNL     1       0.955   2.015  18.910  0.00  0.00    +0.000 C 
ATOM     19  C   UNL     1       1.588   3.382  19.173  0.00  0.00    +0.000 C 
ATOM     20  C   UNL     1       0.974   4.047  20.400  0.00  0.00    +0.000 C 
ENDBRANCH   1  19
TORSDOF 2
ENDMDL
MODEL 6
REMARK VINA RESULT:      -7.1      4.313      5.636
REMARK  Name = 
REMARK  4 active torsions:
REMARK  status: ('A' for Active; 'I' for Inactive)
REMARK    1  A    between atoms: C_1  and  C_2
REMARK    2  A    between atoms: C_2  and  C_3
REMARK    3  A    between atoms: C_2  and  N_4
REMARK    4  A    between atoms: N_12  and  C_13
REMARK                            x       y       z     vdW  Elec       q    Type
REMARK                         _______ _______ _______ _____ _____    ______ ____
ROOT
ATOM      1  N   UNL     1       3.298   4.102  18.768  0.00  0.00    +0.000 N 
ATOM      2  C   UNL     1       3.962   3.987  17.556  0.00  0.00    +0.000 A 
ATOM      3  O   UNL     1       4.346   2.951  17.034  0.00  0.00    +0.000 OA
ATOM      4  N   UNL     1       4.132   5.262  17.017  0.00  0.00    +0.000 NA
ATOM      5  C   UNL     1       3.699   6.051  17.947  0.00  0.00    +0.000 A 
ATOM      6  N   UNL     1       3.345   5.439  19.089  0.00  0.00    +0.000 N 
ATOM      7  C   UNL     1       2.401   6.204  19.721  0.00  0.00    +0.000 C 
ATOM      8  O   UNL     1       1.661   5.815  20.613  0.00  0.00    +0.000 OA
ATOM      9  N   UNL     1       2.416   7.479  19.082  0.00  0.00    +0.000 N 
ATOM     10  C   UNL     1       3.367   7.498  17.970  0.00  0.00    +0.000 C 
ENDROOT
BRANCH   9  11
ATOM     11  C   UNL     1       1.530   8.559  19.342  0.00  0.00    +0.000 A 
ATOM     12  C   UNL     1       1.070   8.842  20.638  0.00  0.00    +0.000 A 
ATOM     13  C   UNL     1       0.164   9.880  20.879  0.00  0.00    +0.000 A 
ATOM     14  C   UNL     1      -0.288  10.651  19.823  0.00  0.00    +0.000 A 
ATOM     15  F   UNL     1      -1.163  11.640  20.050  0.00  0.00    +0.000 F 
ATOM     16  C   UNL     1       0.153  10.408  18.531  0.00  0.00    +0.000 A 
ATOM     17  C   UNL     1       1.062   9.369  18.292  0.00  0.00    +0.000 A 
ENDBRANCH   9  11
BRANCH   1  19
ATOM     18  C   UNL     1       1.941   2.163  19.417  0.00  0.00    +0.000 C 
ATOM     19  C   UNL     1       3.086   3.102  19.800  0.00  0.00    +0.000 C 
ATOM     20  C   UNL     1       4.358   2.320  20.114  0.00  0.00    +0.000 C 
ENDBRANCH   1  19
TORSDOF 2
ENDMDL
MODEL 7
REMARK VINA RESULT:      -7.1      3.607      6.819
REMARK  Name = 
REMARK  4 active torsions:
REMARK  status: ('A' for Active; 'I' for Inactive)
REMARK    1  A    between atoms: C_1  and  C_2
REMARK    2  A    between atoms: C_2  and  C_3
REMARK    3  A    between atoms: C_2  and  N_4
REMARK    4  A    between atoms: N_12  and  C_13
REMARK                            x       y       z     vdW  Elec       q    Type
REMARK                         _______ _______ _______ _____ _____    ______ ____
ROOT
ATOM      1  N   UNL     1       3.004   3.273  19.276  0.00  0.00    +0.000 N 
ATOM      2  C   UNL     1       3.753   2.878  20.375  0.00  0.00    +0.000 A 
ATOM      3  O   UNL     1       3.324   2.369  21.400  0.00  0.00    +0.000 OA
ATOM      4  N   UNL     1       5.095   3.163  20.127  0.00  0.00    +0.000 NA
ATOM      5  C   UNL     1       5.073   3.801  19.001  0.00  0.00    +0.000 A 
ATOM      6  N   UNL     1       3.845   4.054  18.519  0.00  0.00    +0.000 N 
ATOM      7  C   UNL     1       3.925   4.160  17.155  0.00  0.00    +0.000 C 
ATOM      8  O   UNL     1       2.976   4.093  16.387  0.00  0.00    +0.000 OA
ATOM      9  N   UNL     1       5.310   4.281  16.836  0.00  0.00    +0.000 N 
ATOM     10  C   UNL     1       6.136   4.192  18.041  0.00  0.00    +0.000 C 
ENDROOT
BRANCH   9  11
ATOM     11  C   UNL     1       5.871   4.313  15.531  0.00  0.00    +0.000 A 
ATOM     12  C   UNL     1       6.998   5.094  15.231  0.00  0.00    +0.000 A 
ATOM     13  C   UNL     1       7.519   5.153  13.934  0.00  0.00    +0.000 A 
ATOM     14  C   UNL     1       6.918   4.425  12.922  0.00  0.00    +0.000 A 
ATOM     15  F   UNL     1       7.410   4.487  11.678  0.00  0.00    +0.000 F 
ATOM     16  C   UNL     1       5.811   3.634  13.184  0.00  0.00    +0.000 A 
ATOM     17  C   UNL     1       5.291   3.575  14.485  0.00  0.00    +0.000 A 
ENDBRANCH   9  11
BRANCH   1  19
ATOM     18  C   UNL     1       0.933   2.021  18.873  0.00  0.00    +0.000 C 
ATOM     19  C   UNL     1       1.563   3.389  19.137  0.00  0.00    +0.000 C 
ATOM     20  C   UNL     1       0.922   4.067  20.344  0.00  0.00    +0.000 C 
ENDBRANCH   1  19
TORSDOF 2
ENDMDL
MODEL 8
REMARK VINA RESULT:      -7.0      4.341      5.592
REMARK  Name = 
REMARK  4 active torsions:
REMARK  status: ('A' for Active; 'I' for Inactive)
REMARK    1  A    between atoms: C_1  and  C_2
REMARK    2  A    between atoms: C_2  and  C_3
REMARK    3  A    between atoms: C_2  and  N_4
REMARK    4  A    between atoms: N_12  and  C_13
REMARK                            x       y       z     vdW  Elec       q    Type
REMARK                         _______ _______ _______ _____ _____    ______ ____
ROOT
ATOM      1  N   UNL     1       3.310   4.154  18.709  0.00  0.00    +0.000 N 
ATOM      2  C   UNL     1       4.000   4.080  17.508  0.00  0.00    +0.000 A 
ATOM      3  O   UNL     1       4.402   3.062  16.965  0.00  0.00    +0.000 OA
ATOM      4  N   UNL     1       4.171   5.371  17.011  0.00  0.00    +0.000 NA
ATOM      5  C   UNL     1       3.713   6.130  17.954  0.00  0.00    +0.000 A 
ATOM      6  N   UNL     1       3.339   5.481  19.069  0.00  0.00    +0.000 N 
ATOM      7  C   UNL     1       2.376   6.222  19.704  0.00  0.00    +0.000 C 
ATOM      8  O   UNL     1       1.621   5.802  20.568  0.00  0.00    +0.000 OA
ATOM      9  N   UNL     1       2.396   7.515  19.103  0.00  0.00    +0.000 N 
ATOM     10  C   UNL     1       3.370   7.573  18.013  0.00  0.00    +0.000 C 
ENDROOT
BRANCH   9  11
ATOM     11  C   UNL     1       1.496   8.581  19.375  0.00  0.00    +0.000 A 
ATOM     12  C   UNL     1       1.015   9.419  18.357  0.00  0.00    +0.000 A 
ATOM     13  C   UNL     1       0.163  10.492  18.638  0.00  0.00    +0.000 A 
ATOM     14  C   UNL     1      -0.222  10.734  19.945  0.00  0.00    +0.000 A 
ATOM     15  F   UNL     1      -1.030  11.767  20.218  0.00  0.00    +0.000 F 
ATOM     16  C   UNL     1       0.224   9.920  20.975  0.00  0.00    +0.000 A 
ATOM     17  C   UNL     1       1.077   8.845  20.690  0.00  0.00    +0.000 A 
ENDBRANCH   9  11
BRANCH   1  19
ATOM     18  C   UNL     1       1.975   2.169  19.257  0.00  0.00    +0.000 C 
ATOM     19  C   UNL     1       3.083   3.123  19.707  0.00  0.00    +0.000 C 
ATOM     20  C   UNL     1       4.361   2.362  20.047  0.00  0.00    +0.000 C 
ENDBRANCH   1  19
TORSDOF 2
ENDMDL
MODEL 9
REMARK VINA RESULT:      -7.0      3.823      4.945
REMARK  Name = 
REMARK  4 active torsions:
REMARK  status: ('A' for Active; 'I' for Inactive)
REMARK    1  A    between atoms: C_1  and  C_2
REMARK    2  A    between atoms: C_2  and  C_3
REMARK    3  A    between atoms: C_2  and  N_4
REMARK    4  A    between atoms: N_12  and  C_13
REMARK                            x       y       z     vdW  Elec       q    Type
REMARK                         _______ _______ _______ _____ _____    ______ ____
ROOT
ATOM      1  N   UNL     1       4.223   3.870  17.307  0.00  0.00    +0.000 N 
ATOM      2  C   UNL     1       5.139   4.116  16.295  0.00  0.00    +0.000 A 
ATOM      3  O   UNL     1       5.678   3.279  15.586  0.00  0.00    +0.000 OA
ATOM      4  N   UNL     1       5.358   5.490  16.214  0.00  0.00    +0.000 NA
ATOM      5  C   UNL     1       4.695   5.969  17.217  0.00  0.00    +0.000 A 
ATOM      6  N   UNL     1       4.133   5.046  18.015  0.00  0.00    +0.000 N 
ATOM      7  C   UNL     1       3.037   5.602  18.621  0.00  0.00    +0.000 C 
ATOM      8  O   UNL     1       2.142   4.976  19.168  0.00  0.00    +0.000 OA
ATOM      9  N   UNL     1       3.128   7.010  18.414  0.00  0.00    +0.000 N 
ATOM     10  C   UNL     1       4.295   7.347  17.598  0.00  0.00    +0.000 C 
ENDROOT
BRANCH   9  11
ATOM     11  C   UNL     1       2.153   7.978  18.781  0.00  0.00    +0.000 A 
ATOM     12  C   UNL     1       1.585   8.848  17.837  0.00  0.00    +0.000 A 
ATOM     13  C   UNL     1       0.658   9.825  18.214  0.00  0.00    +0.000 A 
ATOM     14  C   UNL     1       0.286   9.939  19.542  0.00  0.00    +0.000 A 
ATOM     15  F   UNL     1      -0.595  10.880  19.906  0.00  0.00    +0.000 F 
ATOM     16  C   UNL     1       0.818   9.089  20.499  0.00  0.00    +0.000 A 
ATOM     17  C   UNL     1       1.745   8.109  20.119  0.00  0.00    +0.000 A 
ENDBRANCH   9  11
BRANCH   1  19
ATOM     18  C   UNL     1       4.214   2.593  19.402  0.00  0.00    +0.000 C 
ATOM     19  C   UNL     1       3.842   2.609  17.918  0.00  0.00    +0.000 C 
ATOM     20  C   UNL     1       2.362   2.297  17.718  0.00  0.00    +0.000 C 
ENDBRANCH   1  19
TORSDOF 2
ENDMDL
