MODEL 1
REMARK VINA RESULT:      -5.9      0.000      0.000
REMARK  Name = 
REMARK  3 active torsions:
REMARK  status: ('A' for Active; 'I' for Inactive)
REMARK    1  A    between atoms: C_1  and  C_2
REMARK    2  A    between atoms: C_4  and  C_5
REMARK    3  A    between atoms: C_7  and  C_8
REMARK                            x       y       z     vdW  Elec       q    Type
REMARK                         _______ _______ _______ _____ _____    ______ ____
ROOT
ATOM      1  C   UNL     1       5.575   5.898  15.858  0.00  0.00    +0.000 C 
ATOM      2  C   UNL     1       4.610   5.254  16.809  0.00  0.00    +0.000 A 
ATOM      3  C   UNL     1       3.958   6.101  17.800  0.00  0.00    +0.000 A 
ATOM      4  C   UNL     1       3.075   5.583  18.682  0.00  0.00    +0.000 A 
ATOM      5  C   UNL     1       2.418   6.476  19.685  0.00  0.00    +0.000 C 
ATOM      6  N   UNL     1       2.803   4.196  18.618  0.00  0.00    +0.000 N 
ATOM      7  C   UNL     1       1.983   3.332  19.334  0.00  0.00    +0.000 A 
ATOM      8  C   UNL     1       1.083   3.654  20.466  0.00  0.00    +0.000 C 
ATOM      9  N   UNL     1       2.108   2.108  18.855  0.00  0.00    +0.000 NA
ATOM     10  N   UNL     1       3.002   2.129  17.823  0.00  0.00    +0.000 NA
ATOM     11  C   UNL     1       3.417   3.364  17.679  0.00  0.00    +0.000 A 
ATOM     12  C   UNL     1       4.339   3.934  16.762  0.00  0.00    +0.000 A 
ENDROOT
TORSDOF 0
ENDMDL
MODEL 2
REMARK VINA RESULT:      -5.8      1.223      2.693
REMARK  Name = 
REMARK  3 active torsions:
REMARK  status: ('A' for Active; 'I' for Inactive)
REMARK    1  A    between atoms: C_1  and  C_2
REMARK    2  A    between atoms: C_4  and  C_5
REMARK    3  A    between atoms: C_7  and  C_8
REMARK                            x       y       z     vdW  Elec       q    Type
REMARK                         _______ _______ _______ _____ _____    ______ ____
ROOT
ATOM      1  C   UNL     1       5.504   5.662  15.758  0.00  0.00    +0.000 C 
ATOM      2  C   UNL     1       4.525   5.317  16.840  0.00  0.00    +0.000 A 
ATOM      3  C   UNL     1       4.037   3.946  16.910  0.00  0.00    +0.000 A 
ATOM      4  C   UNL     1       3.157   3.571  17.864  0.00  0.00    +0.000 A 
ATOM      5  C   UNL     1       2.676   2.156  17.915  0.00  0.00    +0.000 C 
ATOM      6  N   UNL     1       2.722   4.546  18.792  0.00  0.00    +0.000 N 
ATOM      7  C   UNL     1       1.853   4.537  19.878  0.00  0.00    +0.000 A 
ATOM      8  C   UNL     1       1.070   3.399  20.411  0.00  0.00    +0.000 C 
ATOM      9  N   UNL     1       1.805   5.743  20.412  0.00  0.00    +0.000 NA
ATOM     10  N   UNL     1       2.629   6.571  19.706  0.00  0.00    +0.000 NA
ATOM     11  C   UNL     1       3.175   5.867  18.744  0.00  0.00    +0.000 A 
ATOM     12  C   UNL     1       4.100   6.235  17.733  0.00  0.00    +0.000 A 
ENDROOT
TORSDOF 0
ENDMDL
MODEL 3
REMARK VINA RESULT:      -5.8      2.734      4.529
REMARK  Name = 
REMARK  3 active torsions:
REMARK  status: ('A' for Active; 'I' for Inactive)
REMARK    1  A    between atoms: C_1  and  C_2
REMARK    2  A    between atoms: C_4  and  C_5
REMARK    3  A    between atoms: C_7  and  C_8
REMARK                            x       y       z     vdW  Elec       q    Type
REMARK                         _______ _______ _______ _____ _____    ______ ____
ROOT
ATOM      1  C   UNL     1       2.532   2.342  17.675  0.00  0.00    +0.000 C 
ATOM      2  C   UNL     1       3.674   3.308  17.798  0.00  0.00    +0.000 A 
ATOM      3  C   UNL     1       4.033   4.095  16.626  0.00  0.00    +0.000 A 
ATOM      4  C   UNL     1       5.049   4.985  16.674  0.00  0.00    +0.000 A 
ATOM      5  C   UNL     1       5.394   5.783  15.456  0.00  0.00    +0.000 C 
ATOM      6  N   UNL     1       5.753   5.130  17.891  0.00  0.00    +0.000 N 
ATOM      7  C   UNL     1       6.819   5.917  18.311  0.00  0.00    +0.000 A 
ATOM      8  C   UNL     1       7.583   6.914  17.526  0.00  0.00    +0.000 C 
ATOM      9  N   UNL     1       7.089   5.654  19.576  0.00  0.00    +0.000 NA
ATOM     10  N   UNL     1       6.222   4.699  20.023  0.00  0.00    +0.000 NA
ATOM     11  C   UNL     1       5.427   4.385  19.028  0.00  0.00    +0.000 A 
ATOM     12  C   UNL     1       4.355   3.458  18.952  0.00  0.00    +0.000 A 
ENDROOT
TORSDOF 0
ENDMDL
MODEL 4
REMARK VINA RESULT:      -5.6      1.545      3.845
REMARK  Name = 
REMARK  3 active torsions:
REMARK  status: ('A' for Active; 'I' for Inactive)
REMARK    1  A    between atoms: C_1  and  C_2
REMARK    2  A    between atoms: C_4  and  C_5
REMARK    3  A    between atoms: C_7  and  C_8
REMARK                            x       y       z     vdW  Elec       q    Type
REMARK                         _______ _______ _______ _____ _____    ______ ____
ROOT
ATOM      1  C   UNL     1       1.454   2.574  21.630  0.00  0.00    +0.000 C 
ATOM      2  C   UNL     1       2.108   3.434  20.590  0.00  0.00    +0.000 A 
ATOM      3  C   UNL     1       1.903   4.875  20.667  0.00  0.00    +0.000 A 
ATOM      4  C   UNL     1       2.468   5.705  19.763  0.00  0.00    +0.000 A 
ATOM      5  C   UNL     1       2.244   7.180  19.868  0.00  0.00    +0.000 C 
ATOM      6  N   UNL     1       3.261   5.137  18.739  0.00  0.00    +0.000 N 
ATOM      7  C   UNL     1       3.980   5.651  17.666  0.00  0.00    +0.000 A 
ATOM      8  C   UNL     1       4.126   7.068  17.260  0.00  0.00    +0.000 C 
ATOM      9  N   UNL     1       4.554   4.662  17.006  0.00  0.00    +0.000 NA
ATOM     10  N   UNL     1       4.237   3.483  17.617  0.00  0.00    +0.000 NA
ATOM     11  C   UNL     1       3.471   3.759  18.644  0.00  0.00    +0.000 A 
ATOM     12  C   UNL     1       2.867   2.909  19.608  0.00  0.00    +0.000 A 
ENDROOT
TORSDOF 0
ENDMDL
MODEL 5
REMARK VINA RESULT:      -5.6      2.573      3.625
REMARK  Name = 
REMARK  3 active torsions:
REMARK  status: ('A' for Active; 'I' for Inactive)
REMARK    1  A    between atoms: C_1  and  C_2
REMARK    2  A    between atoms: C_4  and  C_5
REMARK    3  A    between atoms: C_7  and  C_8
REMARK                            x       y       z     vdW  Elec       q    Type
REMARK                         _______ _______ _______ _____ _____    ______ ____
ROOT
ATOM      1  C   UNL     1       6.791   4.291  13.753  0.00  0.00    +0.000 C 
ATOM      2  C   UNL     1       6.357   4.392  15.185  0.00  0.00    +0.000 A 
ATOM      3  C   UNL     1       4.957   4.135  15.495  0.00  0.00    +0.000 A 
ATOM      4  C   UNL     1       4.504   4.206  16.767  0.00  0.00    +0.000 A 
ATOM      5  C   UNL     1       3.063   3.934  17.057  0.00  0.00    +0.000 C 
ATOM      6  N   UNL     1       5.427   4.538  17.786  0.00  0.00    +0.000 N 
ATOM      7  C   UNL     1       5.337   4.700  19.164  0.00  0.00    +0.000 A 
ATOM      8  C   UNL     1       4.140   4.558  20.025  0.00  0.00    +0.000 C 
ATOM      9  N   UNL     1       6.524   5.018  19.648  0.00  0.00    +0.000 NA
ATOM     10  N   UNL     1       7.419   5.073  18.618  0.00  0.00    +0.000 NA
ATOM     11  C   UNL     1       6.773   4.789  17.513  0.00  0.00    +0.000 A 
ATOM     12  C   UNL     1       7.224   4.707  16.169  0.00  0.00    +0.000 A 
ENDROOT
TORSDOF 0
ENDMDL
MODEL 6
REMARK VINA RESULT:      -5.6      1.685      3.629
REMARK  Name = 
REMARK  3 active torsions:
REMARK  status: ('A' for Active; 'I' for Inactive)
REMARK    1  A    between atoms: C_1  and  C_2
REMARK    2  A    between atoms: C_4  and  C_5
REMARK    3  A    between atoms: C_7  and  C_8
REMARK                            x       y       z     vdW  Elec       q    Type
REMARK                         _______ _______ _______ _____ _____    ______ ____
ROOT
ATOM      1  C   UNL     1       1.458   7.759  20.818  0.00  0.00    +0.000 C 
ATOM      2  C   UNL     1       1.962   6.522  20.136  0.00  0.00    +0.000 A 
ATOM      3  C   UNL     1       1.521   5.231  20.648  0.00  0.00    +0.000 A 
ATOM      4  C   UNL     1       1.937   4.080  20.075  0.00  0.00    +0.000 A 
ATOM      5  C   UNL     1       1.466   2.768  20.618  0.00  0.00    +0.000 C 
ATOM      6  N   UNL     1       2.812   4.163  18.967  0.00  0.00    +0.000 N 
ATOM      7  C   UNL     1       3.430   3.229  18.143  0.00  0.00    +0.000 A 
ATOM      8  C   UNL     1       3.337   1.753  18.205  0.00  0.00    +0.000 C 
ATOM      9  N   UNL     1       4.162   3.856  17.240  0.00  0.00    +0.000 NA
ATOM     10  N   UNL     1       4.048   5.202  17.437  0.00  0.00    +0.000 NA
ATOM     11  C   UNL     1       3.248   5.389  18.460  0.00  0.00    +0.000 A 
ATOM     12  C   UNL     1       2.796   6.584  19.079  0.00  0.00    +0.000 A 
ENDROOT
TORSDOF 0
ENDMDL
MODEL 7
REMARK VINA RESULT:      -5.6      1.775      3.794
REMARK  Name = 
REMARK  3 active torsions:
REMARK  status: ('A' for Active; 'I' for Inactive)
REMARK    1  A    between atoms: C_1  and  C_2
REMARK    2  A    between atoms: C_4  and  C_5
REMARK    3  A    between atoms: C_7  and  C_8
REMARK                            x       y       z     vdW  Elec       q    Type
REMARK                         _______ _______ _______ _____ _____    ______ ____
ROOT
ATOM      1  C   UNL     1       0.787   2.479  18.759  0.00  0.00    +0.000 C 
ATOM      2  C   UNL     1       1.895   3.353  18.252  0.00  0.00    +0.000 A 
ATOM      3  C   UNL     1       1.809   4.785  18.510  0.00  0.00    +0.000 A 
ATOM      4  C   UNL     1       2.778   5.625  18.082  0.00  0.00    +0.000 A 
ATOM      5  C   UNL     1       2.666   7.090  18.364  0.00  0.00    +0.000 C 
ATOM      6  N   UNL     1       3.875   5.077  17.378  0.00  0.00    +0.000 N 
ATOM      7  C   UNL     1       5.025   5.606  16.803  0.00  0.00    +0.000 A 
ATOM      8  C   UNL     1       5.458   7.022  16.764  0.00  0.00    +0.000 C 
ATOM      9  N   UNL     1       5.732   4.634  16.257  0.00  0.00    +0.000 NA
ATOM     10  N   UNL     1       5.079   3.451  16.454  0.00  0.00    +0.000 NA
ATOM     11  C   UNL     1       3.978   3.708  17.118  0.00  0.00    +0.000 A 
ATOM     12  C   UNL     1       2.948   2.847  17.579  0.00  0.00    +0.000 A 
ENDROOT
TORSDOF 0
ENDMDL
MODEL 8
REMARK VINA RESULT:      -5.5      1.783      1.859
REMARK  Name = 
REMARK  3 active torsions:
REMARK  status: ('A' for Active; 'I' for Inactive)
REMARK    1  A    between atoms: C_1  and  C_2
REMARK    2  A    between atoms: C_4  and  C_5
REMARK    3  A    between atoms: C_7  and  C_8
REMARK                            x       y       z     vdW  Elec       q    Type
REMARK                         _______ _______ _______ _____ _____    ______ ____
ROOT
ATOM      1  C   UNL     1       7.292   6.614  17.202  0.00  0.00    +0.000 C 
ATOM      2  C   UNL     1       6.104   5.944  17.826  0.00  0.00    +0.000 A 
ATOM      3  C   UNL     1       4.812   6.613  17.728  0.00  0.00    +0.000 A 
ATOM      4  C   UNL     1       3.703   6.059  18.266  0.00  0.00    +0.000 A 
ATOM      5  C   UNL     1       2.390   6.765  18.147  0.00  0.00    +0.000 C 
ATOM      6  N   UNL     1       3.831   4.816  18.927  0.00  0.00    +0.000 N 
ATOM      7  C   UNL     1       2.946   3.966  19.582  0.00  0.00    +0.000 A 
ATOM      8  C   UNL     1       1.490   4.146  19.787  0.00  0.00    +0.000 C 
ATOM      9  N   UNL     1       3.599   2.910  20.030  0.00  0.00    +0.000 NA
ATOM     10  N   UNL     1       4.915   3.030  19.689  0.00  0.00    +0.000 NA
ATOM     11  C   UNL     1       5.058   4.157  19.035  0.00  0.00    +0.000 A 
ATOM     12  C   UNL     1       6.208   4.759  18.460  0.00  0.00    +0.000 A 
ENDROOT
TORSDOF 0
ENDMDL
MODEL 9
REMARK VINA RESULT:      -5.5      1.652      1.690
REMARK  Name = 
REMARK  3 active torsions:
REMARK  status: ('A' for Active; 'I' for Inactive)
REMARK    1  A    between atoms: C_1  and  C_2
REMARK    2  A    between atoms: C_4  and  C_5
REMARK    3  A    between atoms: C_7  and  C_8
REMARK                            x       y       z     vdW  Elec       q    Type
REMARK                         _______ _______ _______ _____ _____    ______ ____
ROOT
ATOM      1  C   UNL     1       5.089   6.764  16.905  0.00  0.00    +0.000 C 
ATOM      2  C   UNL     1       4.524   5.835  17.939  0.00  0.00    +0.000 A 
ATOM      3  C   UNL     1       3.370   6.286  18.705  0.00  0.00    +0.000 A 
ATOM      4  C   UNL     1       2.812   5.495  19.649  0.00  0.00    +0.000 A 
ATOM      5  C   UNL     1       1.625   5.982  20.418  0.00  0.00    +0.000 C 
ATOM      6  N   UNL     1       3.380   4.219  19.871  0.00  0.00    +0.000 N 
ATOM      7  C   UNL     1       3.092   3.161  20.726  0.00  0.00    +0.000 A 
ATOM      8  C   UNL     1       2.011   3.070  21.735  0.00  0.00    +0.000 C 
ATOM      9  N   UNL     1       3.954   2.182  20.521  0.00  0.00    +0.000 NA
ATOM     10  N   UNL     1       4.823   2.559  19.538  0.00  0.00    +0.000 NA
ATOM     11  C   UNL     1       4.487   3.766  19.149  0.00  0.00    +0.000 A 
ATOM     12  C   UNL     1       5.054   4.616  18.163  0.00  0.00    +0.000 A 
ENDROOT
TORSDOF 0
ENDMDL
