MODEL 1
REMARK VINA RESULT:      -7.2      0.000      0.000
REMARK  Name = 
REMARK  5 active torsions:
REMARK  status: ('A' for Active; 'I' for Inactive)
REMARK    1  A    between atoms: C_1  and  C_2
REMARK    2  A    between atoms: C_5  and  C_6
REMARK    3  A    between atoms: C_7  and  C_8
REMARK    4  A    between atoms: C_8  and  O_9
REMARK    5  A    between atoms: O_9  and  C_10
REMARK                            x       y       z     vdW  Elec       q    Type
REMARK                         _______ _______ _______ _____ _____    ______ ____
ROOT
ATOM      1  C   UNL     1       4.165   4.419  16.971  0.00  0.00    +0.000 C 
ENDROOT
BRANCH   1   8
ATOM      2  C   UNL     1       6.275   5.246  19.310  0.00  0.00    +0.000 C 
ATOM      3  C   UNL     1       6.566   4.875  17.905  0.00  0.00    +0.000 A 
ATOM      4  N   UNL     1       7.830   4.843  17.466  0.00  0.00    +0.000 NA
ATOM      5  O   UNL     1       7.757   4.470  16.138  0.00  0.00    +0.000 OA
ATOM      6  C   UNL     1       6.459   4.279  15.789  0.00  0.00    +0.000 A 
ATOM      7  C   UNL     1       6.207   3.875  14.393  0.00  0.00    +0.000 C 
ATOM      8  C   UNL     1       5.649   4.520  16.878  0.00  0.00    +0.000 A 
ENDBRANCH   1   8
BRANCH   1   9
ATOM      9  O   UNL     1       3.794   3.149  17.513  0.00  0.00    +0.000 OA
BRANCH   9  10
ATOM     10  C   UNL     1       2.907   3.182  18.592  0.00  0.00    +0.000 A 
ATOM     11  C   UNL     1       3.513   2.809  19.806  0.00  0.00    +0.000 A 
ATOM     12  C   UNL     1       2.775   2.771  20.986  0.00  0.00    +0.000 A 
ATOM     13  C   UNL     1       1.427   3.102  20.968  0.00  0.00    +0.000 A 
ATOM     14  C   UNL     1       0.835   3.476  19.765  0.00  0.00    +0.000 A 
ATOM     15  N   UNL     1       1.548   3.528  18.572  0.00  0.00    +0.000 N 
ATOM     16  O   UNL     1       0.932   3.887  17.518  0.00  0.00    +0.000 OA
ENDBRANCH   9  10
ENDBRANCH   1   9
TORSDOF 3
ENDMDL
MODEL 2
REMARK VINA RESULT:      -7.2      1.667      2.871
REMARK  Name = 
REMARK  5 active torsions:
REMARK  status: ('A' for Active; 'I' for Inactive)
REMARK    1  A    between atoms: C_1  and  C_2
REMARK    2  A    between atoms: C_5  and  C_6
REMARK    3  A    between atoms: C_7  and  C_8
REMARK    4  A    between atoms: C_8  and  O_9
REMARK    5  A    between atoms: O_9  and  C_10
REMARK                            x       y       z     vdW  Elec       q    Type
REMARK                         _______ _______ _______ _____ _____    ______ ____
ROOT
ATOM      1  C   UNL     1       4.443   4.226  16.308  0.00  0.00    +0.000 C 
ENDROOT
BRANCH   1   8
ATOM      2  C   UNL     1       6.075   3.795  13.523  0.00  0.00    +0.000 C 
ATOM      3  C   UNL     1       6.449   4.642  14.680  0.00  0.00    +0.000 A 
ATOM      4  N   UNL     1       7.578   5.359  14.652  0.00  0.00    +0.000 NA
ATOM      5  O   UNL     1       7.632   6.024  15.861  0.00  0.00    +0.000 OA
ATOM      6  C   UNL     1       6.541   5.706  16.605  0.00  0.00    +0.000 A 
ATOM      7  C   UNL     1       6.446   6.337  17.934  0.00  0.00    +0.000 C 
ATOM      8  C   UNL     1       5.744   4.829  15.901  0.00  0.00    +0.000 A 
ENDBRANCH   1   8
BRANCH   1   9
ATOM      9  O   UNL     1       4.649   3.278  17.357  0.00  0.00    +0.000 OA
BRANCH   9  10
ATOM     10  C   UNL     1       3.670   3.249  18.354  0.00  0.00    +0.000 A 
ATOM     11  C   UNL     1       2.441   3.782  17.925  0.00  0.00    +0.000 A 
ATOM     12  C   UNL     1       1.353   3.846  18.793  0.00  0.00    +0.000 A 
ATOM     13  C   UNL     1       1.480   3.381  20.094  0.00  0.00    +0.000 A 
ATOM     14  C   UNL     1       2.697   2.849  20.511  0.00  0.00    +0.000 A 
ATOM     15  N   UNL     1       3.799   2.767  19.665  0.00  0.00    +0.000 N 
ATOM     16  O   UNL     1       4.873   2.261  20.123  0.00  0.00    +0.000 OA
ENDBRANCH   9  10
ENDBRANCH   1   9
TORSDOF 3
ENDMDL
MODEL 3
REMARK VINA RESULT:      -7.1      1.637      2.729
REMARK  Name = 
REMARK  5 active torsions:
REMARK  status: ('A' for Active; 'I' for Inactive)
REMARK    1  A    between atoms: C_1  and  C_2
REMARK    2  A    between atoms: C_5  and  C_6
REMARK    3  A    between atoms: C_7  and  C_8
REMARK    4  A    between atoms: C_8  and  O_9
REMARK    5  A    between atoms: O_9  and  C_10
REMARK                            x       y       z     vdW  Elec       q    Type
REMARK                         _______ _______ _______ _____ _____    ______ ____
ROOT
ATOM      1  C   UNL     1       4.757   3.822  16.768  0.00  0.00    +0.000 C 
ENDROOT
BRANCH   1   8
ATOM      2  C   UNL     1       5.890   3.822  13.716  0.00  0.00    +0.000 C 
ATOM      3  C   UNL     1       6.397   4.588  14.879  0.00  0.00    +0.000 A 
ATOM      4  N   UNL     1       7.442   5.412  14.739  0.00  0.00    +0.000 NA
ATOM      5  O   UNL     1       7.659   5.960  15.987  0.00  0.00    +0.000 OA
ATOM      6  C   UNL     1       6.748   5.467  16.866  0.00  0.00    +0.000 A 
ATOM      7  C   UNL     1       6.844   5.956  18.254  0.00  0.00    +0.000 C 
ATOM      8  C   UNL     1       5.911   4.586  16.216  0.00  0.00    +0.000 A 
ENDBRANCH   1   8
BRANCH   1   9
ATOM      9  O   UNL     1       3.679   4.711  17.069  0.00  0.00    +0.000 OA
BRANCH   9  10
ATOM     10  C   UNL     1       2.862   4.340  18.139  0.00  0.00    +0.000 A 
ATOM     11  C   UNL     1       1.970   3.303  17.810  0.00  0.00    +0.000 A 
ATOM     12  C   UNL     1       1.070   2.814  18.753  0.00  0.00    +0.000 A 
ATOM     13  C   UNL     1       1.048   3.354  20.031  0.00  0.00    +0.000 A 
ATOM     14  C   UNL     1       1.936   4.376  20.353  0.00  0.00    +0.000 A 
ATOM     15  N   UNL     1       2.850   4.881  19.434  0.00  0.00    +0.000 N 
ATOM     16  O   UNL     1       3.632   5.812  19.812  0.00  0.00    +0.000 OA
ENDBRANCH   9  10
ENDBRANCH   1   9
TORSDOF 3
ENDMDL
MODEL 4
REMARK VINA RESULT:      -7.0      1.456      2.492
REMARK  Name = 
REMARK  5 active torsions:
REMARK  status: ('A' for Active; 'I' for Inactive)
REMARK    1  A    between atoms: C_1  and  C_2
REMARK    2  A    between atoms: C_5  and  C_6
REMARK    3  A    between atoms: C_7  and  C_8
REMARK    4  A    between atoms: C_8  and  O_9
REMARK    5  A    between atoms: O_9  and  C_10
REMARK                            x       y       z     vdW  Elec       q    Type
REMARK                         _______ _______ _______ _____ _____    ______ ____
ROOT
ATOM      1  C   UNL     1       4.779   3.806  16.941  0.00  0.00    +0.000 C 
ENDROOT
BRANCH   1   8
ATOM      2  C   UNL     1       5.865   3.884  13.873  0.00  0.00    +0.000 C 
ATOM      3  C   UNL     1       6.384   4.627  15.045  0.00  0.00    +0.000 A 
ATOM      4  N   UNL     1       7.421   5.461  14.908  0.00  0.00    +0.000 NA
ATOM      5  O   UNL     1       7.654   5.982  16.166  0.00  0.00    +0.000 OA
ATOM      6  C   UNL     1       6.760   5.462  17.047  0.00  0.00    +0.000 A 
ATOM      7  C   UNL     1       6.874   5.919  18.444  0.00  0.00    +0.000 C 
ATOM      8  C   UNL     1       5.919   4.591  16.389  0.00  0.00    +0.000 A 
ENDBRANCH   1   8
BRANCH   1   9
ATOM      9  O   UNL     1       3.623   4.638  17.059  0.00  0.00    +0.000 OA
BRANCH   9  10
ATOM     10  C   UNL     1       2.783   4.365  18.142  0.00  0.00    +0.000 A 
ATOM     11  C   UNL     1       2.782   5.393  19.103  0.00  0.00    +0.000 A 
ATOM     12  C   UNL     1       2.011   5.285  20.257  0.00  0.00    +0.000 A 
ATOM     13  C   UNL     1       1.237   4.153  20.467  0.00  0.00    +0.000 A 
ATOM     14  C   UNL     1       1.237   3.142  19.511  0.00  0.00    +0.000 A 
ATOM     15  N   UNL     1       1.992   3.224  18.345  0.00  0.00    +0.000 N 
ATOM     16  O   UNL     1       1.930   2.258  17.519  0.00  0.00    +0.000 OA
ENDBRANCH   9  10
ENDBRANCH   1   9
TORSDOF 3
ENDMDL
MODEL 5
REMARK VINA RESULT:      -7.0      1.475      1.731
REMARK  Name = 
REMARK  5 active torsions:
REMARK  status: ('A' for Active; 'I' for Inactive)
REMARK    1  A    between atoms: C_1  and  C_2
REMARK    2  A    between atoms: C_5  and  C_6
REMARK    3  A    between atoms: C_7  and  C_8
REMARK    4  A    between atoms: C_8  and  O_9
REMARK    5  A    between atoms: O_9  and  C_10
REMARK                            x       y       z     vdW  Elec       q    Type
REMARK                         _______ _______ _______ _____ _____    ______ ____
ROOT
ATOM      1  C   UNL     1       4.700   3.756  16.959  0.00  0.00    +0.000 C 
ENDROOT
BRANCH   1   8
ATOM      2  C   UNL     1       6.655   5.829  18.534  0.00  0.00    +0.000 C 
ATOM      3  C   UNL     1       6.684   5.455  17.100  0.00  0.00    +0.000 A 
ATOM      4  N   UNL     1       7.604   5.985  16.285  0.00  0.00    +0.000 NA
ATOM      5  O   UNL     1       7.359   5.442  15.039  0.00  0.00    +0.000 OA
ATOM      6  C   UNL     1       6.301   4.593  15.111  0.00  0.00    +0.000 A 
ATOM      7  C   UNL     1       5.908   3.925  13.857  0.00  0.00    +0.000 C 
ATOM      8  C   UNL     1       5.828   4.556  16.406  0.00  0.00    +0.000 A 
ENDBRANCH   1   8
BRANCH   1   9
ATOM      9  O   UNL     1       3.549   4.585  17.133  0.00  0.00    +0.000 OA
BRANCH   9  10
ATOM     10  C   UNL     1       2.718   4.258  18.207  0.00  0.00    +0.000 A 
ATOM     11  C   UNL     1       1.918   3.129  17.953  0.00  0.00    +0.000 A 
ATOM     12  C   UNL     1       1.018   2.667  18.909  0.00  0.00    +0.000 A 
ATOM     13  C   UNL     1       0.903   3.326  20.125  0.00  0.00    +0.000 A 
ATOM     14  C   UNL     1       1.701   4.439  20.373  0.00  0.00    +0.000 A 
ATOM     15  N   UNL     1       2.613   4.921  19.440  0.00  0.00    +0.000 N 
ATOM     16  O   UNL     1       3.309   5.940  19.748  0.00  0.00    +0.000 OA
ENDBRANCH   9  10
ENDBRANCH   1   9
TORSDOF 3
ENDMDL
MODEL 6
REMARK VINA RESULT:      -7.0      1.171      2.287
REMARK  Name = 
REMARK  5 active torsions:
REMARK  status: ('A' for Active; 'I' for Inactive)
REMARK    1  A    between atoms: C_1  and  C_2
REMARK    2  A    between atoms: C_5  and  C_6
REMARK    3  A    between atoms: C_7  and  C_8
REMARK    4  A    between atoms: C_8  and  O_9
REMARK    5  A    between atoms: O_9  and  C_10
REMARK                            x       y       z     vdW  Elec       q    Type
REMARK                         _______ _______ _______ _____ _____    ______ ____
ROOT
ATOM      1  C   UNL     1       4.730   3.824  16.580  0.00  0.00    +0.000 C 
ENDROOT
BRANCH   1   8
ATOM      2  C   UNL     1       6.072   3.856  13.614  0.00  0.00    +0.000 C 
ATOM      3  C   UNL     1       6.485   4.624  14.812  0.00  0.00    +0.000 A 
ATOM      4  N   UNL     1       7.524   5.465  14.747  0.00  0.00    +0.000 NA
ATOM      5  O   UNL     1       7.645   6.011  16.009  0.00  0.00    +0.000 OA
ATOM      6  C   UNL     1       6.684   5.500  16.821  0.00  0.00    +0.000 A 
ATOM      7  C   UNL     1       6.675   5.984  18.214  0.00  0.00    +0.000 C 
ATOM      8  C   UNL     1       5.907   4.609  16.111  0.00  0.00    +0.000 A 
ENDBRANCH   1   8
BRANCH   1   9
ATOM      9  O   UNL     1       3.859   4.659  17.346  0.00  0.00    +0.000 OA
BRANCH   9  10
ATOM     10  C   UNL     1       3.045   4.003  18.274  0.00  0.00    +0.000 A 
ATOM     11  C   UNL     1       3.757   3.551  19.400  0.00  0.00    +0.000 A 
ATOM     12  C   UNL     1       3.108   2.864  20.422  0.00  0.00    +0.000 A 
ATOM     13  C   UNL     1       1.746   2.617  20.331  0.00  0.00    +0.000 A 
ATOM     14  C   UNL     1       1.045   3.071  19.217  0.00  0.00    +0.000 A 
ATOM     15  N   UNL     1       1.665   3.766  18.183  0.00  0.00    +0.000 N 
ATOM     16  O   UNL     1       0.951   4.152  17.204  0.00  0.00    +0.000 OA
ENDBRANCH   9  10
ENDBRANCH   1   9
TORSDOF 3
ENDMDL
MODEL 7
REMARK VINA RESULT:      -6.9      1.353      1.476
REMARK  Name = 
REMARK  5 active torsions:
REMARK  status: ('A' for Active; 'I' for Inactive)
REMARK    1  A    between atoms: C_1  and  C_2
REMARK    2  A    between atoms: C_5  and  C_6
REMARK    3  A    between atoms: C_7  and  C_8
REMARK    4  A    between atoms: C_8  and  O_9
REMARK    5  A    between atoms: O_9  and  C_10
REMARK                            x       y       z     vdW  Elec       q    Type
REMARK                         _______ _______ _______ _____ _____    ______ ____
ROOT
ATOM      1  C   UNL     1       4.763   3.727  17.050  0.00  0.00    +0.000 C 
ENDROOT
BRANCH   1   8
ATOM      2  C   UNL     1       6.679   5.809  18.661  0.00  0.00    +0.000 C 
ATOM      3  C   UNL     1       6.699   5.479  17.216  0.00  0.00    +0.000 A 
ATOM      4  N   UNL     1       7.592   6.059  16.405  0.00  0.00    +0.000 NA
ATOM      5  O   UNL     1       7.346   5.546  15.147  0.00  0.00    +0.000 OA
ATOM      6  C   UNL     1       6.314   4.665  15.208  0.00  0.00    +0.000 A 
ATOM      7  C   UNL     1       5.923   4.024  13.939  0.00  0.00    +0.000 C 
ATOM      8  C   UNL     1       5.860   4.576  16.506  0.00  0.00    +0.000 A 
ENDBRANCH   1   8
BRANCH   1   9
ATOM      9  O   UNL     1       3.523   4.437  17.000  0.00  0.00    +0.000 OA
BRANCH   9  10
ATOM     10  C   UNL     1       2.728   4.359  18.146  0.00  0.00    +0.000 A 
ATOM     11  C   UNL     1       2.874   5.476  18.988  0.00  0.00    +0.000 A 
ATOM     12  C   UNL     1       2.166   5.562  20.184  0.00  0.00    +0.000 A 
ATOM     13  C   UNL     1       1.309   4.535  20.554  0.00  0.00    +0.000 A 
ATOM     14  C   UNL     1       1.164   3.435  19.714  0.00  0.00    +0.000 A 
ATOM     15  N   UNL     1       1.853   3.324  18.511  0.00  0.00    +0.000 N 
ATOM     16  O   UNL     1       1.659   2.287  17.799  0.00  0.00    +0.000 OA
ENDBRANCH   9  10
ENDBRANCH   1   9
TORSDOF 3
ENDMDL
MODEL 8
REMARK VINA RESULT:      -6.9      1.764      2.455
REMARK  Name = 
REMARK  5 active torsions:
REMARK  status: ('A' for Active; 'I' for Inactive)
REMARK    1  A    between atoms: C_1  and  C_2
REMARK    2  A    between atoms: C_5  and  C_6
REMARK    3  A    between atoms: C_7  and  C_8
REMARK    4  A    between atoms: C_8  and  O_9
REMARK    5  A    between atoms: O_9  and  C_10
REMARK                            x       y       z     vdW  Elec       q    Type
REMARK                         _______ _______ _______ _____ _____    ______ ____
ROOT
ATOM      1  C   UNL     1       5.176   5.532  18.396  0.00  0.00    +0.000 C 
ENDROOT
BRANCH   1   8
ATOM      2  C   UNL     1       5.434   3.641  15.758  0.00  0.00    +0.000 C 
ATOM      3  C   UNL     1       6.258   4.817  16.124  0.00  0.00    +0.000 A 
ATOM      4  N   UNL     1       7.246   5.224  15.318  0.00  0.00    +0.000 NA
ATOM      5  O   UNL     1       7.809   6.322  15.938  0.00  0.00    +0.000 OA
ATOM      6  C   UNL     1       7.160   6.569  17.105  0.00  0.00    +0.000 A 
ATOM      7  C   UNL     1       7.643   7.717  17.895  0.00  0.00    +0.000 C 
ATOM      8  C   UNL     1       6.154   5.642  17.278  0.00  0.00    +0.000 A 
ENDBRANCH   1   8
BRANCH   1   9
ATOM      9  O   UNL     1       3.842   5.630  17.892  0.00  0.00    +0.000 OA
BRANCH   9  10
ATOM     10  C   UNL     1       2.866   4.933  18.608  0.00  0.00    +0.000 A 
ATOM     11  C   UNL     1       2.713   5.407  19.924  0.00  0.00    +0.000 A 
ATOM     12  C   UNL     1       1.792   4.821  20.788  0.00  0.00    +0.000 A 
ATOM     13  C   UNL     1       1.017   3.756  20.351  0.00  0.00    +0.000 A 
ATOM     14  C   UNL     1       1.167   3.295  19.046  0.00  0.00    +0.000 A 
ATOM     15  N   UNL     1       2.075   3.865  18.159  0.00  0.00    +0.000 N 
ATOM     16  O   UNL     1       2.146   3.388  16.981  0.00  0.00    +0.000 OA
ENDBRANCH   9  10
ENDBRANCH   1   9
TORSDOF 3
ENDMDL
MODEL 9
REMARK VINA RESULT:      -6.9      1.830      2.385
REMARK  Name = 
REMARK  5 active torsions:
REMARK  status: ('A' for Active; 'I' for Inactive)
REMARK    1  A    between atoms: C_1  and  C_2
REMARK    2  A    between atoms: C_5  and  C_6
REMARK    3  A    between atoms: C_7  and  C_8
REMARK    4  A    between atoms: C_8  and  O_9
REMARK    5  A    between atoms: O_9  and  C_10
REMARK                            x       y       z     vdW  Elec       q    Type
REMARK                         _______ _______ _______ _____ _____    ______ ____
ROOT
ATOM      1  C   UNL     1       3.492   3.715  16.881  0.00  0.00    +0.000 C 
ENDROOT
BRANCH   1   8
ATOM      2  C   UNL     1       3.428   6.674  18.239  0.00  0.00    +0.000 C 
ATOM      3  C   UNL     1       4.400   6.140  17.256  0.00  0.00    +0.000 A 
ATOM      4  N   UNL     1       5.413   6.903  16.830  0.00  0.00    +0.000 NA
ATOM      5  O   UNL     1       6.120   6.123  15.935  0.00  0.00    +0.000 OA
ATOM      6  C   UNL     1       5.532   4.904  15.830  0.00  0.00    +0.000 A 
ATOM      7  C   UNL     1       6.169   3.945  14.908  0.00  0.00    +0.000 C 
ATOM      8  C   UNL     1       4.429   4.852  16.655  0.00  0.00    +0.000 A 
ENDBRANCH   1   8
BRANCH   1   9
ATOM      9  O   UNL     1       3.974   2.886  17.940  0.00  0.00    +0.000 OA
BRANCH   9  10
ATOM     10  C   UNL     1       3.216   2.892  19.114  0.00  0.00    +0.000 A 
ATOM     11  C   UNL     1       1.906   3.362  18.914  0.00  0.00    +0.000 A 
ATOM     12  C   UNL     1       1.012   3.449  19.978  0.00  0.00    +0.000 A 
ATOM     13  C   UNL     1       1.415   3.071  21.250  0.00  0.00    +0.000 A 
ATOM     14  C   UNL     1       2.712   2.602  21.442  0.00  0.00    +0.000 A 
ATOM     15  N   UNL     1       3.624   2.498  20.397  0.00  0.00    +0.000 N 
ATOM     16  O   UNL     1       4.788   2.053  20.656  0.00  0.00    +0.000 OA
ENDBRANCH   9  10
ENDBRANCH   1   9
TORSDOF 3
ENDMDL
