MODEL 1
REMARK VINA RESULT:      -8.6      0.000      0.000
REMARK  Name = 
REMARK  9 active torsions:
REMARK  status: ('A' for Active; 'I' for Inactive)
REMARK    1  A    between atoms: C_1  and  C_2
REMARK    2  A    between atoms: C_5  and  C_6
REMARK    3  A    between atoms: C_6  and  C_7
REMARK    4  A    between atoms: C_7  and  N_8
REMARK    5  A    between atoms: C_9  and  C_11
REMARK    6  A    between atoms: N_13  and  C_14
REMARK    7  A    between atoms: C_18  and  S_19
REMARK    8  A    between atoms: S_19  and  N_22
REMARK    9  A    between atoms: C_25  and  C_26
REMARK                            x       y       z     vdW  Elec       q    Type
REMARK                         _______ _______ _______ _____ _____    ______ ____
ROOT
ATOM      1  C   UNL     1       0.148  10.082  19.030  0.00  0.00    +0.000 A 
ATOM      2  C   UNL     1      -0.166   9.784  20.296  0.00  0.00    +0.000 A 
ATOM      3  N   UNL     1       0.419   8.806  21.077  0.00  0.00    +0.000 N 
ATOM      4  C   UNL     1      -0.134   8.464  22.390  0.00  0.00    +0.000 C 
ATOM      5  C   UNL     1       1.352   7.928  20.482  0.00  0.00    +0.000 A 
ATOM      6  C   UNL     1       1.863   6.804  21.145  0.00  0.00    +0.000 A 
ATOM      7  C   UNL     1       2.694   5.894  20.492  0.00  0.00    +0.000 A 
ATOM      8  C   UNL     1       3.072   6.115  19.168  0.00  0.00    +0.000 A 
ATOM      9  C   UNL     1       2.645   7.257  18.493  0.00  0.00    +0.000 A 
ATOM     10  C   UNL     1       1.777   8.145  19.152  0.00  0.00    +0.000 A 
ATOM     11  C   UNL     1       1.249   9.317  18.402  0.00  0.00    +0.000 A 
ATOM     12  O   UNL     1       1.701   9.614  17.298  0.00  0.00    +0.000 OA
ENDROOT
BRANCH   1  14
ATOM     13  N   UNL     1      -1.592  10.684  17.483  0.00  0.00    +0.000 N 
ATOM     14  C   UNL     1      -0.648  11.142  18.367  0.00  0.00    +0.000 C 
ATOM     15  O   UNL     1      -0.451  12.335  18.594  0.00  0.00    +0.000 OA
ATOM     16  H   UNL     1      -1.785   9.681  17.456  0.00  0.00    +0.000 HD
BRANCH  13  17
ATOM     17  C   UNL     1      -2.463  11.587  16.772  0.00  0.00    +0.000 C 
BRANCH  17  18
ATOM     18  C   UNL     1      -3.889  11.048  16.643  0.00  0.00    +0.000 C 
BRANCH  18  23
ATOM     19  C   UNL     1      -6.933  12.242  21.437  0.00  0.00    +0.000 C 
ATOM     20  C   UNL     1      -6.143  11.948  20.199  0.00  0.00    +0.000 A 
ATOM     21  C   UNL     1      -4.866  12.488  20.017  0.00  0.00    +0.000 A 
ATOM     22  C   UNL     1      -4.145  12.207  18.860  0.00  0.00    +0.000 A 
ATOM     23  C   UNL     1      -4.692  11.384  17.867  0.00  0.00    +0.000 A 
ATOM     24  C   UNL     1      -5.964  10.837  18.050  0.00  0.00    +0.000 A 
ATOM     25  C   UNL     1      -6.685  11.119  19.208  0.00  0.00    +0.000 A 
ENDBRANCH  18  23
ENDBRANCH  17  18
ENDBRANCH  13  17
ENDBRANCH   1  14
BRANCH   8  26
ATOM     26  S   UNL     1       4.027   4.853  18.354  0.00  0.00    +0.000 S 
ATOM     27  O   UNL     1       4.491   3.976  19.405  0.00  0.00    +0.000 OA
ATOM     28  O   UNL     1       3.251   4.363  17.234  0.00  0.00    +0.000 OA
BRANCH  26  29
ATOM     29  N   UNL     1       5.334   5.754  17.760  0.00  0.00    +0.000 NA
ATOM     30  C   UNL     1       5.121   6.651  16.614  0.00  0.00    +0.000 C 
ATOM     31  C   UNL     1       5.296   5.887  15.307  0.00  0.00    +0.000 C 
ATOM     32  C   UNL     1       6.609   5.088  15.234  0.00  0.00    +0.000 C 
ATOM     33  C   UNL     1       6.540   4.081  14.079  0.00  0.00    +0.000 C 
ATOM     34  C   UNL     1       6.962   4.358  16.542  0.00  0.00    +0.000 C 
ATOM     35  C   UNL     1       6.684   5.170  17.798  0.00  0.00    +0.000 C 
ENDBRANCH  26  29
ENDBRANCH   8  26
TORSDOF 6
ENDMDL
MODEL 2
REMARK VINA RESULT:      -8.6      2.977      4.395
REMARK  Name = 
REMARK  9 active torsions:
REMARK  status: ('A' for Active; 'I' for Inactive)
REMARK    1  A    between atoms: C_1  and  C_2
REMARK    2  A    between atoms: C_5  and  C_6
REMARK    3  A    between atoms: C_6  and  C_7
REMARK    4  A    between atoms: C_7  and  N_8
REMARK    5  A    between atoms: C_9  and  C_11
REMARK    6  A    between atoms: N_13  and  C_14
REMARK    7  A    between atoms: C_18  and  S_19
REMARK    8  A    between atoms: S_19  and  N_22
REMARK    9  A    between atoms: C_25  and  C_26
REMARK                            x       y       z     vdW  Elec       q    Type
REMARK                         _______ _______ _______ _____ _____    ______ ____
ROOT
ATOM      1  C   UNL     1       1.163   8.877  20.914  0.00  0.00    +0.000 A 
ATOM      2  C   UNL     1       1.225   9.696  19.858  0.00  0.00    +0.000 A 
ATOM      3  N   UNL     1       1.761   9.398  18.620  0.00  0.00    +0.000 N 
ATOM      4  C   UNL     1       1.924  10.439  17.603  0.00  0.00    +0.000 C 
ATOM      5  C   UNL     1       2.434   8.168  18.449  0.00  0.00    +0.000 A 
ATOM      6  C   UNL     1       3.154   7.855  17.288  0.00  0.00    +0.000 A 
ATOM      7  C   UNL     1       3.902   6.681  17.195  0.00  0.00    +0.000 A 
ATOM      8  C   UNL     1       3.906   5.766  18.248  0.00  0.00    +0.000 A 
ATOM      9  C   UNL     1       3.145   6.003  19.392  0.00  0.00    +0.000 A 
ATOM     10  C   UNL     1       2.428   7.209  19.487  0.00  0.00    +0.000 A 
ATOM     11  C   UNL     1       1.689   7.504  20.744  0.00  0.00    +0.000 A 
ATOM     12  O   UNL     1       1.547   6.640  21.608  0.00  0.00    +0.000 OA
ENDROOT
BRANCH   1  14
ATOM     13  N   UNL     1      -0.652   9.999  22.023  0.00  0.00    +0.000 N 
ATOM     14  C   UNL     1       0.587   9.427  22.164  0.00  0.00    +0.000 C 
ATOM     15  O   UNL     1       1.195   9.377  23.233  0.00  0.00    +0.000 OA
ATOM     16  H   UNL     1      -1.145   9.875  21.137  0.00  0.00    +0.000 HD
BRANCH  13  17
ATOM     17  C   UNL     1      -1.358  10.561  23.148  0.00  0.00    +0.000 C 
BRANCH  17  18
ATOM     18  C   UNL     1      -1.524  12.079  23.039  0.00  0.00    +0.000 C 
BRANCH  18  23
ATOM     19  C   UNL     1      -7.176  13.365  22.777  0.00  0.00    +0.000 C 
ATOM     20  C   UNL     1      -5.716  13.042  22.857  0.00  0.00    +0.000 A 
ATOM     21  C   UNL     1      -5.095  12.822  24.090  0.00  0.00    +0.000 A 
ATOM     22  C   UNL     1      -3.737  12.524  24.147  0.00  0.00    +0.000 A 
ATOM     23  C   UNL     1      -2.979  12.446  22.972  0.00  0.00    +0.000 A 
ATOM     24  C   UNL     1      -3.598  12.657  21.738  0.00  0.00    +0.000 A 
ATOM     25  C   UNL     1      -4.958  12.955  21.681  0.00  0.00    +0.000 A 
ENDBRANCH  18  23
ENDBRANCH  17  18
ENDBRANCH  13  17
ENDBRANCH   1  14
BRANCH   8  26
ATOM     26  S   UNL     1       4.979   4.353  18.119  0.00  0.00    +0.000 S 
ATOM     27  O   UNL     1       5.830   4.612  16.980  0.00  0.00    +0.000 OA
ATOM     28  O   UNL     1       5.520   4.086  19.434  0.00  0.00    +0.000 OA
BRANCH  26  29
ATOM     29  N   UNL     1       3.874   3.130  17.724  0.00  0.00    +0.000 NA
ATOM     30  C   UNL     1       2.636   3.488  17.014  0.00  0.00    +0.000 C 
ATOM     31  C   UNL     1       1.553   3.885  18.011  0.00  0.00    +0.000 C 
ATOM     32  C   UNL     1       1.348   2.856  19.136  0.00  0.00    +0.000 C 
ATOM     33  C   UNL     1       0.529   3.484  20.270  0.00  0.00    +0.000 C 
ATOM     34  C   UNL     1       2.661   2.284  19.698  0.00  0.00    +0.000 C 
ATOM     35  C   UNL     1       3.710   1.987  18.637  0.00  0.00    +0.000 C 
ENDBRANCH  26  29
ENDBRANCH   8  26
TORSDOF 6
ENDMDL
MODEL 3
REMARK VINA RESULT:      -8.5      3.637     11.115
REMARK  Name = 
REMARK  9 active torsions:
REMARK  status: ('A' for Active; 'I' for Inactive)
REMARK    1  A    between atoms: C_1  and  C_2
REMARK    2  A    between atoms: C_5  and  C_6
REMARK    3  A    between atoms: C_6  and  C_7
REMARK    4  A    between atoms: C_7  and  N_8
REMARK    5  A    between atoms: C_9  and  C_11
REMARK    6  A    between atoms: N_13  and  C_14
REMARK    7  A    between atoms: C_18  and  S_19
REMARK    8  A    between atoms: S_19  and  N_22
REMARK    9  A    between atoms: C_25  and  C_26
REMARK                            x       y       z     vdW  Elec       q    Type
REMARK                         _______ _______ _______ _____ _____    ______ ____
ROOT
ATOM      1  C   UNL     1       1.206  10.037  19.381  0.00  0.00    +0.000 A 
ATOM      2  C   UNL     1       1.633  11.172  18.816  0.00  0.00    +0.000 A 
ATOM      3  N   UNL     1       1.350  12.456  19.241  0.00  0.00    +0.000 N 
ATOM      4  C   UNL     1       1.736  13.616  18.434  0.00  0.00    +0.000 C 
ATOM      5  C   UNL     1       0.419  12.636  20.288  0.00  0.00    +0.000 A 
ATOM      6  C   UNL     1      -0.060  13.897  20.666  0.00  0.00    +0.000 A 
ATOM      7  C   UNL     1      -1.063  14.033  21.626  0.00  0.00    +0.000 A 
ATOM      8  C   UNL     1      -1.578  12.905  22.266  0.00  0.00    +0.000 A 
ATOM      9  C   UNL     1      -1.080  11.637  21.973  0.00  0.00    +0.000 A 
ATOM     10  C   UNL     1      -0.097  11.513  20.975  0.00  0.00    +0.000 A 
ATOM     11  C   UNL     1       0.371  10.153  20.597  0.00  0.00    +0.000 A 
ATOM     12  O   UNL     1       0.051   9.169  21.263  0.00  0.00    +0.000 OA
ENDROOT
BRANCH   1  14
ATOM     13  N   UNL     1       1.988   7.772  19.584  0.00  0.00    +0.000 N 
ATOM     14  C   UNL     1       1.596   8.767  18.724  0.00  0.00    +0.000 C 
ATOM     15  O   UNL     1       1.577   8.639  17.501  0.00  0.00    +0.000 OA
ATOM     16  H   UNL     1       1.842   7.911  20.585  0.00  0.00    +0.000 HD
BRANCH  13  17
ATOM     17  C   UNL     1       2.377   6.469  19.105  0.00  0.00    +0.000 C 
BRANCH  17  18
ATOM     18  C   UNL     1       3.892   6.253  19.156  0.00  0.00    +0.000 C 
BRANCH  18  23
ATOM     19  C   UNL     1       5.948   4.165  14.147  0.00  0.00    +0.000 C 
ATOM     20  C   UNL     1       5.407   4.692  15.440  0.00  0.00    +0.000 A 
ATOM     21  C   UNL     1       5.013   3.824  16.462  0.00  0.00    +0.000 A 
ATOM     22  C   UNL     1       4.511   4.330  17.658  0.00  0.00    +0.000 A 
ATOM     23  C   UNL     1       4.391   5.713  17.846  0.00  0.00    +0.000 A 
ATOM     24  C   UNL     1       4.791   6.583  16.830  0.00  0.00    +0.000 A 
ATOM     25  C   UNL     1       5.294   6.076  15.634  0.00  0.00    +0.000 A 
ENDBRANCH  18  23
ENDBRANCH  17  18
ENDBRANCH  13  17
ENDBRANCH   1  14
BRANCH   8  26
ATOM     26  S   UNL     1      -2.942  13.134  23.385  0.00  0.00    +0.000 S 
ATOM     27  O   UNL     1      -3.378  11.804  23.748  0.00  0.00    +0.000 OA
ATOM     28  O   UNL     1      -2.541  14.106  24.380  0.00  0.00    +0.000 OA
BRANCH  26  29
ATOM     29  N   UNL     1      -4.096  13.841  22.365  0.00  0.00    +0.000 NA
ATOM     30  C   UNL     1      -4.590  15.192  22.674  0.00  0.00    +0.000 C 
ATOM     31  C   UNL     1      -5.766  15.115  23.641  0.00  0.00    +0.000 C 
ATOM     32  C   UNL     1      -6.868  14.139  23.191  0.00  0.00    +0.000 C 
ATOM     33  C   UNL     1      -7.813  13.847  24.363  0.00  0.00    +0.000 C 
ATOM     34  C   UNL     1      -6.327  12.818  22.616  0.00  0.00    +0.000 C 
ATOM     35  C   UNL     1      -5.107  12.986  21.722  0.00  0.00    +0.000 C 
ENDBRANCH  26  29
ENDBRANCH   8  26
TORSDOF 6
ENDMDL
MODEL 4
REMARK VINA RESULT:      -8.4      4.125     10.471
REMARK  Name = 
REMARK  9 active torsions:
REMARK  status: ('A' for Active; 'I' for Inactive)
REMARK    1  A    between atoms: C_1  and  C_2
REMARK    2  A    between atoms: C_5  and  C_6
REMARK    3  A    between atoms: C_6  and  C_7
REMARK    4  A    between atoms: C_7  and  N_8
REMARK    5  A    between atoms: C_9  and  C_11
REMARK    6  A    between atoms: N_13  and  C_14
REMARK    7  A    between atoms: C_18  and  S_19
REMARK    8  A    between atoms: S_19  and  N_22
REMARK    9  A    between atoms: C_25  and  C_26
REMARK                            x       y       z     vdW  Elec       q    Type
REMARK                         _______ _______ _______ _____ _____    ______ ____
ROOT
ATOM      1  C   UNL     1       0.414  11.080  19.613  0.00  0.00    +0.000 A 
ATOM      2  C   UNL     1       1.197  12.165  19.602  0.00  0.00    +0.000 A 
ATOM      3  N   UNL     1       1.159  13.213  20.503  0.00  0.00    +0.000 N 
ATOM      4  C   UNL     1       1.952  14.424  20.280  0.00  0.00    +0.000 C 
ATOM      5  C   UNL     1       0.125  13.244  21.465  0.00  0.00    +0.000 A 
ATOM      6  C   UNL     1      -0.096  14.347  22.302  0.00  0.00    +0.000 A 
ATOM      7  C   UNL     1      -1.193  14.394  23.162  0.00  0.00    +0.000 A 
ATOM      8  C   UNL     1      -2.071  13.313  23.238  0.00  0.00    +0.000 A 
ATOM      9  C   UNL     1      -1.848  12.167  22.478  0.00  0.00    +0.000 A 
ATOM     10  C   UNL     1      -0.760  12.150  21.587  0.00  0.00    +0.000 A 
ATOM     11  C   UNL     1      -0.574  10.963  20.709  0.00  0.00    +0.000 A 
ATOM     12  O   UNL     1      -1.235   9.941  20.882  0.00  0.00    +0.000 OA
ENDROOT
BRANCH   1  14
ATOM     13  N   UNL     1       1.828   9.492  18.489  0.00  0.00    +0.000 N 
ATOM     14  C   UNL     1       0.599  10.102  18.515  0.00  0.00    +0.000 C 
ATOM     15  O   UNL     1      -0.288   9.880  17.692  0.00  0.00    +0.000 OA
ATOM     16  H   UNL     1       2.454   9.628  19.285  0.00  0.00    +0.000 HD
BRANCH  13  17
ATOM     17  C   UNL     1       2.158   8.500  17.496  0.00  0.00    +0.000 C 
BRANCH  17  18
ATOM     18  C   UNL     1       3.240   7.528  17.975  0.00  0.00    +0.000 C 
BRANCH  18  23
ATOM     19  C   UNL     1       0.963   2.880  20.597  0.00  0.00    +0.000 C 
ATOM     20  C   UNL     1       1.541   4.089  19.929  0.00  0.00    +0.000 A 
ATOM     21  C   UNL     1       1.829   5.245  20.659  0.00  0.00    +0.000 A 
ATOM     22  C   UNL     1       2.366   6.361  20.023  0.00  0.00    +0.000 A 
ATOM     23  C   UNL     1       2.618   6.337  18.645  0.00  0.00    +0.000 A 
ATOM     24  C   UNL     1       2.339   5.181  17.914  0.00  0.00    +0.000 A 
ATOM     25  C   UNL     1       1.802   4.064  18.552  0.00  0.00    +0.000 A 
ENDBRANCH  18  23
ENDBRANCH  17  18
ENDBRANCH  13  17
ENDBRANCH   1  14
BRANCH   8  26
ATOM     26  S   UNL     1      -3.519  13.488  24.257  0.00  0.00    +0.000 S 
ATOM     27  O   UNL     1      -4.009  12.145  24.474  0.00  0.00    +0.000 OA
ATOM     28  O   UNL     1      -3.183  14.367  25.357  0.00  0.00    +0.000 OA
BRANCH  26  29
ATOM     29  N   UNL     1      -4.570  14.302  23.207  0.00  0.00    +0.000 NA
ATOM     30  C   UNL     1      -5.826  14.853  23.740  0.00  0.00    +0.000 C 
ATOM     31  C   UNL     1      -6.921  13.792  23.712  0.00  0.00    +0.000 C 
ATOM     32  C   UNL     1      -7.075  13.106  22.343  0.00  0.00    +0.000 C 
ATOM     33  C   UNL     1      -7.916  11.832  22.493  0.00  0.00    +0.000 C 
ATOM     34  C   UNL     1      -5.735  12.769  21.666  0.00  0.00    +0.000 C 
ATOM     35  C   UNL     1      -4.679  13.855  21.810  0.00  0.00    +0.000 C 
ENDBRANCH  26  29
ENDBRANCH   8  26
TORSDOF 6
ENDMDL
MODEL 5
REMARK VINA RESULT:      -8.4      4.006     11.062
REMARK  Name = 
REMARK  9 active torsions:
REMARK  status: ('A' for Active; 'I' for Inactive)
REMARK    1  A    between atoms: C_1  and  C_2
REMARK    2  A    between atoms: C_5  and  C_6
REMARK    3  A    between atoms: C_6  and  C_7
REMARK    4  A    between atoms: C_7  and  N_8
REMARK    5  A    between atoms: C_9  and  C_11
REMARK    6  A    between atoms: N_13  and  C_14
REMARK    7  A    between atoms: C_18  and  S_19
REMARK    8  A    between atoms: S_19  and  N_22
REMARK    9  A    between atoms: C_25  and  C_26
REMARK                            x       y       z     vdW  Elec       q    Type
REMARK                         _______ _______ _______ _____ _____    ______ ____
ROOT
ATOM      1  C   UNL     1       0.631  10.999  19.614  0.00  0.00    +0.000 A 
ATOM      2  C   UNL     1       1.319  12.141  19.500  0.00  0.00    +0.000 A 
ATOM      3  N   UNL     1       1.212  13.248  20.320  0.00  0.00    +0.000 N 
ATOM      4  C   UNL     1       1.895  14.499  19.984  0.00  0.00    +0.000 C 
ATOM      5  C   UNL     1       0.201  13.268  21.306  0.00  0.00    +0.000 A 
ATOM      6  C   UNL     1      -0.094  14.409  22.063  0.00  0.00    +0.000 A 
ATOM      7  C   UNL     1      -1.172  14.432  22.948  0.00  0.00    +0.000 A 
ATOM      8  C   UNL     1      -1.954  13.291  23.131  0.00  0.00    +0.000 A 
ATOM      9  C   UNL     1      -1.651  12.112  22.452  0.00  0.00    +0.000 A 
ATOM     10  C   UNL     1      -0.586  12.116  21.535  0.00  0.00    +0.000 A 
ATOM     11  C   UNL     1      -0.319  10.885  20.743  0.00  0.00    +0.000 A 
ATOM     12  O   UNL     1      -0.888   9.828  21.012  0.00  0.00    +0.000 OA
ENDROOT
BRANCH   1  14
ATOM     13  N   UNL     1       2.116   9.378  18.639  0.00  0.00    +0.000 N 
ATOM     14  C   UNL     1       0.874   9.957  18.588  0.00  0.00    +0.000 C 
ATOM     15  O   UNL     1       0.020   9.661  17.753  0.00  0.00    +0.000 OA
ATOM     16  H   UNL     1       2.712   9.579  19.444  0.00  0.00    +0.000 HD
BRANCH  13  17
ATOM     17  C   UNL     1       2.501   8.332  17.723  0.00  0.00    +0.000 C 
BRANCH  17  18
ATOM     18  C   UNL     1       2.918   7.046  18.442  0.00  0.00    +0.000 C 
BRANCH  18  23
ATOM     19  C   UNL     1       6.234   3.701  15.053  0.00  0.00    +0.000 C 
ATOM     20  C   UNL     1       5.366   4.555  15.924  0.00  0.00    +0.000 A 
ATOM     21  C   UNL     1       4.349   3.992  16.700  0.00  0.00    +0.000 A 
ATOM     22  C   UNL     1       3.550   4.801  17.503  0.00  0.00    +0.000 A 
ATOM     23  C   UNL     1       3.754   6.186  17.538  0.00  0.00    +0.000 A 
ATOM     24  C   UNL     1       4.774   6.751  16.770  0.00  0.00    +0.000 A 
ATOM     25  C   UNL     1       5.574   5.941  15.967  0.00  0.00    +0.000 A 
ENDBRANCH  18  23
ENDBRANCH  17  18
ENDBRANCH  13  17
ENDBRANCH   1  14
BRANCH   8  26
ATOM     26  S   UNL     1      -3.388  13.423  24.175  0.00  0.00    +0.000 S 
ATOM     27  O   UNL     1      -3.858  12.070  24.367  0.00  0.00    +0.000 OA
ATOM     28  O   UNL     1      -3.047  14.281  25.290  0.00  0.00    +0.000 OA
BRANCH  26  29
ATOM     29  N   UNL     1      -4.465  14.248  23.160  0.00  0.00    +0.000 NA
ATOM     30  C   UNL     1      -5.676  14.850  23.741  0.00  0.00    +0.000 C 
ATOM     31  C   UNL     1      -6.802  13.824  23.791  0.00  0.00    +0.000 C 
ATOM     32  C   UNL     1      -7.046  13.115  22.447  0.00  0.00    +0.000 C 
ATOM     33  C   UNL     1      -7.917  11.871  22.668  0.00  0.00    +0.000 C 
ATOM     34  C   UNL     1      -5.752  12.721  21.713  0.00  0.00    +0.000 C 
ATOM     35  C   UNL     1      -4.658  13.776  21.780  0.00  0.00    +0.000 C 
ENDBRANCH  26  29
ENDBRANCH   8  26
TORSDOF 6
ENDMDL
MODEL 6
REMARK VINA RESULT:      -8.4      4.056     10.633
REMARK  Name = 
REMARK  9 active torsions:
REMARK  status: ('A' for Active; 'I' for Inactive)
REMARK    1  A    between atoms: C_1  and  C_2
REMARK    2  A    between atoms: C_5  and  C_6
REMARK    3  A    between atoms: C_6  and  C_7
REMARK    4  A    between atoms: C_7  and  N_8
REMARK    5  A    between atoms: C_9  and  C_11
REMARK    6  A    between atoms: N_13  and  C_14
REMARK    7  A    between atoms: C_18  and  S_19
REMARK    8  A    between atoms: S_19  and  N_22
REMARK    9  A    between atoms: C_25  and  C_26
REMARK                            x       y       z     vdW  Elec       q    Type
REMARK                         _______ _______ _______ _____ _____    ______ ____
ROOT
ATOM      1  C   UNL     1       0.056  10.466  18.357  0.00  0.00    +0.000 A 
ATOM      2  C   UNL     1      -0.898  10.204  17.456  0.00  0.00    +0.000 A 
ATOM      3  N   UNL     1      -2.198  10.672  17.478  0.00  0.00    +0.000 N 
ATOM      4  C   UNL     1      -3.192  10.171  16.526  0.00  0.00    +0.000 C 
ATOM      5  C   UNL     1      -2.641  11.392  18.610  0.00  0.00    +0.000 A 
ATOM      6  C   UNL     1      -3.982  11.753  18.798  0.00  0.00    +0.000 A 
ATOM      7  C   UNL     1      -4.409  12.363  19.978  0.00  0.00    +0.000 A 
ATOM      8  C   UNL     1      -3.488  12.670  20.981  0.00  0.00    +0.000 A 
ATOM      9  C   UNL     1      -2.134  12.394  20.805  0.00  0.00    +0.000 A 
ATOM     10  C   UNL     1      -1.726  11.744  19.627  0.00  0.00    +0.000 A 
ATOM     11  C   UNL     1      -0.294  11.368  19.477  0.00  0.00    +0.000 A 
ATOM     12  O   UNL     1       0.551  11.777  20.272  0.00  0.00    +0.000 OA
ENDROOT
BRANCH   1  14
ATOM     13  N   UNL     1       1.439   8.511  18.585  0.00  0.00    +0.000 N 
ATOM     14  C   UNL     1       1.372   9.814  18.158  0.00  0.00    +0.000 C 
ATOM     15  O   UNL     1       2.323  10.416  17.661  0.00  0.00    +0.000 OA
ATOM     16  H   UNL     1       0.572   8.045  18.856  0.00  0.00    +0.000 HD
BRANCH  13  17
ATOM     17  C   UNL     1       2.643   7.731  18.442  0.00  0.00    +0.000 C 
BRANCH  17  18
ATOM     18  C   UNL     1       2.385   6.365  17.802  0.00  0.00    +0.000 C 
BRANCH  18  23
ATOM     19  C   UNL     1       1.361   2.345  21.860  0.00  0.00    +0.000 C 
ATOM     20  C   UNL     1       1.621   3.393  20.823  0.00  0.00    +0.000 A 
ATOM     21  C   UNL     1       2.180   4.626  21.170  0.00  0.00    +0.000 A 
ATOM     22  C   UNL     1       2.414   5.590  20.194  0.00  0.00    +0.000 A 
ATOM     23  C   UNL     1       2.087   5.337  18.856  0.00  0.00    +0.000 A 
ATOM     24  C   UNL     1       1.535   4.104  18.504  0.00  0.00    +0.000 A 
ATOM     25  C   UNL     1       1.302   3.139  19.481  0.00  0.00    +0.000 A 
ENDBRANCH  18  23
ENDBRANCH  17  18
ENDBRANCH  13  17
ENDBRANCH   1  14
BRANCH   8  26
ATOM     26  S   UNL     1      -4.114  13.329  22.511  0.00  0.00    +0.000 S 
ATOM     27  O   UNL     1      -5.371  13.961  22.178  0.00  0.00    +0.000 OA
ATOM     28  O   UNL     1      -4.022  12.288  23.512  0.00  0.00    +0.000 OA
BRANCH  26  29
ATOM     29  N   UNL     1      -2.963  14.523  22.856  0.00  0.00    +0.000 NA
ATOM     30  C   UNL     1      -2.407  14.607  24.215  0.00  0.00    +0.000 C 
ATOM     31  C   UNL     1      -3.298  15.477  25.096  0.00  0.00    +0.000 C 
ATOM     32  C   UNL     1      -3.627  16.845  24.474  0.00  0.00    +0.000 C 
ATOM     33  C   UNL     1      -4.795  17.491  25.231  0.00  0.00    +0.000 C 
ATOM     34  C   UNL     1      -3.953  16.779  22.972  0.00  0.00    +0.000 C 
ATOM     35  C   UNL     1      -3.060  15.830  22.187  0.00  0.00    +0.000 C 
ENDBRANCH  26  29
ENDBRANCH   8  26
TORSDOF 6
ENDMDL
MODEL 7
REMARK VINA RESULT:      -8.3      2.992      4.249
REMARK  Name = 
REMARK  9 active torsions:
REMARK  status: ('A' for Active; 'I' for Inactive)
REMARK    1  A    between atoms: C_1  and  C_2
REMARK    2  A    between atoms: C_5  and  C_6
REMARK    3  A    between atoms: C_6  and  C_7
REMARK    4  A    between atoms: C_7  and  N_8
REMARK    5  A    between atoms: C_9  and  C_11
REMARK    6  A    between atoms: N_13  and  C_14
REMARK    7  A    between atoms: C_18  and  S_19
REMARK    8  A    between atoms: S_19  and  N_22
REMARK    9  A    between atoms: C_25  and  C_26
REMARK                            x       y       z     vdW  Elec       q    Type
REMARK                         _______ _______ _______ _____ _____    ______ ____
ROOT
ATOM      1  C   UNL     1      -0.423  11.038  21.504  0.00  0.00    +0.000 A 
ATOM      2  C   UNL     1      -0.079  11.744  20.420  0.00  0.00    +0.000 A 
ATOM      3  N   UNL     1       0.580  11.264  19.305  0.00  0.00    +0.000 N 
ATOM      4  C   UNL     1       1.052  12.178  18.262  0.00  0.00    +0.000 C 
ATOM      5  C   UNL     1       1.072   9.940  19.323  0.00  0.00    +0.000 A 
ATOM      6  C   UNL     1       1.899   9.427  18.315  0.00  0.00    +0.000 A 
ATOM      7  C   UNL     1       2.461   8.154  18.418  0.00  0.00    +0.000 A 
ATOM      8  C   UNL     1       2.167   7.345  19.516  0.00  0.00    +0.000 A 
ATOM      9  C   UNL     1       1.292   7.788  20.505  0.00  0.00    +0.000 A 
ATOM     10  C   UNL     1       0.765   9.087  20.407  0.00  0.00    +0.000 A 
ATOM     11  C   UNL     1      -0.097   9.594  21.508  0.00  0.00    +0.000 A 
ATOM     12  O   UNL     1      -0.498   8.840  22.393  0.00  0.00    +0.000 OA
ENDROOT
BRANCH   1  14
ATOM     13  N   UNL     1      -0.769  13.106  22.682  0.00  0.00    +0.000 N 
ATOM     14  C   UNL     1      -1.086  11.773  22.607  0.00  0.00    +0.000 C 
ATOM     15  O   UNL     1      -1.845  11.209  23.394  0.00  0.00    +0.000 OA
ATOM     16  H   UNL     1      -0.244  13.524  21.911  0.00  0.00    +0.000 HD
BRANCH  13  17
ATOM     17  C   UNL     1      -1.347  13.965  23.686  0.00  0.00    +0.000 C 
BRANCH  17  18
ATOM     18  C   UNL     1      -2.402  14.914  23.111  0.00  0.00    +0.000 C 
BRANCH  18  23
ATOM     19  C   UNL     1      -7.356  12.150  21.893  0.00  0.00    +0.000 C 
ATOM     20  C   UNL     1      -6.071  12.855  22.196  0.00  0.00    +0.000 A 
ATOM     21  C   UNL     1      -5.205  13.244  21.171  0.00  0.00    +0.000 A 
ATOM     22  C   UNL     1      -4.013  13.898  21.469  0.00  0.00    +0.000 A 
ATOM     23  C   UNL     1      -3.667  14.167  22.800  0.00  0.00    +0.000 A 
ATOM     24  C   UNL     1      -4.534  13.787  23.826  0.00  0.00    +0.000 A 
ATOM     25  C   UNL     1      -5.727  13.133  23.527  0.00  0.00    +0.000 A 
ENDBRANCH  18  23
ENDBRANCH  17  18
ENDBRANCH  13  17
ENDBRANCH   1  14
BRANCH   8  26
ATOM     26  S   UNL     1       3.015   5.786  19.651  0.00  0.00    +0.000 S 
ATOM     27  O   UNL     1       4.425   6.103  19.603  0.00  0.00    +0.000 OA
ATOM     28  O   UNL     1       2.431   5.058  20.757  0.00  0.00    +0.000 OA
BRANCH  26  29
ATOM     29  N   UNL     1       2.563   5.033  18.201  0.00  0.00    +0.000 NA
ATOM     30  C   UNL     1       1.441   4.082  18.211  0.00  0.00    +0.000 C 
ATOM     31  C   UNL     1       1.937   2.685  18.564  0.00  0.00    +0.000 C 
ATOM     32  C   UNL     1       3.133   2.225  17.712  0.00  0.00    +0.000 C 
ATOM     33  C   UNL     1       3.790   0.999  18.359  0.00  0.00    +0.000 C 
ATOM     34  C   UNL     1       4.188   3.321  17.484  0.00  0.00    +0.000 C 
ATOM     35  C   UNL     1       3.600   4.698  17.212  0.00  0.00    +0.000 C 
ENDBRANCH  26  29
ENDBRANCH   8  26
TORSDOF 6
ENDMDL
MODEL 8
REMARK VINA RESULT:      -8.3      2.915      4.187
REMARK  Name = 
REMARK  9 active torsions:
REMARK  status: ('A' for Active; 'I' for Inactive)
REMARK    1  A    between atoms: C_1  and  C_2
REMARK    2  A    between atoms: C_5  and  C_6
REMARK    3  A    between atoms: C_6  and  C_7
REMARK    4  A    between atoms: C_7  and  N_8
REMARK    5  A    between atoms: C_9  and  C_11
REMARK    6  A    between atoms: N_13  and  C_14
REMARK    7  A    between atoms: C_18  and  S_19
REMARK    8  A    between atoms: S_19  and  N_22
REMARK    9  A    between atoms: C_25  and  C_26
REMARK                            x       y       z     vdW  Elec       q    Type
REMARK                         _______ _______ _______ _____ _____    ______ ____
ROOT
ATOM      1  C   UNL     1      -0.207  10.809  21.298  0.00  0.00    +0.000 A 
ATOM      2  C   UNL     1       0.124  11.698  20.354  0.00  0.00    +0.000 A 
ATOM      3  N   UNL     1       0.796  11.432  19.177  0.00  0.00    +0.000 N 
ATOM      4  C   UNL     1       1.250  12.521  18.309  0.00  0.00    +0.000 C 
ATOM      5  C   UNL     1       1.316  10.135  18.969  0.00  0.00    +0.000 A 
ATOM      6  C   UNL     1       2.155   9.820  17.892  0.00  0.00    +0.000 A 
ATOM      7  C   UNL     1       2.744   8.560  17.777  0.00  0.00    +0.000 A 
ATOM      8  C   UNL     1       2.465   7.568  18.717  0.00  0.00    +0.000 A 
ATOM      9  C   UNL     1       1.579   7.815  19.764  0.00  0.00    +0.000 A 
ATOM     10  C   UNL     1       1.024   9.101  19.888  0.00  0.00    +0.000 A 
ATOM     11  C   UNL     1       0.150   9.393  21.056  0.00  0.00    +0.000 A 
ATOM     12  O   UNL     1      -0.236   8.489  21.795  0.00  0.00    +0.000 OA
ENDROOT
BRANCH   1  14
ATOM     13  N   UNL     1      -1.530  12.528  22.336  0.00  0.00    +0.000 N 
ATOM     14  C   UNL     1      -0.886  11.329  22.508  0.00  0.00    +0.000 C 
ATOM     15  O   UNL     1      -0.851  10.724  23.579  0.00  0.00    +0.000 OA
ATOM     16  H   UNL     1      -1.630  12.893  21.387  0.00  0.00    +0.000 HD
BRANCH  13  17
ATOM     17  C   UNL     1      -2.258  13.157  23.411  0.00  0.00    +0.000 C 
BRANCH  17  18
ATOM     18  C   UNL     1      -3.288  14.171  22.908  0.00  0.00    +0.000 C 
BRANCH  18  23
ATOM     19  C   UNL     1      -7.381  11.661  19.650  0.00  0.00    +0.000 C 
ATOM     20  C   UNL     1      -6.314  12.301  20.482  0.00  0.00    +0.000 A 
ATOM     21  C   UNL     1      -5.133  12.770  19.900  0.00  0.00    +0.000 A 
ATOM     22  C   UNL     1      -4.150  13.363  20.688  0.00  0.00    +0.000 A 
ATOM     23  C   UNL     1      -4.333  13.490  22.071  0.00  0.00    +0.000 A 
ATOM     24  C   UNL     1      -5.515  13.029  22.655  0.00  0.00    +0.000 A 
ATOM     25  C   UNL     1      -6.498  12.437  21.865  0.00  0.00    +0.000 A 
ENDBRANCH  18  23
ENDBRANCH  17  18
ENDBRANCH  13  17
ENDBRANCH   1  14
BRANCH   8  26
ATOM     26  S   UNL     1       3.346   6.027  18.586  0.00  0.00    +0.000 S 
ATOM     27  O   UNL     1       3.799   5.952  17.216  0.00  0.00    +0.000 OA
ATOM     28  O   UNL     1       4.264   5.946  19.702  0.00  0.00    +0.000 OA
BRANCH  26  29
ATOM     29  N   UNL     1       2.097   4.907  18.824  0.00  0.00    +0.000 NA
ATOM     30  C   UNL     1       2.029   4.172  20.096  0.00  0.00    +0.000 C 
ATOM     31  C   UNL     1       2.889   2.915  20.024  0.00  0.00    +0.000 C 
ATOM     32  C   UNL     1       2.602   2.045  18.788  0.00  0.00    +0.000 C 
ATOM     33  C   UNL     1       3.731   1.024  18.599  0.00  0.00    +0.000 C 
ATOM     34  C   UNL     1       2.409   2.853  17.494  0.00  0.00    +0.000 C 
ATOM     35  C   UNL     1       1.601   4.129  17.677  0.00  0.00    +0.000 C 
ENDBRANCH  26  29
ENDBRANCH   8  26
TORSDOF 6
ENDMDL
MODEL 9
REMARK VINA RESULT:      -8.3      2.082      2.600
REMARK  Name = 
REMARK  9 active torsions:
REMARK  status: ('A' for Active; 'I' for Inactive)
REMARK    1  A    between atoms: C_1  and  C_2
REMARK    2  A    between atoms: C_5  and  C_6
REMARK    3  A    between atoms: C_6  and  C_7
REMARK    4  A    between atoms: C_7  and  N_8
REMARK    5  A    between atoms: C_9  and  C_11
REMARK    6  A    between atoms: N_13  and  C_14
REMARK    7  A    between atoms: C_18  and  S_19
REMARK    8  A    between atoms: S_19  and  N_22
REMARK    9  A    between atoms: C_25  and  C_26
REMARK                            x       y       z     vdW  Elec       q    Type
REMARK                         _______ _______ _______ _____ _____    ______ ____
ROOT
ATOM      1  C   UNL     1       0.386  10.429  19.243  0.00  0.00    +0.000 A 
ATOM      2  C   UNL     1      -0.066  10.031  20.438  0.00  0.00    +0.000 A 
ATOM      3  N   UNL     1       0.347   8.916  21.141  0.00  0.00    +0.000 N 
ATOM      4  C   UNL     1      -0.350   8.495  22.358  0.00  0.00    +0.000 C 
ATOM      5  C   UNL     1       1.235   8.010  20.518  0.00  0.00    +0.000 A 
ATOM      6  C   UNL     1       1.570   6.772  21.081  0.00  0.00    +0.000 A 
ATOM      7  C   UNL     1       2.359   5.852  20.390  0.00  0.00    +0.000 A 
ATOM      8  C   UNL     1       2.872   6.173  19.132  0.00  0.00    +0.000 A 
ATOM      9  C   UNL     1       2.623   7.422  18.567  0.00  0.00    +0.000 A 
ATOM     10  C   UNL     1       1.795   8.323  19.258  0.00  0.00    +0.000 A 
ATOM     11  C   UNL     1       1.455   9.621  18.614  0.00  0.00    +0.000 A 
ATOM     12  O   UNL     1       2.029   9.985  17.590  0.00  0.00    +0.000 OA
ENDROOT
BRANCH   1  14
ATOM     13  N   UNL     1       0.340  12.824  19.024  0.00  0.00    +0.000 N 
ATOM     14  C   UNL     1      -0.238  11.636  18.651  0.00  0.00    +0.000 C 
ATOM     15  O   UNL     1      -1.208  11.559  17.899  0.00  0.00    +0.000 OA
ATOM     16  H   UNL     1       1.223  12.793  19.537  0.00  0.00    +0.000 HD
BRANCH  13  17
ATOM     17  C   UNL     1      -0.136  14.087  18.518  0.00  0.00    +0.000 C 
BRANCH  17  18
ATOM     18  C   UNL     1      -0.521  15.059  19.637  0.00  0.00    +0.000 C 
BRANCH  18  23
ATOM     19  C   UNL     1      -3.319  12.156  23.809  0.00  0.00    +0.000 C 
ATOM     20  C   UNL     1      -2.590  12.913  22.744  0.00  0.00    +0.000 A 
ATOM     21  C   UNL     1      -1.247  13.266  22.903  0.00  0.00    +0.000 A 
ATOM     22  C   UNL     1      -0.584  13.972  21.903  0.00  0.00    +0.000 A 
ATOM     23  C   UNL     1      -1.256  14.339  20.730  0.00  0.00    +0.000 A 
ATOM     24  C   UNL     1      -2.596  13.981  20.564  0.00  0.00    +0.000 A 
ATOM     25  C   UNL     1      -3.259  13.274  21.566  0.00  0.00    +0.000 A 
ENDBRANCH  18  23
ENDBRANCH  17  18
ENDBRANCH  13  17
ENDBRANCH   1  14
BRANCH   8  26
ATOM     26  S   UNL     1       3.762   4.911  18.250  0.00  0.00    +0.000 S 
ATOM     27  O   UNL     1       4.171   3.950  19.250  0.00  0.00    +0.000 OA
ATOM     28  O   UNL     1       2.968   4.529  17.101  0.00  0.00    +0.000 OA
BRANCH  26  29
ATOM     29  N   UNL     1       5.120   5.771  17.714  0.00  0.00    +0.000 NA
ATOM     30  C   UNL     1       4.992   6.647  16.539  0.00  0.00    +0.000 C 
ATOM     31  C   UNL     1       5.225   5.851  15.260  0.00  0.00    +0.000 C 
ATOM     32  C   UNL     1       6.522   5.025  15.279  0.00  0.00    +0.000 C 
ATOM     33  C   UNL     1       6.498   3.994  14.144  0.00  0.00    +0.000 C 
ATOM     34  C   UNL     1       6.785   4.316  16.620  0.00  0.00    +0.000 C 
ATOM     35  C   UNL     1       6.453   5.162  17.841  0.00  0.00    +0.000 C 
ENDBRANCH  26  29
ENDBRANCH   8  26
TORSDOF 6
ENDMDL
