MODEL 1
REMARK VINA RESULT:      -9.2      0.000      0.000
REMARK  Name = 
REMARK  7 active torsions:
REMARK  status: ('A' for Active; 'I' for Inactive)
REMARK    1  A    between atoms: C_1  and  O_2
REMARK    2  A    between atoms: O_2  and  C_3
REMARK    3  A    between atoms: C_3  and  C_5
REMARK    4  A    between atoms: C_5  and  C_6
REMARK    5  A    between atoms: C_6  and  O_8
REMARK    6  A    between atoms: O_8  and  C_9
REMARK    7  A    between atoms: C_20  and  C_21
REMARK                            x       y       z     vdW  Elec       q    Type
REMARK                         _______ _______ _______ _____ _____    ______ ____
ROOT
ATOM      1  C   UNL     1       5.930   5.369  15.997  0.00  0.00    +0.000 C 
ATOM      2  C   UNL     1       5.044   4.402  16.825  0.00  0.00    +0.000 C 
ATOM      3  C   UNL     1       4.152   5.337  17.579  0.00  0.00    +0.000 A 
ATOM      4  C   UNL     1       3.353   5.035  18.664  0.00  0.00    +0.000 A 
ATOM      5  C   UNL     1       2.596   6.066  19.231  0.00  0.00    +0.000 A 
ATOM      6  C   UNL     1       2.634   7.365  18.703  0.00  0.00    +0.000 A 
ATOM      7  C   UNL     1       3.435   7.649  17.587  0.00  0.00    +0.000 A 
ATOM      8  C   UNL     1       4.196   6.625  17.046  0.00  0.00    +0.000 A 
ATOM      9  C   UNL     1       5.117   6.685  15.865  0.00  0.00    +0.000 C 
ATOM     10  C   UNL     1       1.838   8.452  19.317  0.00  0.00    +0.000 C 
ATOM     11  O   UNL     1       1.848   9.573  18.832  0.00  0.00    +0.000 OA
ATOM     12  C   UNL     1       1.035   8.118  20.528  0.00  0.00    +0.000 C 
ATOM     13  C   UNL     1       1.003   6.866  21.007  0.00  0.00    +0.000 C 
ATOM     14  C   UNL     1       1.761   5.762  20.402  0.00  0.00    +0.000 C 
ATOM     15  O   UNL     1       1.694   4.636  20.875  0.00  0.00    +0.000 OA
ENDROOT
BRANCH  12  16
ATOM     16  C   UNL     1       0.228   9.127  21.228  0.00  0.00    +0.000 A 
ATOM     17  C   UNL     1      -0.334  10.199  20.520  0.00  0.00    +0.000 A 
ATOM     18  C   UNL     1      -0.965  11.241  21.201  0.00  0.00    +0.000 A 
ATOM     19  C   UNL     1      -1.061  11.207  22.591  0.00  0.00    +0.000 A 
ATOM     20  C   UNL     1      -0.549  10.121  23.299  0.00  0.00    +0.000 A 
ATOM     21  C   UNL     1       0.100   9.086  22.622  0.00  0.00    +0.000 A 
ENDBRANCH  12  16
BRANCH   1  22
ATOM     22  C   UNL     1       6.189   4.714  14.656  0.00  0.00    +0.000 C 
ATOM     23  O   UNL     1       7.228   4.860  14.019  0.00  0.00    +0.000 OA
BRANCH  22  25
ATOM     24  C   UNL     1       5.207   3.574  12.862  0.00  0.00    +0.000 C 
ATOM     25  O   UNL     1       5.133   3.966  14.236  0.00  0.00    +0.000 OA
ENDBRANCH  22  25
ENDBRANCH   1  22
BRANCH   1  26
ATOM     26  C   UNL     1       7.263   5.632  16.682  0.00  0.00    +0.000 C 
ATOM     27  O   UNL     1       7.929   4.774  17.246  0.00  0.00    +0.000 OA
BRANCH  26  28
ATOM     28  O   UNL     1       7.664   6.929  16.549  0.00  0.00    +0.000 OA
ATOM     29  C   UNL     1       7.819   7.636  17.781  0.00  0.00    +0.000 C 
ENDBRANCH  26  28
ENDBRANCH   1  26
TORSDOF 5
ENDMDL
MODEL 2
REMARK VINA RESULT:      -8.9      0.842      1.350
REMARK  Name = 
REMARK  7 active torsions:
REMARK  status: ('A' for Active; 'I' for Inactive)
REMARK    1  A    between atoms: C_1  and  O_2
REMARK    2  A    between atoms: O_2  and  C_3
REMARK    3  A    between atoms: C_3  and  C_5
REMARK    4  A    between atoms: C_5  and  C_6
REMARK    5  A    between atoms: C_6  and  O_8
REMARK    6  A    between atoms: O_8  and  C_9
REMARK    7  A    between atoms: C_20  and  C_21
REMARK                            x       y       z     vdW  Elec       q    Type
REMARK                         _______ _______ _______ _____ _____    ______ ____
ROOT
ATOM      1  C   UNL     1       5.929   5.310  16.367  0.00  0.00    +0.000 C 
ATOM      2  C   UNL     1       5.030   4.542  17.369  0.00  0.00    +0.000 C 
ATOM      3  C   UNL     1       4.126   5.614  17.890  0.00  0.00    +0.000 A 
ATOM      4  C   UNL     1       3.309   5.551  19.001  0.00  0.00    +0.000 A 
ATOM      5  C   UNL     1       2.544   6.677  19.322  0.00  0.00    +0.000 A 
ATOM      6  C   UNL     1       2.592   7.833  18.528  0.00  0.00    +0.000 A 
ATOM      7  C   UNL     1       3.412   7.872  17.390  0.00  0.00    +0.000 A 
ATOM      8  C   UNL     1       4.181   6.759  17.093  0.00  0.00    +0.000 A 
ATOM      9  C   UNL     1       5.120   6.566  15.942  0.00  0.00    +0.000 C 
ATOM     10  C   UNL     1       1.787   9.025  18.881  0.00  0.00    +0.000 C 
ATOM     11  O   UNL     1       1.806  10.014  18.167  0.00  0.00    +0.000 OA
ATOM     12  C   UNL     1       0.964   8.955  20.123  0.00  0.00    +0.000 C 
ATOM     13  C   UNL     1       0.923   7.836  20.858  0.00  0.00    +0.000 C 
ATOM     14  C   UNL     1       1.690   6.630  20.517  0.00  0.00    +0.000 C 
ATOM     15  O   UNL     1       1.613   5.630  21.219  0.00  0.00    +0.000 OA
ENDROOT
BRANCH  12  16
ATOM     16  C   UNL     1       0.147  10.090  20.576  0.00  0.00    +0.000 A 
ATOM     17  C   UNL     1       0.191  10.503  21.915  0.00  0.00    +0.000 A 
ATOM     18  C   UNL     1      -0.696  11.473  22.384  0.00  0.00    +0.000 A 
ATOM     19  C   UNL     1      -1.615  12.055  21.512  0.00  0.00    +0.000 A 
ATOM     20  C   UNL     1      -1.633  11.687  20.168  0.00  0.00    +0.000 A 
ATOM     21  C   UNL     1      -0.759  10.702  19.700  0.00  0.00    +0.000 A 
ENDBRANCH  12  16
BRANCH   1  22
ATOM     22  C   UNL     1       6.210   4.384  15.202  0.00  0.00    +0.000 C 
ATOM     23  O   UNL     1       6.003   3.174  15.232  0.00  0.00    +0.000 OA
BRANCH  22  25
ATOM     24  C   UNL     1       6.840   4.246  12.951  0.00  0.00    +0.000 C 
ATOM     25  O   UNL     1       6.734   5.043  14.134  0.00  0.00    +0.000 OA
ENDBRANCH  22  25
ENDBRANCH   1  22
BRANCH   1  26
ATOM     26  C   UNL     1       7.252   5.718  17.001  0.00  0.00    +0.000 C 
ATOM     27  O   UNL     1       7.937   4.981  17.697  0.00  0.00    +0.000 OA
BRANCH  26  28
ATOM     28  O   UNL     1       7.618   6.987  16.659  0.00  0.00    +0.000 OA
ATOM     29  C   UNL     1       7.876   7.852  17.766  0.00  0.00    +0.000 C 
ENDBRANCH  26  28
ENDBRANCH   1  26
TORSDOF 5
ENDMDL
MODEL 3
REMARK VINA RESULT:      -8.7      1.051      1.446
REMARK  Name = 
REMARK  7 active torsions:
REMARK  status: ('A' for Active; 'I' for Inactive)
REMARK    1  A    between atoms: C_1  and  O_2
REMARK    2  A    between atoms: O_2  and  C_3
REMARK    3  A    between atoms: C_3  and  C_5
REMARK    4  A    between atoms: C_5  and  C_6
REMARK    5  A    between atoms: C_6  and  O_8
REMARK    6  A    between atoms: O_8  and  C_9
REMARK    7  A    between atoms: C_20  and  C_21
REMARK                            x       y       z     vdW  Elec       q    Type
REMARK                         _______ _______ _______ _____ _____    ______ ____
ROOT
ATOM      1  C   UNL     1       5.930   5.482  16.465  0.00  0.00    +0.000 C 
ATOM      2  C   UNL     1       5.061   4.722  17.500  0.00  0.00    +0.000 C 
ATOM      3  C   UNL     1       4.116   5.779  17.977  0.00  0.00    +0.000 A 
ATOM      4  C   UNL     1       3.301   5.730  19.091  0.00  0.00    +0.000 A 
ATOM      5  C   UNL     1       2.493   6.839  19.365  0.00  0.00    +0.000 A 
ATOM      6  C   UNL     1       2.496   7.961  18.523  0.00  0.00    +0.000 A 
ATOM      7  C   UNL     1       3.314   7.984  17.383  0.00  0.00    +0.000 A 
ATOM      8  C   UNL     1       4.126   6.890  17.132  0.00  0.00    +0.000 A 
ATOM      9  C   UNL     1       5.073   6.686  15.989  0.00  0.00    +0.000 C 
ATOM     10  C   UNL     1       1.645   9.134  18.827  0.00  0.00    +0.000 C 
ATOM     11  O   UNL     1       1.625  10.093  18.071  0.00  0.00    +0.000 OA
ATOM     12  C   UNL     1       0.824   9.085  20.071  0.00  0.00    +0.000 C 
ATOM     13  C   UNL     1       0.828   7.997  20.853  0.00  0.00    +0.000 C 
ATOM     14  C   UNL     1       1.641   6.808  20.562  0.00  0.00    +0.000 C 
ATOM     15  O   UNL     1       1.604   5.837  21.306  0.00  0.00    +0.000 OA
ENDROOT
BRANCH  12  16
ATOM     16  C   UNL     1      -0.036  10.205  20.477  0.00  0.00    +0.000 A 
ATOM     17  C   UNL     1      -1.040  10.674  19.618  0.00  0.00    +0.000 A 
ATOM     18  C   UNL     1      -1.752  11.833  19.931  0.00  0.00    +0.000 A 
ATOM     19  C   UNL     1      -1.484  12.516  21.116  0.00  0.00    +0.000 A 
ATOM     20  C   UNL     1      -0.523  12.029  22.001  0.00  0.00    +0.000 A 
ATOM     21  C   UNL     1       0.206  10.880  21.681  0.00  0.00    +0.000 A 
ENDBRANCH  12  16
BRANCH   1  22
ATOM     22  C   UNL     1       6.247   4.518  15.341  0.00  0.00    +0.000 C 
ATOM     23  O   UNL     1       5.965   3.324  15.370  0.00  0.00    +0.000 OA
BRANCH  22  25
ATOM     24  C   UNL     1       6.820   4.412  13.073  0.00  0.00    +0.000 C 
ATOM     25  O   UNL     1       6.895   5.125  14.310  0.00  0.00    +0.000 OA
ENDBRANCH  22  25
ENDBRANCH   1  22
BRANCH   1  26
ATOM     26  C   UNL     1       7.235   5.967  17.080  0.00  0.00    +0.000 C 
ATOM     27  O   UNL     1       7.793   7.013  16.776  0.00  0.00    +0.000 OA
BRANCH  26  28
ATOM     28  O   UNL     1       7.691   5.127  18.054  0.00  0.00    +0.000 OA
ATOM     29  C   UNL     1       7.872   5.738  19.333  0.00  0.00    +0.000 C 
ENDBRANCH  26  28
ENDBRANCH   1  26
TORSDOF 5
ENDMDL
MODEL 4
REMARK VINA RESULT:      -8.7      2.187      5.000
REMARK  Name = 
REMARK  7 active torsions:
REMARK  status: ('A' for Active; 'I' for Inactive)
REMARK    1  A    between atoms: C_1  and  O_2
REMARK    2  A    between atoms: O_2  and  C_3
REMARK    3  A    between atoms: C_3  and  C_5
REMARK    4  A    between atoms: C_5  and  C_6
REMARK    5  A    between atoms: C_6  and  O_8
REMARK    6  A    between atoms: O_8  and  C_9
REMARK    7  A    between atoms: C_20  and  C_21
REMARK                            x       y       z     vdW  Elec       q    Type
REMARK                         _______ _______ _______ _____ _____    ______ ____
ROOT
ATOM      1  C   UNL     1       2.738   5.682  18.921  0.00  0.00    +0.000 C 
ATOM      2  C   UNL     1       2.615   6.962  18.055  0.00  0.00    +0.000 C 
ATOM      3  C   UNL     1       1.921   7.917  18.974  0.00  0.00    +0.000 A 
ATOM      4  C   UNL     1       1.321   9.114  18.637  0.00  0.00    +0.000 A 
ATOM      5  C   UNL     1       0.715   9.857  19.655  0.00  0.00    +0.000 A 
ATOM      6  C   UNL     1       0.733   9.409  20.984  0.00  0.00    +0.000 A 
ATOM      7  C   UNL     1       1.367   8.202  21.313  0.00  0.00    +0.000 A 
ATOM      8  C   UNL     1       1.945   7.463  20.293  0.00  0.00    +0.000 A 
ATOM      9  C   UNL     1       2.673   6.157  20.398  0.00  0.00    +0.000 C 
ATOM     10  C   UNL     1       0.080  10.198  22.055  0.00  0.00    +0.000 C 
ATOM     11  O   UNL     1       0.129   9.821  23.215  0.00  0.00    +0.000 OA
ATOM     12  C   UNL     1      -0.619  11.453  21.655  0.00  0.00    +0.000 C 
ATOM     13  C   UNL     1      -0.611  11.868  20.381  0.00  0.00    +0.000 C 
ATOM     14  C   UNL     1       0.051  11.120  19.304  0.00  0.00    +0.000 C 
ATOM     15  O   UNL     1       0.034  11.545  18.156  0.00  0.00    +0.000 OA
ENDROOT
BRANCH  12  16
ATOM     16  C   UNL     1      -1.318  12.297  22.634  0.00  0.00    +0.000 A 
ATOM     17  C   UNL     1      -2.563  11.904  23.147  0.00  0.00    +0.000 A 
ATOM     18  C   UNL     1      -3.301  12.772  23.953  0.00  0.00    +0.000 A 
ATOM     19  C   UNL     1      -2.789  14.029  24.273  0.00  0.00    +0.000 A 
ATOM     20  C   UNL     1      -1.530  14.408  23.810  0.00  0.00    +0.000 A 
ATOM     21  C   UNL     1      -0.798  13.549  22.986  0.00  0.00    +0.000 A 
ENDBRANCH  12  16
BRANCH   1  22
ATOM     22  C   UNL     1       4.061   5.027  18.583  0.00  0.00    +0.000 C 
ATOM     23  O   UNL     1       4.666   4.285  19.350  0.00  0.00    +0.000 OA
BRANCH  22  25
ATOM     24  C   UNL     1       5.127   4.304  16.628  0.00  0.00    +0.000 C 
ATOM     25  O   UNL     1       4.505   5.374  17.345  0.00  0.00    +0.000 OA
ENDBRANCH  22  25
ENDBRANCH   1  22
BRANCH   1  26
ATOM     26  C   UNL     1       1.613   4.699  18.628  0.00  0.00    +0.000 C 
ATOM     27  O   UNL     1       1.237   4.397  17.503  0.00  0.00    +0.000 OA
BRANCH  26  28
ATOM     28  O   UNL     1       1.103   4.145  19.766  0.00  0.00    +0.000 OA
ATOM     29  C   UNL     1       1.225   2.723  19.845  0.00  0.00    +0.000 C 
ENDBRANCH  26  28
ENDBRANCH   1  26
TORSDOF 5
ENDMDL
MODEL 5
REMARK VINA RESULT:      -8.6      2.796      5.092
REMARK  Name = 
REMARK  7 active torsions:
REMARK  status: ('A' for Active; 'I' for Inactive)
REMARK    1  A    between atoms: C_1  and  O_2
REMARK    2  A    between atoms: O_2  and  C_3
REMARK    3  A    between atoms: C_3  and  C_5
REMARK    4  A    between atoms: C_5  and  C_6
REMARK    5  A    between atoms: C_6  and  O_8
REMARK    6  A    between atoms: O_8  and  C_9
REMARK    7  A    between atoms: C_20  and  C_21
REMARK                            x       y       z     vdW  Elec       q    Type
REMARK                         _______ _______ _______ _____ _____    ______ ____
ROOT
ATOM      1  C   UNL     1       2.637   5.215  19.012  0.00  0.00    +0.000 C 
ATOM      2  C   UNL     1       2.856   6.553  18.260  0.00  0.00    +0.000 C 
ATOM      3  C   UNL     1       2.131   7.538  19.122  0.00  0.00    +0.000 A 
ATOM      4  C   UNL     1       1.772   8.830  18.792  0.00  0.00    +0.000 A 
ATOM      5  C   UNL     1       1.085   9.587  19.748  0.00  0.00    +0.000 A 
ATOM      6  C   UNL     1       0.785   9.055  21.011  0.00  0.00    +0.000 A 
ATOM      7  C   UNL     1       1.177   7.748  21.336  0.00  0.00    +0.000 A 
ATOM      8  C   UNL     1       1.838   7.000  20.375  0.00  0.00    +0.000 A 
ATOM      9  C   UNL     1       2.351   5.597  20.490  0.00  0.00    +0.000 C 
ATOM     10  C   UNL     1       0.048   9.860  22.012  0.00  0.00    +0.000 C 
ATOM     11  O   UNL     1      -0.179   9.405  23.122  0.00  0.00    +0.000 OA
ATOM     12  C   UNL     1      -0.387  11.228  21.610  0.00  0.00    +0.000 C 
ATOM     13  C   UNL     1      -0.077  11.720  20.402  0.00  0.00    +0.000 C 
ATOM     14  C   UNL     1       0.675  10.955  19.399  0.00  0.00    +0.000 C 
ATOM     15  O   UNL     1       0.938  11.452  18.312  0.00  0.00    +0.000 OA
ENDROOT
BRANCH  12  16
ATOM     16  C   UNL     1      -1.144  12.100  22.519  0.00  0.00    +0.000 A 
ATOM     17  C   UNL     1      -2.405  11.708  22.990  0.00  0.00    +0.000 A 
ATOM     18  C   UNL     1      -3.193  12.597  23.723  0.00  0.00    +0.000 A 
ATOM     19  C   UNL     1      -2.715  13.874  24.012  0.00  0.00    +0.000 A 
ATOM     20  C   UNL     1      -1.442  14.256  23.591  0.00  0.00    +0.000 A 
ATOM     21  C   UNL     1      -0.659  13.375  22.840  0.00  0.00    +0.000 A 
ENDBRANCH  12  16
BRANCH   1  22
ATOM     22  C   UNL     1       3.901   4.395  18.862  0.00  0.00    +0.000 C 
ATOM     23  O   UNL     1       4.616   4.427  17.865  0.00  0.00    +0.000 OA
BRANCH  22  25
ATOM     24  C   UNL     1       4.406   2.241  19.627  0.00  0.00    +0.000 C 
ATOM     25  O   UNL     1       4.136   3.608  19.947  0.00  0.00    +0.000 OA
ENDBRANCH  22  25
ENDBRANCH   1  22
BRANCH   1  26
ATOM     26  C   UNL     1       1.470   4.431  18.429  0.00  0.00    +0.000 C 
ATOM     27  O   UNL     1       1.137   4.463  17.252  0.00  0.00    +0.000 OA
BRANCH  26  28
ATOM     28  O   UNL     1       0.863   3.639  19.361  0.00  0.00    +0.000 OA
ATOM     29  C   UNL     1       0.721   2.269  18.979  0.00  0.00    +0.000 C 
ENDBRANCH  26  28
ENDBRANCH   1  26
TORSDOF 5
ENDMDL
MODEL 6
REMARK VINA RESULT:      -8.5      2.640      4.676
REMARK  Name = 
REMARK  7 active torsions:
REMARK  status: ('A' for Active; 'I' for Inactive)
REMARK    1  A    between atoms: C_1  and  O_2
REMARK    2  A    between atoms: O_2  and  C_3
REMARK    3  A    between atoms: C_3  and  C_5
REMARK    4  A    between atoms: C_5  and  C_6
REMARK    5  A    between atoms: C_6  and  O_8
REMARK    6  A    between atoms: O_8  and  C_9
REMARK    7  A    between atoms: C_20  and  C_21
REMARK                            x       y       z     vdW  Elec       q    Type
REMARK                         _______ _______ _______ _____ _____    ______ ____
ROOT
ATOM      1  C   UNL     1       3.295   4.521  18.784  0.00  0.00    +0.000 C 
ATOM      2  C   UNL     1       3.722   5.807  18.030  0.00  0.00    +0.000 C 
ATOM      3  C   UNL     1       2.867   6.858  18.663  0.00  0.00    +0.000 A 
ATOM      4  C   UNL     1       2.636   8.138  18.198  0.00  0.00    +0.000 A 
ATOM      5  C   UNL     1       1.791   8.967  18.943  0.00  0.00    +0.000 A 
ATOM      6  C   UNL     1       1.208   8.519  20.137  0.00  0.00    +0.000 A 
ATOM      7  C   UNL     1       1.470   7.223  20.606  0.00  0.00    +0.000 A 
ATOM      8  C   UNL     1       2.292   6.403  19.849  0.00  0.00    +0.000 A 
ATOM      9  C   UNL     1       2.715   4.996  20.144  0.00  0.00    +0.000 C 
ATOM     10  C   UNL     1       0.305   9.400  20.913  0.00  0.00    +0.000 C 
ATOM     11  O   UNL     1      -0.172   9.016  21.969  0.00  0.00    +0.000 OA
ATOM     12  C   UNL     1       0.019  10.753  20.357  0.00  0.00    +0.000 C 
ATOM     13  C   UNL     1       0.598  11.165  19.220  0.00  0.00    +0.000 C 
ATOM     14  C   UNL     1       1.518  10.323  18.444  0.00  0.00    +0.000 C 
ATOM     15  O   UNL     1       2.026  10.749  17.416  0.00  0.00    +0.000 OA
ENDROOT
BRANCH  12  16
ATOM     16  C   UNL     1      -0.881  11.696  21.035  0.00  0.00    +0.000 A 
ATOM     17  C   UNL     1      -0.619  12.103  22.351  0.00  0.00    +0.000 A 
ATOM     18  C   UNL     1      -1.551  12.870  23.052  0.00  0.00    +0.000 A 
ATOM     19  C   UNL     1      -2.738  13.259  22.433  0.00  0.00    +0.000 A 
ATOM     20  C   UNL     1      -2.984  12.903  21.108  0.00  0.00    +0.000 A 
ATOM     21  C   UNL     1      -2.063  12.117  20.411  0.00  0.00    +0.000 A 
ENDBRANCH  12  16
BRANCH   1  22
ATOM     22  C   UNL     1       4.530   3.660  18.952  0.00  0.00    +0.000 C 
ATOM     23  O   UNL     1       5.675   4.091  18.859  0.00  0.00    +0.000 OA
BRANCH  22  25
ATOM     24  C   UNL     1       4.593   1.905  20.501  0.00  0.00    +0.000 C 
ATOM     25  O   UNL     1       4.220   2.358  19.197  0.00  0.00    +0.000 OA
ENDBRANCH  22  25
ENDBRANCH   1  22
BRANCH   1  26
ATOM     26  C   UNL     1       2.250   3.735  18.004  0.00  0.00    +0.000 C 
ATOM     27  O   UNL     1       2.413   3.313  16.867  0.00  0.00    +0.000 OA
BRANCH  26  28
ATOM     28  O   UNL     1       1.124   3.504  18.738  0.00  0.00    +0.000 OA
ATOM     29  C   UNL     1       0.756   2.128  18.851  0.00  0.00    +0.000 C 
ENDBRANCH  26  28
ENDBRANCH   1  26
TORSDOF 5
ENDMDL
MODEL 7
REMARK VINA RESULT:      -8.4      2.568      5.011
REMARK  Name = 
REMARK  7 active torsions:
REMARK  status: ('A' for Active; 'I' for Inactive)
REMARK    1  A    between atoms: C_1  and  O_2
REMARK    2  A    between atoms: O_2  and  C_3
REMARK    3  A    between atoms: C_3  and  C_5
REMARK    4  A    between atoms: C_5  and  C_6
REMARK    5  A    between atoms: C_6  and  O_8
REMARK    6  A    between atoms: O_8  and  C_9
REMARK    7  A    between atoms: C_20  and  C_21
REMARK                            x       y       z     vdW  Elec       q    Type
REMARK                         _______ _______ _______ _____ _____    ______ ____
ROOT
ATOM      1  C   UNL     1       2.779   5.402  18.900  0.00  0.00    +0.000 C 
ATOM      2  C   UNL     1       2.858   6.698  18.054  0.00  0.00    +0.000 C 
ATOM      3  C   UNL     1       2.125   7.690  18.901  0.00  0.00    +0.000 A 
ATOM      4  C   UNL     1       1.659   8.932  18.518  0.00  0.00    +0.000 A 
ATOM      5  C   UNL     1       0.987   9.706  19.469  0.00  0.00    +0.000 A 
ATOM      6  C   UNL     1       0.806   9.241  20.781  0.00  0.00    +0.000 A 
ATOM      7  C   UNL     1       1.305   7.986  21.159  0.00  0.00    +0.000 A 
ATOM      8  C   UNL     1       1.951   7.219  20.203  0.00  0.00    +0.000 A 
ATOM      9  C   UNL     1       2.564   5.862  20.368  0.00  0.00    +0.000 C 
ATOM     10  C   UNL     1       0.082  10.063  21.779  0.00  0.00    +0.000 C 
ATOM     11  O   UNL     1      -0.041   9.668  22.928  0.00  0.00    +0.000 OA
ATOM     12  C   UNL     1      -0.469  11.371  21.323  0.00  0.00    +0.000 C 
ATOM     13  C   UNL     1      -0.272  11.800  20.069  0.00  0.00    +0.000 C 
ATOM     14  C   UNL     1       0.464  11.019  19.066  0.00  0.00    +0.000 C 
ATOM     15  O   UNL     1       0.621  11.458  17.935  0.00  0.00    +0.000 OA
ENDROOT
BRANCH  12  16
ATOM     16  C   UNL     1      -1.223  12.252  22.227  0.00  0.00    +0.000 A 
ATOM     17  C   UNL     1      -0.640  13.429  22.716  0.00  0.00    +0.000 A 
ATOM     18  C   UNL     1      -1.289  14.184  23.694  0.00  0.00    +0.000 A 
ATOM     19  C   UNL     1      -2.536  13.782  24.171  0.00  0.00    +0.000 A 
ATOM     20  C   UNL     1      -3.146  12.641  23.653  0.00  0.00    +0.000 A 
ATOM     21  C   UNL     1      -2.490  11.871  22.689  0.00  0.00    +0.000 A 
ENDBRANCH  12  16
BRANCH   1  22
ATOM     22  C   UNL     1       4.083   4.655  18.715  0.00  0.00    +0.000 C 
ATOM     23  O   UNL     1       4.203   3.446  18.884  0.00  0.00    +0.000 OA
BRANCH  22  25
ATOM     24  C   UNL     1       6.284   5.324  19.152  0.00  0.00    +0.000 C 
ATOM     25  O   UNL     1       5.104   5.482  18.360  0.00  0.00    +0.000 OA
ENDBRANCH  22  25
ENDBRANCH   1  22
BRANCH   1  26
ATOM     26  C   UNL     1       1.632   4.509  18.450  0.00  0.00    +0.000 C 
ATOM     27  O   UNL     1       1.294   4.358  17.283  0.00  0.00    +0.000 OA
BRANCH  26  28
ATOM     28  O   UNL     1       1.052   3.847  19.493  0.00  0.00    +0.000 OA
ATOM     29  C   UNL     1       0.788   2.463  19.250  0.00  0.00    +0.000 C 
ENDBRANCH  26  28
ENDBRANCH   1  26
TORSDOF 5
ENDMDL
MODEL 8
REMARK VINA RESULT:      -8.4      2.167      4.465
REMARK  Name = 
REMARK  7 active torsions:
REMARK  status: ('A' for Active; 'I' for Inactive)
REMARK    1  A    between atoms: C_1  and  O_2
REMARK    2  A    between atoms: O_2  and  C_3
REMARK    3  A    between atoms: C_3  and  C_5
REMARK    4  A    between atoms: C_5  and  C_6
REMARK    5  A    between atoms: C_6  and  O_8
REMARK    6  A    between atoms: O_8  and  C_9
REMARK    7  A    between atoms: C_20  and  C_21
REMARK                            x       y       z     vdW  Elec       q    Type
REMARK                         _______ _______ _______ _____ _____    ______ ____
ROOT
ATOM      1  C   UNL     1       3.129   4.636  18.466  0.00  0.00    +0.000 C 
ATOM      2  C   UNL     1       3.358   5.960  17.691  0.00  0.00    +0.000 C 
ATOM      3  C   UNL     1       2.664   6.969  18.551  0.00  0.00    +0.000 A 
ATOM      4  C   UNL     1       2.321   8.262  18.209  0.00  0.00    +0.000 A 
ATOM      5  C   UNL     1       1.664   9.044  19.165  0.00  0.00    +0.000 A 
ATOM      6  C   UNL     1       1.376   8.535  20.440  0.00  0.00    +0.000 A 
ATOM      7  C   UNL     1       1.751   7.226  20.778  0.00  0.00    +0.000 A 
ATOM      8  C   UNL     1       2.383   6.454  19.817  0.00  0.00    +0.000 A 
ATOM      9  C   UNL     1       2.875   5.044  19.943  0.00  0.00    +0.000 C 
ATOM     10  C   UNL     1       0.669   9.366  21.442  0.00  0.00    +0.000 C 
ATOM     11  O   UNL     1       0.453   8.930  22.562  0.00  0.00    +0.000 OA
ATOM     12  C   UNL     1       0.250  10.736  21.027  0.00  0.00    +0.000 C 
ATOM     13  C   UNL     1       0.548  11.205  19.808  0.00  0.00    +0.000 C 
ATOM     14  C   UNL     1       1.271  10.413  18.804  0.00  0.00    +0.000 C 
ATOM     15  O   UNL     1       1.524  10.891  17.706  0.00  0.00    +0.000 OA
ENDROOT
BRANCH  12  16
ATOM     16  C   UNL     1      -0.476  11.633  21.936  0.00  0.00    +0.000 A 
ATOM     17  C   UNL     1      -1.544  11.149  22.706  0.00  0.00    +0.000 A 
ATOM     18  C   UNL     1      -2.335  12.027  23.448  0.00  0.00    +0.000 A 
ATOM     19  C   UNL     1      -2.049  13.391  23.447  0.00  0.00    +0.000 A 
ATOM     20  C   UNL     1      -0.959  13.876  22.725  0.00  0.00    +0.000 A 
ATOM     21  C   UNL     1      -0.177  13.002  21.965  0.00  0.00    +0.000 A 
ENDBRANCH  12  16
BRANCH   1  22
ATOM     22  C   UNL     1       4.377   3.793  18.307  0.00  0.00    +0.000 C 
ATOM     23  O   UNL     1       5.003   3.323  19.251  0.00  0.00    +0.000 OA
BRANCH  22  25
ATOM     24  C   UNL     1       6.062   4.063  16.703  0.00  0.00    +0.000 C 
ATOM     25  O   UNL     1       4.730   3.637  17.002  0.00  0.00    +0.000 OA
ENDBRANCH  22  25
ENDBRANCH   1  22
BRANCH   1  26
ATOM     26  C   UNL     1       1.940   3.864  17.914  0.00  0.00    +0.000 C 
ATOM     27  O   UNL     1       1.104   4.337  17.155  0.00  0.00    +0.000 OA
BRANCH  26  28
ATOM     28  O   UNL     1       1.937   2.561  18.318  0.00  0.00    +0.000 OA
ATOM     29  C   UNL     1       0.751   2.149  18.999  0.00  0.00    +0.000 C 
ENDBRANCH  26  28
ENDBRANCH   1  26
TORSDOF 5
ENDMDL
MODEL 9
REMARK VINA RESULT:      -8.3      2.689      4.221
REMARK  Name = 
REMARK  7 active torsions:
REMARK  status: ('A' for Active; 'I' for Inactive)
REMARK    1  A    between atoms: C_1  and  O_2
REMARK    2  A    between atoms: O_2  and  C_3
REMARK    3  A    between atoms: C_3  and  C_5
REMARK    4  A    between atoms: C_5  and  C_6
REMARK    5  A    between atoms: C_6  and  O_8
REMARK    6  A    between atoms: O_8  and  C_9
REMARK    7  A    between atoms: C_20  and  C_21
REMARK                            x       y       z     vdW  Elec       q    Type
REMARK                         _______ _______ _______ _____ _____    ______ ____
ROOT
ATOM      1  C   UNL     1       3.283   4.047  18.888  0.00  0.00    +0.000 C 
ATOM      2  C   UNL     1       2.450   4.473  20.125  0.00  0.00    +0.000 C 
ATOM      3  C   UNL     1       2.196   5.924  19.868  0.00  0.00    +0.000 A 
ATOM      4  C   UNL     1       1.736   6.864  20.769  0.00  0.00    +0.000 A 
ATOM      5  C   UNL     1       1.574   8.180  20.324  0.00  0.00    +0.000 A 
ATOM      6  C   UNL     1       1.854   8.533  18.996  0.00  0.00    +0.000 A 
ATOM      7  C   UNL     1       2.301   7.561  18.087  0.00  0.00    +0.000 A 
ATOM      8  C   UNL     1       2.477   6.265  18.544  0.00  0.00    +0.000 A 
ATOM      9  C   UNL     1       2.938   5.068  17.769  0.00  0.00    +0.000 C 
ATOM     10  C   UNL     1       1.691   9.931  18.536  0.00  0.00    +0.000 C 
ATOM     11  O   UNL     1       1.902  10.225  17.370  0.00  0.00    +0.000 OA
ATOM     12  C   UNL     1       1.256  10.941  19.544  0.00  0.00    +0.000 C 
ATOM     13  C   UNL     1       0.981  10.577  20.805  0.00  0.00    +0.000 C 
ATOM     14  C   UNL     1       1.109   9.194  21.281  0.00  0.00    +0.000 C 
ATOM     15  O   UNL     1       0.839   8.913  22.441  0.00  0.00    +0.000 OA
ENDROOT
BRANCH  12  16
ATOM     16  C   UNL     1       1.086  12.358  19.199  0.00  0.00    +0.000 A 
ATOM     17  C   UNL     1       2.135  13.267  19.396  0.00  0.00    +0.000 A 
ATOM     18  C   UNL     1       1.928  14.635  19.220  0.00  0.00    +0.000 A 
ATOM     19  C   UNL     1       0.678  15.103  18.819  0.00  0.00    +0.000 A 
ATOM     20  C   UNL     1      -0.358  14.204  18.571  0.00  0.00    +0.000 A 
ATOM     21  C   UNL     1      -0.159  12.835  18.766  0.00  0.00    +0.000 A 
ENDBRANCH  12  16
BRANCH   1  22
ATOM     22  C   UNL     1       2.873   2.635  18.526  0.00  0.00    +0.000 C 
ATOM     23  O   UNL     1       3.373   1.999  17.603  0.00  0.00    +0.000 OA
BRANCH  22  25
ATOM     24  C   UNL     1       0.588   2.162  18.712  0.00  0.00    +0.000 C 
ATOM     25  O   UNL     1       1.879   2.166  19.327  0.00  0.00    +0.000 OA
ENDBRANCH  22  25
ENDBRANCH   1  22
BRANCH   1  26
ATOM     26  C   UNL     1       4.775   4.066  19.184  0.00  0.00    +0.000 C 
ATOM     27  O   UNL     1       5.348   3.245  19.888  0.00  0.00    +0.000 OA
BRANCH  26  28
ATOM     28  O   UNL     1       5.419   5.076  18.530  0.00  0.00    +0.000 OA
ATOM     29  C   UNL     1       6.684   4.716  17.972  0.00  0.00    +0.000 C 
ENDBRANCH  26  28
ENDBRANCH   1  26
TORSDOF 5
ENDMDL
