MODEL 1
REMARK VINA RESULT:      -8.0      0.000      0.000
REMARK  Name = 
REMARK  2 active torsions:
REMARK  status: ('A' for Active; 'I' for Inactive)
REMARK    1  A    between atoms: C_1  and  N_2
REMARK    2  A    between atoms: C_8  and  N_9
REMARK                            x       y       z     vdW  Elec       q    Type
REMARK                         _______ _______ _______ _____ _____    ______ ____
ROOT
ATOM      1  N   UNL     1       2.100   8.259  19.404  0.00  0.00    +0.000 N 
ATOM      2  C   UNL     1       2.095   6.946  19.058  0.00  0.00    +0.000 C 
ATOM      3  N   UNL     1       2.410   6.575  17.854  0.00  0.00    +0.000 NA
ATOM      4  C   UNL     1       2.170   5.133  17.882  0.00  0.00    +0.000 C 
ATOM      5  C   UNL     1       2.157   4.739  19.361  0.00  0.00    +0.000 C 
ATOM      6  C   UNL     1       3.538   4.265  19.902  0.00  0.00    +0.000 C 
ATOM      7  N   UNL     1       3.508   2.857  20.401  0.00  0.00    +0.000 NA
ATOM      8  C   UNL     1       2.524   2.751  21.503  0.00  0.00    +0.000 C 
ATOM      9  C   UNL     1       1.104   3.083  21.028  0.00  0.00    +0.000 C 
ATOM     10  C   UNL     1       1.148   3.576  19.573  0.00  0.00    +0.000 C 
ATOM     11  C   UNL     1       1.680   2.364  18.767  0.00  0.00    +0.000 C 
ATOM     12  C   UNL     1       3.074   1.973  19.297  0.00  0.00    +0.000 C 
ATOM     13  O   UNL     1       1.785   5.978  19.978  0.00  0.00    +0.000 OA
ATOM     14  H   UNL     1       2.171   8.841  18.579  0.00  0.00    +0.000 HD
ENDROOT
BRANCH   1  22
ATOM     15  C   UNL     1      -1.824  12.198  20.014  0.00  0.00    +0.000 C 
ATOM     16  N   UNL     1      -1.226  11.486  21.122  0.00  0.00    +0.000 N 
ATOM     17  C   UNL     1      -1.550  11.695  22.436  0.00  0.00    +0.000 A 
ATOM     18  N   UNL     1      -0.887  10.885  23.227  0.00  0.00    +0.000 NA
ATOM     19  C   UNL     1      -0.096  10.132  22.391  0.00  0.00    +0.000 A 
ATOM     20  C   UNL     1       0.811   9.122  22.690  0.00  0.00    +0.000 A 
ATOM     21  N   UNL     1       1.503   8.508  21.701  0.00  0.00    +0.000 NA
ATOM     22  C   UNL     1       1.335   8.871  20.411  0.00  0.00    +0.000 A 
ATOM     23  C   UNL     1       0.441   9.886  20.027  0.00  0.00    +0.000 A 
ATOM     24  C   UNL     1      -0.276  10.499  21.059  0.00  0.00    +0.000 A 
ENDBRANCH   1  22
TORSDOF 1
ENDMDL
MODEL 2
REMARK VINA RESULT:      -7.7      1.723      2.236
REMARK  Name = 
REMARK  2 active torsions:
REMARK  status: ('A' for Active; 'I' for Inactive)
REMARK    1  A    between atoms: C_1  and  N_2
REMARK    2  A    between atoms: C_8  and  N_9
REMARK                            x       y       z     vdW  Elec       q    Type
REMARK                         _______ _______ _______ _____ _____    ______ ____
ROOT
ATOM      1  N   UNL     1       2.642   8.408  18.354  0.00  0.00    +0.000 N 
ATOM      2  C   UNL     1       2.758   7.061  18.229  0.00  0.00    +0.000 C 
ATOM      3  N   UNL     1       3.632   6.541  17.421  0.00  0.00    +0.000 NA
ATOM      4  C   UNL     1       3.349   5.109  17.509  0.00  0.00    +0.000 C 
ATOM      5  C   UNL     1       2.558   4.917  18.805  0.00  0.00    +0.000 C 
ATOM      6  C   UNL     1       3.440   4.561  20.038  0.00  0.00    +0.000 C 
ATOM      7  N   UNL     1       3.095   3.233  20.629  0.00  0.00    +0.000 NA
ATOM      8  C   UNL     1       1.681   3.246  21.067  0.00  0.00    +0.000 C 
ATOM      9  C   UNL     1       0.725   3.469  19.889  0.00  0.00    +0.000 C 
ATOM     10  C   UNL     1       1.535   3.763  18.616  0.00  0.00    +0.000 C 
ATOM     11  C   UNL     1       2.352   2.470  18.366  0.00  0.00    +0.000 C 
ATOM     12  C   UNL     1       3.254   2.196  19.586  0.00  0.00    +0.000 C 
ATOM     13  O   UNL     1       1.976   6.216  18.974  0.00  0.00    +0.000 OA
ATOM     14  H   UNL     1       3.153   8.875  17.616  0.00  0.00    +0.000 HD
ENDROOT
BRANCH   1  22
ATOM     15  C   UNL     1      -2.247  10.105  16.231  0.00  0.00    +0.000 C 
ATOM     16  N   UNL     1      -1.792  10.442  17.563  0.00  0.00    +0.000 N 
ATOM     17  C   UNL     1      -2.502  11.211  18.446  0.00  0.00    +0.000 A 
ATOM     18  N   UNL     1      -1.875  11.323  19.594  0.00  0.00    +0.000 NA
ATOM     19  C   UNL     1      -0.709  10.609  19.439  0.00  0.00    +0.000 A 
ATOM     20  C   UNL     1       0.331  10.392  20.336  0.00  0.00    +0.000 A 
ATOM     21  N   UNL     1       1.406   9.654  19.970  0.00  0.00    +0.000 NA
ATOM     22  C   UNL     1       1.495   9.126  18.731  0.00  0.00    +0.000 A 
ATOM     23  C   UNL     1       0.489   9.303  17.766  0.00  0.00    +0.000 A 
ATOM     24  C   UNL     1      -0.621  10.055  18.164  0.00  0.00    +0.000 A 
ENDBRANCH   1  22
TORSDOF 1
ENDMDL
MODEL 3
REMARK VINA RESULT:      -7.6      1.377      2.411
REMARK  Name = 
REMARK  2 active torsions:
REMARK  status: ('A' for Active; 'I' for Inactive)
REMARK    1  A    between atoms: C_1  and  N_2
REMARK    2  A    between atoms: C_8  and  N_9
REMARK                            x       y       z     vdW  Elec       q    Type
REMARK                         _______ _______ _______ _____ _____    ______ ____
ROOT
ATOM      1  N   UNL     1       3.314   7.811  18.061  0.00  0.00    +0.000 N 
ATOM      2  C   UNL     1       3.323   6.466  17.874  0.00  0.00    +0.000 C 
ATOM      3  N   UNL     1       4.164   5.914  17.053  0.00  0.00    +0.000 NA
ATOM      4  C   UNL     1       3.764   4.508  17.070  0.00  0.00    +0.000 C 
ATOM      5  C   UNL     1       2.941   4.322  18.347  0.00  0.00    +0.000 C 
ATOM      6  C   UNL     1       3.771   3.839  19.572  0.00  0.00    +0.000 C 
ATOM      7  N   UNL     1       3.311   2.517  20.095  0.00  0.00    +0.000 NA
ATOM      8  C   UNL     1       1.896   2.626  20.518  0.00  0.00    +0.000 C 
ATOM      9  C   UNL     1       0.979   2.981  19.340  0.00  0.00    +0.000 C 
ATOM     10  C   UNL     1       1.830   3.265  18.092  0.00  0.00    +0.000 C 
ATOM     11  C   UNL     1       2.543   1.923  17.791  0.00  0.00    +0.000 C 
ATOM     12  C   UNL     1       3.401   1.520  19.007  0.00  0.00    +0.000 C 
ATOM     13  O   UNL     1       2.463   5.655  18.570  0.00  0.00    +0.000 OA
ATOM     14  H   UNL     1       3.873   8.268  17.352  0.00  0.00    +0.000 HD
ENDROOT
BRANCH   1  22
ATOM     15  C   UNL     1       0.591   9.339  22.701  0.00  0.00    +0.000 C 
ATOM     16  N   UNL     1       0.183   9.729  21.369  0.00  0.00    +0.000 N 
ATOM     17  C   UNL     1      -0.908  10.510  21.096  0.00  0.00    +0.000 A 
ATOM     18  N   UNL     1      -1.020  10.742  19.809  0.00  0.00    +0.000 NA
ATOM     19  C   UNL     1       0.034  10.075  19.229  0.00  0.00    +0.000 A 
ATOM     20  C   UNL     1       0.401   9.977  17.892  0.00  0.00    +0.000 A 
ATOM     21  N   UNL     1       1.486   9.250  17.532  0.00  0.00    +0.000 NA
ATOM     22  C   UNL     1       2.224   8.602  18.459  0.00  0.00    +0.000 A 
ATOM     23  C   UNL     1       1.916   8.648  19.830  0.00  0.00    +0.000 A 
ATOM     24  C   UNL     1       0.801   9.414  20.186  0.00  0.00    +0.000 A 
ENDBRANCH   1  22
TORSDOF 1
ENDMDL
MODEL 4
REMARK VINA RESULT:      -7.4      1.706      7.855
REMARK  Name = 
REMARK  2 active torsions:
REMARK  status: ('A' for Active; 'I' for Inactive)
REMARK    1  A    between atoms: C_1  and  N_2
REMARK    2  A    between atoms: C_8  and  N_9
REMARK                            x       y       z     vdW  Elec       q    Type
REMARK                         _______ _______ _______ _____ _____    ______ ____
ROOT
ATOM      1  N   UNL     1       1.861   8.058  21.461  0.00  0.00    +0.000 N 
ATOM      2  C   UNL     1       1.029   9.131  21.512  0.00  0.00    +0.000 C 
ATOM      3  N   UNL     1       0.609   9.592  22.651  0.00  0.00    +0.000 NA
ATOM      4  C   UNL     1      -0.324  10.645  22.255  0.00  0.00    +0.000 C 
ATOM      5  C   UNL     1       0.026  10.991  20.805  0.00  0.00    +0.000 C 
ATOM      6  C   UNL     1       1.027  12.173  20.660  0.00  0.00    +0.000 C 
ATOM      7  N   UNL     1       0.452  13.326  19.903  0.00  0.00    +0.000 NA
ATOM      8  C   UNL     1       0.075  12.878  18.543  0.00  0.00    +0.000 C 
ATOM      9  C   UNL     1      -1.006  11.791  18.585  0.00  0.00    +0.000 C 
ATOM     10  C   UNL     1      -1.272  11.382  20.043  0.00  0.00    +0.000 C 
ATOM     11  C   UNL     1      -1.820  12.667  20.715  0.00  0.00    +0.000 C 
ATOM     12  C   UNL     1      -0.768  13.788  20.601  0.00  0.00    +0.000 C 
ATOM     13  O   UNL     1       0.637   9.771  20.365  0.00  0.00    +0.000 OA
ATOM     14  H   UNL     1       1.905   7.604  22.364  0.00  0.00    +0.000 HD
ENDROOT
BRANCH   1  22
ATOM     15  C   UNL     1       1.360   2.579  20.457  0.00  0.00    +0.000 C 
ATOM     16  N   UNL     1       1.802   3.537  19.466  0.00  0.00    +0.000 N 
ATOM     17  C   UNL     1       2.146   3.212  18.181  0.00  0.00    +0.000 A 
ATOM     18  N   UNL     1       2.467   4.279  17.488  0.00  0.00    +0.000 NA
ATOM     19  C   UNL     1       2.338   5.331  18.365  0.00  0.00    +0.000 A 
ATOM     20  C   UNL     1       2.554   6.691  18.167  0.00  0.00    +0.000 A 
ATOM     21  N   UNL     1       2.373   7.567  19.183  0.00  0.00    +0.000 NA
ATOM     22  C   UNL     1       1.992   7.140  20.406  0.00  0.00    +0.000 A 
ATOM     23  C   UNL     1       1.758   5.783  20.688  0.00  0.00    +0.000 A 
ATOM     24  C   UNL     1       1.935   4.893  19.624  0.00  0.00    +0.000 A 
ENDBRANCH   1  22
TORSDOF 1
ENDMDL
MODEL 5
REMARK VINA RESULT:      -7.3      2.682      4.070
REMARK  Name = 
REMARK  2 active torsions:
REMARK  status: ('A' for Active; 'I' for Inactive)
REMARK    1  A    between atoms: C_1  and  N_2
REMARK    2  A    between atoms: C_8  and  N_9
REMARK                            x       y       z     vdW  Elec       q    Type
REMARK                         _______ _______ _______ _____ _____    ______ ____
ROOT
ATOM      1  N   UNL     1       2.215   6.191  20.106  0.00  0.00    +0.000 N 
ATOM      2  C   UNL     1       3.352   5.678  19.569  0.00  0.00    +0.000 C 
ATOM      3  N   UNL     1       3.919   4.631  20.087  0.00  0.00    +0.000 NA
ATOM      4  C   UNL     1       5.139   4.491  19.293  0.00  0.00    +0.000 C 
ATOM      5  C   UNL     1       4.897   5.290  18.010  0.00  0.00    +0.000 C 
ATOM      6  C   UNL     1       4.334   4.441  16.833  0.00  0.00    +0.000 C 
ATOM      7  N   UNL     1       5.242   4.429  15.646  0.00  0.00    +0.000 NA
ATOM      8  C   UNL     1       5.429   5.815  15.161  0.00  0.00    +0.000 C 
ATOM      9  C   UNL     1       6.096   6.700  16.221  0.00  0.00    +0.000 C 
ATOM     10  C   UNL     1       6.238   5.915  17.534  0.00  0.00    +0.000 C 
ATOM     11  C   UNL     1       7.186   4.741  17.187  0.00  0.00    +0.000 C 
ATOM     12  C   UNL     1       6.557   3.895  16.062  0.00  0.00    +0.000 C 
ATOM     13  O   UNL     1       3.913   6.236  18.449  0.00  0.00    +0.000 OA
ATOM     14  H   UNL     1       2.040   5.782  21.015  0.00  0.00    +0.000 HD
ENDROOT
BRANCH   1  22
ATOM     15  C   UNL     1      -0.464   9.987  23.220  0.00  0.00    +0.000 C 
ATOM     16  N   UNL     1      -0.041  10.224  21.857  0.00  0.00    +0.000 N 
ATOM     17  C   UNL     1      -0.250  11.396  21.180  0.00  0.00    +0.000 A 
ATOM     18  N   UNL     1       0.272  11.352  19.976  0.00  0.00    +0.000 NA
ATOM     19  C   UNL     1       0.828  10.098  19.870  0.00  0.00    +0.000 A 
ATOM     20  C   UNL     1       1.509   9.511  18.809  0.00  0.00    +0.000 A 
ATOM     21  N   UNL     1       1.972   8.242  18.913  0.00  0.00    +0.000 NA
ATOM     22  C   UNL     1       1.774   7.522  20.037  0.00  0.00    +0.000 A 
ATOM     23  C   UNL     1       1.091   8.043  21.151  0.00  0.00    +0.000 A 
ATOM     24  C   UNL     1       0.632   9.358  21.034  0.00  0.00    +0.000 A 
ENDBRANCH   1  22
TORSDOF 1
ENDMDL
MODEL 6
REMARK VINA RESULT:      -7.0      1.757      2.365
REMARK  Name = 
REMARK  2 active torsions:
REMARK  status: ('A' for Active; 'I' for Inactive)
REMARK    1  A    between atoms: C_1  and  N_2
REMARK    2  A    between atoms: C_8  and  N_9
REMARK                            x       y       z     vdW  Elec       q    Type
REMARK                         _______ _______ _______ _____ _____    ______ ____
ROOT
ATOM      1  N   UNL     1       2.670   8.766  18.168  0.00  0.00    +0.000 N 
ATOM      2  C   UNL     1       2.889   7.430  18.072  0.00  0.00    +0.000 C 
ATOM      3  N   UNL     1       3.931   6.969  17.449  0.00  0.00    +0.000 NA
ATOM      4  C   UNL     1       3.723   5.522  17.485  0.00  0.00    +0.000 C 
ATOM      5  C   UNL     1       2.711   5.273  18.607  0.00  0.00    +0.000 C 
ATOM      6  C   UNL     1       3.361   4.960  19.987  0.00  0.00    +0.000 C 
ATOM      7  N   UNL     1       2.989   3.609  20.505  0.00  0.00    +0.000 NA
ATOM      8  C   UNL     1       1.519   3.535  20.665  0.00  0.00    +0.000 C 
ATOM      9  C   UNL     1       0.795   3.710  19.325  0.00  0.00    +0.000 C 
ATOM     10  C   UNL     1       1.814   4.062  18.229  0.00  0.00    +0.000 C 
ATOM     11  C   UNL     1       2.740   2.822  18.145  0.00  0.00    +0.000 C 
ATOM     12  C   UNL     1       3.407   2.592  19.516  0.00  0.00    +0.000 C 
ATOM     13  O   UNL     1       2.031   6.534  18.657  0.00  0.00    +0.000 OA
ATOM     14  H   UNL     1       3.285   9.269  17.540  0.00  0.00    +0.000 HD
ENDROOT
BRANCH   1  22
ATOM     15  C   UNL     1       0.131  12.456  21.519  0.00  0.00    +0.000 C 
ATOM     16  N   UNL     1      -0.528  11.789  20.417  0.00  0.00    +0.000 N 
ATOM     17  C   UNL     1      -1.839  11.985  20.073  0.00  0.00    +0.000 A 
ATOM     18  N   UNL     1      -2.164  11.286  19.010  0.00  0.00    +0.000 NA
ATOM     19  C   UNL     1      -1.021  10.605  18.663  0.00  0.00    +0.000 A 
ATOM     20  C   UNL     1      -0.793   9.716  17.618  0.00  0.00    +0.000 A 
ATOM     21  N   UNL     1       0.423   9.143  17.461  0.00  0.00    +0.000 NA
ATOM     22  C   UNL     1       1.432   9.412  18.317  0.00  0.00    +0.000 A 
ATOM     23  C   UNL     1       1.281  10.294  19.400  0.00  0.00    +0.000 A 
ATOM     24  C   UNL     1       0.023  10.889  19.540  0.00  0.00    +0.000 A 
ENDBRANCH   1  22
TORSDOF 1
ENDMDL
MODEL 7
REMARK VINA RESULT:      -6.8      1.609      7.307
REMARK  Name = 
REMARK  2 active torsions:
REMARK  status: ('A' for Active; 'I' for Inactive)
REMARK    1  A    between atoms: C_1  and  N_2
REMARK    2  A    between atoms: C_8  and  N_9
REMARK                            x       y       z     vdW  Elec       q    Type
REMARK                         _______ _______ _______ _____ _____    ______ ____
ROOT
ATOM      1  N   UNL     1       2.450   7.459  17.471  0.00  0.00    +0.000 N 
ATOM      2  C   UNL     1       2.039   8.564  18.144  0.00  0.00    +0.000 C 
ATOM      3  N   UNL     1       1.910   9.704  17.535  0.00  0.00    +0.000 NA
ATOM      4  C   UNL     1       1.567  10.620  18.622  0.00  0.00    +0.000 C 
ATOM      5  C   UNL     1       1.068   9.739  19.770  0.00  0.00    +0.000 C 
ATOM      6  C   UNL     1      -0.476   9.541  19.790  0.00  0.00    +0.000 C 
ATOM      7  N   UNL     1      -1.107  10.060  21.041  0.00  0.00    +0.000 NA
ATOM      8  C   UNL     1      -0.540   9.346  22.207  0.00  0.00    +0.000 C 
ATOM      9  C   UNL     1       0.969   9.587  22.339  0.00  0.00    +0.000 C 
ATOM     10  C   UNL     1       1.473  10.385  21.125  0.00  0.00    +0.000 C 
ATOM     11  C   UNL     1       0.733  11.744  21.217  0.00  0.00    +0.000 C 
ATOM     12  C   UNL     1      -0.788  11.499  21.169  0.00  0.00    +0.000 C 
ATOM     13  O   UNL     1       1.721   8.498  19.476  0.00  0.00    +0.000 OA
ATOM     14  H   UNL     1       2.810   7.715  16.560  0.00  0.00    +0.000 HD
ENDROOT
BRANCH   1  22
ATOM     15  C   UNL     1       1.430   2.186  19.034  0.00  0.00    +0.000 C 
ATOM     16  N   UNL     1       2.717   2.831  19.184  0.00  0.00    +0.000 N 
ATOM     17  C   UNL     1       3.822   2.227  19.723  0.00  0.00    +0.000 A 
ATOM     18  N   UNL     1       4.862   3.026  19.698  0.00  0.00    +0.000 NA
ATOM     19  C   UNL     1       4.407   4.194  19.133  0.00  0.00    +0.000 A 
ATOM     20  C   UNL     1       5.083   5.380  18.867  0.00  0.00    +0.000 A 
ATOM     21  N   UNL     1       4.432   6.427  18.305  0.00  0.00    +0.000 NA
ATOM     22  C   UNL     1       3.119   6.345  18.004  0.00  0.00    +0.000 A 
ATOM     23  C   UNL     1       2.365   5.184  18.246  0.00  0.00    +0.000 A 
ATOM     24  C   UNL     1       3.054   4.107  18.813  0.00  0.00    +0.000 A 
ENDBRANCH   1  22
TORSDOF 1
ENDMDL
MODEL 8
REMARK VINA RESULT:      -6.7      5.478      7.677
REMARK  Name = 
REMARK  2 active torsions:
REMARK  status: ('A' for Active; 'I' for Inactive)
REMARK    1  A    between atoms: C_1  and  N_2
REMARK    2  A    between atoms: C_8  and  N_9
REMARK                            x       y       z     vdW  Elec       q    Type
REMARK                         _______ _______ _______ _____ _____    ______ ____
ROOT
ATOM      1  N   UNL     1      -4.780  12.047  18.101  0.00  0.00    +0.000 N 
ATOM      2  C   UNL     1      -3.503  11.598  17.996  0.00  0.00    +0.000 C 
ATOM      3  N   UNL     1      -2.996  11.298  16.838  0.00  0.00    +0.000 NA
ATOM      4  C   UNL     1      -1.680  10.765  17.184  0.00  0.00    +0.000 C 
ATOM      5  C   UNL     1      -1.383  11.266  18.600  0.00  0.00    +0.000 C 
ATOM      6  C   UNL     1      -0.576  12.596  18.644  0.00  0.00    +0.000 C 
ATOM      7  N   UNL     1       0.741  12.448  19.335  0.00  0.00    +0.000 NA
ATOM      8  C   UNL     1       0.513  12.004  20.729  0.00  0.00    +0.000 C 
ATOM      9  C   UNL     1      -0.172  10.634  20.782  0.00  0.00    +0.000 C 
ATOM     10  C   UNL     1      -0.556  10.193  19.361  0.00  0.00    +0.000 C 
ATOM     11  C   UNL     1       0.796  10.053  18.617  0.00  0.00    +0.000 C 
ATOM     12  C   UNL     1       1.528  11.410  18.634  0.00  0.00    +0.000 C 
ATOM     13  O   UNL     1      -2.707  11.476  19.106  0.00  0.00    +0.000 OA
ATOM     14  H   UNL     1      -5.275  11.907  17.229  0.00  0.00    +0.000 HD
ENDROOT
BRANCH   1  22
ATOM     15  C   UNL     1      -5.557  14.269  23.174  0.00  0.00    +0.000 C 
ATOM     16  N   UNL     1      -6.339  13.169  22.654  0.00  0.00    +0.000 N 
ATOM     17  C   UNL     1      -7.350  12.551  23.341  0.00  0.00    +0.000 A 
ATOM     18  N   UNL     1      -7.917  11.614  22.618  0.00  0.00    +0.000 NA
ATOM     19  C   UNL     1      -7.236  11.621  21.422  0.00  0.00    +0.000 A 
ATOM     20  C   UNL     1      -7.414  10.833  20.290  0.00  0.00    +0.000 A 
ATOM     21  N   UNL     1      -6.616  11.001  19.208  0.00  0.00    +0.000 NA
ATOM     22  C   UNL     1      -5.631  11.924  19.211  0.00  0.00    +0.000 A 
ATOM     23  C   UNL     1      -5.384  12.755  20.318  0.00  0.00    +0.000 A 
ATOM     24  C   UNL     1      -6.226  12.579  21.421  0.00  0.00    +0.000 A 
ENDBRANCH   1  22
TORSDOF 1
ENDMDL
MODEL 9
REMARK VINA RESULT:      -6.6      3.087      4.369
REMARK  Name = 
REMARK  2 active torsions:
REMARK  status: ('A' for Active; 'I' for Inactive)
REMARK    1  A    between atoms: C_1  and  N_2
REMARK    2  A    between atoms: C_8  and  N_9
REMARK                            x       y       z     vdW  Elec       q    Type
REMARK                         _______ _______ _______ _____ _____    ______ ____
ROOT
ATOM      1  N   UNL     1       1.838   7.294  17.999  0.00  0.00    +0.000 N 
ATOM      2  C   UNL     1       2.943   6.504  18.032  0.00  0.00    +0.000 C 
ATOM      3  N   UNL     1       2.835   5.212  18.111  0.00  0.00    +0.000 NA
ATOM      4  C   UNL     1       4.224   4.773  18.231  0.00  0.00    +0.000 C 
ATOM      5  C   UNL     1       5.077   5.940  17.726  0.00  0.00    +0.000 C 
ATOM      6  C   UNL     1       5.444   5.848  16.216  0.00  0.00    +0.000 C 
ATOM      7  N   UNL     1       6.919   5.779  15.985  0.00  0.00    +0.000 NA
ATOM      8  C   UNL     1       7.557   6.996  16.537  0.00  0.00    +0.000 C 
ATOM      9  C   UNL     1       7.350   7.105  18.053  0.00  0.00    +0.000 C 
ATOM     10  C   UNL     1       6.408   5.987  18.527  0.00  0.00    +0.000 C 
ATOM     11  C   UNL     1       7.171   4.674  18.214  0.00  0.00    +0.000 C 
ATOM     12  C   UNL     1       7.455   4.600  16.700  0.00  0.00    +0.000 C 
ATOM     13  O   UNL     1       4.199   7.049  17.953  0.00  0.00    +0.000 OA
ATOM     14  H   UNL     1       1.016   6.758  18.246  0.00  0.00    +0.000 HD
ENDROOT
BRANCH   1  22
ATOM     15  C   UNL     1      -0.054  10.285  22.330  0.00  0.00    +0.000 C 
ATOM     16  N   UNL     1       0.511  10.875  21.136  0.00  0.00    +0.000 N 
ATOM     17  C   UNL     1       0.645  12.223  20.932  0.00  0.00    +0.000 A 
ATOM     18  N   UNL     1       1.226  12.477  19.783  0.00  0.00    +0.000 NA
ATOM     19  C   UNL     1       1.466  11.246  19.220  0.00  0.00    +0.000 A 
ATOM     20  C   UNL     1       2.059  10.920  18.004  0.00  0.00    +0.000 A 
ATOM     21  N   UNL     1       2.190   9.625  17.633  0.00  0.00    +0.000 NA
ATOM     22  C   UNL     1       1.741   8.628  18.425  0.00  0.00    +0.000 A 
ATOM     23  C   UNL     1       1.127   8.875  19.666  0.00  0.00    +0.000 A 
ATOM     24  C   UNL     1       1.012  10.217  20.041  0.00  0.00    +0.000 A 
ENDBRANCH   1  22
TORSDOF 1
ENDMDL
