MODEL 1
REMARK VINA RESULT:      -6.1      0.000      0.000
REMARK  Name = 
REMARK  7 active torsions:
REMARK  status: ('A' for Active; 'I' for Inactive)
REMARK    1  A    between atoms: C_1  and  C_2
REMARK    2  A    between atoms: C_2  and  C_3
REMARK    3  A    between atoms: C_3  and  C_4
REMARK    4  A    between atoms: C_4  and  C_5
REMARK    5  A    between atoms: C_10  and  C_12
REMARK    6  A    between atoms: C_12  and  O_13
REMARK    7  A    between atoms: O_13  and  C_14
REMARK                            x       y       z     vdW  Elec       q    Type
REMARK                         _______ _______ _______ _____ _____    ______ ____
ROOT
ATOM      1  C   UNL     1       6.722   4.535  15.765  0.00  0.00    +0.000 A 
ATOM      2  N   UNL     1       7.647   4.788  16.668  0.00  0.00    +0.000 NA
ATOM      3  N   UNL     1       7.219   4.475  17.950  0.00  0.00    +0.000 NA
ATOM      4  C   UNL     1       5.972   4.047  17.964  0.00  0.00    +0.000 A 
ATOM      5  N   UNL     1       5.313   3.655  19.110  0.00  0.00    +0.000 N 
ATOM      6  C   UNL     1       3.937   3.562  19.229  0.00  0.00    +0.000 C 
ATOM      7  O   UNL     1       3.109   3.753  18.354  0.00  0.00    +0.000 OA
ATOM      8  S   UNL     1       5.269   3.903  16.422  0.00  0.00    +0.000 S 
ATOM      9  H   UNL     1       5.883   3.627  19.943  0.00  0.00    +0.000 HD
ENDROOT
BRANCH   1  10
ATOM     10  C   UNL     1       6.851   4.746  14.289  0.00  0.00    +0.000 C 
BRANCH  10  11
ATOM     11  C   UNL     1       5.610   4.244  13.547  0.00  0.00    +0.000 C 
BRANCH  11  13
ATOM     12  C   UNL     1       4.749   3.011  11.531  0.00  0.00    +0.000 C 
ATOM     13  C   UNL     1       5.979   3.369  12.350  0.00  0.00    +0.000 C 
ENDBRANCH  11  13
ENDBRANCH  10  11
ENDBRANCH   1  10
BRANCH   6  14
ATOM     14  C   UNL     1       3.484   3.188  20.648  0.00  0.00    +0.000 C 
BRANCH  14  15
ATOM     15  O   UNL     1       2.328   2.363  20.569  0.00  0.00    +0.000 OA
ATOM     16  C   UNL     1       1.263   2.833  21.386  0.00  0.00    +0.000 C 
ENDBRANCH  14  15
ENDBRANCH   6  14
TORSDOF 5
ENDMDL
MODEL 2
REMARK VINA RESULT:      -6.0      3.437      4.766
REMARK  Name = 
REMARK  7 active torsions:
REMARK  status: ('A' for Active; 'I' for Inactive)
REMARK    1  A    between atoms: C_1  and  C_2
REMARK    2  A    between atoms: C_2  and  C_3
REMARK    3  A    between atoms: C_3  and  C_4
REMARK    4  A    between atoms: C_4  and  C_5
REMARK    5  A    between atoms: C_10  and  C_12
REMARK    6  A    between atoms: C_12  and  O_13
REMARK    7  A    between atoms: O_13  and  C_14
REMARK                            x       y       z     vdW  Elec       q    Type
REMARK                         _______ _______ _______ _____ _____    ______ ____
ROOT
ATOM      1  C   UNL     1       7.336   6.310  17.843  0.00  0.00    +0.000 A 
ATOM      2  N   UNL     1       7.314   6.040  16.554  0.00  0.00    +0.000 NA
ATOM      3  N   UNL     1       6.373   5.069  16.244  0.00  0.00    +0.000 NA
ATOM      4  C   UNL     1       5.762   4.612  17.318  0.00  0.00    +0.000 A 
ATOM      5  N   UNL     1       4.772   3.653  17.283  0.00  0.00    +0.000 N 
ATOM      6  C   UNL     1       4.379   2.892  18.371  0.00  0.00    +0.000 C 
ATOM      7  O   UNL     1       4.791   2.979  19.516  0.00  0.00    +0.000 OA
ATOM      8  S   UNL     1       6.213   5.393  18.761  0.00  0.00    +0.000 S 
ATOM      9  H   UNL     1       4.472   3.381  16.358  0.00  0.00    +0.000 HD
ENDROOT
BRANCH   1  10
ATOM     10  C   UNL     1       8.221   7.310  18.520  0.00  0.00    +0.000 C 
BRANCH  10  11
ATOM     11  C   UNL     1       8.096   8.689  17.870  0.00  0.00    +0.000 C 
BRANCH  11  13
ATOM     12  C   UNL     1       8.783  11.107  17.955  0.00  0.00    +0.000 C 
ATOM     13  C   UNL     1       8.922   9.742  18.609  0.00  0.00    +0.000 C 
ENDBRANCH  11  13
ENDBRANCH  10  11
ENDBRANCH   1  10
BRANCH   6  14
ATOM     14  C   UNL     1       3.318   1.842  18.014  0.00  0.00    +0.000 C 
BRANCH  14  15
ATOM     15  O   UNL     1       2.133   2.500  17.581  0.00  0.00    +0.000 OA
ATOM     16  C   UNL     1       1.164   2.619  18.615  0.00  0.00    +0.000 C 
ENDBRANCH  14  15
ENDBRANCH   6  14
TORSDOF 5
ENDMDL
MODEL 3
REMARK VINA RESULT:      -5.9      3.578      4.908
REMARK  Name = 
REMARK  7 active torsions:
REMARK  status: ('A' for Active; 'I' for Inactive)
REMARK    1  A    between atoms: C_1  and  C_2
REMARK    2  A    between atoms: C_2  and  C_3
REMARK    3  A    between atoms: C_3  and  C_4
REMARK    4  A    between atoms: C_4  and  C_5
REMARK    5  A    between atoms: C_10  and  C_12
REMARK    6  A    between atoms: C_12  and  O_13
REMARK    7  A    between atoms: O_13  and  C_14
REMARK                            x       y       z     vdW  Elec       q    Type
REMARK                         _______ _______ _______ _____ _____    ______ ____
ROOT
ATOM      1  C   UNL     1       7.349   6.812  18.038  0.00  0.00    +0.000 A 
ATOM      2  N   UNL     1       7.833   6.189  19.093  0.00  0.00    +0.000 NA
ATOM      3  N   UNL     1       7.189   4.983  19.323  0.00  0.00    +0.000 NA
ATOM      4  C   UNL     1       6.213   4.772  18.463  0.00  0.00    +0.000 A 
ATOM      5  N   UNL     1       5.427   3.639  18.463  0.00  0.00    +0.000 N 
ATOM      6  C   UNL     1       4.191   3.542  17.846  0.00  0.00    +0.000 C 
ATOM      7  O   UNL     1       3.636   4.397  17.175  0.00  0.00    +0.000 OA
ATOM      8  S   UNL     1       6.074   5.968  17.261  0.00  0.00    +0.000 S 
ATOM      9  H   UNL     1       5.708   2.923  19.118  0.00  0.00    +0.000 HD
ENDROOT
BRANCH   1  10
ATOM     10  C   UNL     1       7.816   8.129  17.501  0.00  0.00    +0.000 C 
BRANCH  10  11
ATOM     11  C   UNL     1       8.624   8.899  18.547  0.00  0.00    +0.000 C 
BRANCH  11  13
ATOM     12  C   UNL     1      10.020  10.963  18.203  0.00  0.00    +0.000 C 
ATOM     13  C   UNL     1       8.608  10.404  18.280  0.00  0.00    +0.000 C 
ENDBRANCH  11  13
ENDBRANCH  10  11
ENDBRANCH   1  10
BRANCH   6  14
ATOM     14  C   UNL     1       3.506   2.190  18.090  0.00  0.00    +0.000 C 
BRANCH  14  15
ATOM     15  O   UNL     1       2.170   2.246  17.602  0.00  0.00    +0.000 OA
ATOM     16  C   UNL     1       1.211   2.368  18.645  0.00  0.00    +0.000 C 
ENDBRANCH  14  15
ENDBRANCH   6  14
TORSDOF 5
ENDMDL
MODEL 4
REMARK VINA RESULT:      -5.9      1.187      1.326
REMARK  Name = 
REMARK  7 active torsions:
REMARK  status: ('A' for Active; 'I' for Inactive)
REMARK    1  A    between atoms: C_1  and  C_2
REMARK    2  A    between atoms: C_2  and  C_3
REMARK    3  A    between atoms: C_3  and  C_4
REMARK    4  A    between atoms: C_4  and  C_5
REMARK    5  A    between atoms: C_10  and  C_12
REMARK    6  A    between atoms: C_12  and  O_13
REMARK    7  A    between atoms: O_13  and  C_14
REMARK                            x       y       z     vdW  Elec       q    Type
REMARK                         _______ _______ _______ _____ _____    ______ ____
ROOT
ATOM      1  C   UNL     1       6.560   4.538  16.169  0.00  0.00    +0.000 A 
ATOM      2  N   UNL     1       7.408   4.571  17.176  0.00  0.00    +0.000 NA
ATOM      3  N   UNL     1       6.758   4.555  18.402  0.00  0.00    +0.000 NA
ATOM      4  C   UNL     1       5.447   4.561  18.266  0.00  0.00    +0.000 A 
ATOM      5  N   UNL     1       4.569   4.532  19.329  0.00  0.00    +0.000 N 
ATOM      6  C   UNL     1       3.238   4.906  19.257  0.00  0.00    +0.000 C 
ATOM      7  O   UNL     1       2.628   5.261  18.263  0.00  0.00    +0.000 OA
ATOM      8  S   UNL     1       4.914   4.490  16.651  0.00  0.00    +0.000 S 
ATOM      9  H   UNL     1       4.999   4.409  20.235  0.00  0.00    +0.000 HD
ENDROOT
BRANCH   1  10
ATOM     10  C   UNL     1       6.917   4.535  14.716  0.00  0.00    +0.000 C 
BRANCH  10  11
ATOM     11  C   UNL     1       5.754   4.031  13.860  0.00  0.00    +0.000 C 
BRANCH  11  13
ATOM     12  C   UNL     1       7.322   4.382  11.924  0.00  0.00    +0.000 C 
ATOM     13  C   UNL     1       6.232   3.497  12.510  0.00  0.00    +0.000 C 
ENDBRANCH  11  13
ENDBRANCH  10  11
ENDBRANCH   1  10
BRANCH   6  14
ATOM     14  C   UNL     1       2.530   4.855  20.618  0.00  0.00    +0.000 C 
BRANCH  14  15
ATOM     15  O   UNL     1       1.290   4.170  20.476  0.00  0.00    +0.000 OA
ATOM     16  C   UNL     1       1.445   2.757  20.468  0.00  0.00    +0.000 C 
ENDBRANCH  14  15
ENDBRANCH   6  14
TORSDOF 5
ENDMDL
MODEL 5
REMARK VINA RESULT:      -5.8      1.707      2.268
REMARK  Name = 
REMARK  7 active torsions:
REMARK  status: ('A' for Active; 'I' for Inactive)
REMARK    1  A    between atoms: C_1  and  C_2
REMARK    2  A    between atoms: C_2  and  C_3
REMARK    3  A    between atoms: C_3  and  C_4
REMARK    4  A    between atoms: C_4  and  C_5
REMARK    5  A    between atoms: C_10  and  C_12
REMARK    6  A    between atoms: C_12  and  O_13
REMARK    7  A    between atoms: O_13  and  C_14
REMARK                            x       y       z     vdW  Elec       q    Type
REMARK                         _______ _______ _______ _____ _____    ______ ____
ROOT
ATOM      1  C   UNL     1       6.720   4.565  13.621  0.00  0.00    +0.000 A 
ATOM      2  N   UNL     1       7.687   5.275  14.167  0.00  0.00    +0.000 NA
ATOM      3  N   UNL     1       7.551   5.361  15.545  0.00  0.00    +0.000 NA
ATOM      4  C   UNL     1       6.460   4.757  15.973  0.00  0.00    +0.000 A 
ATOM      5  N   UNL     1       6.101   4.682  17.302  0.00  0.00    +0.000 N 
ATOM      6  C   UNL     1       4.823   4.401  17.753  0.00  0.00    +0.000 C 
ATOM      7  O   UNL     1       3.847   4.126  17.074  0.00  0.00    +0.000 OA
ATOM      8  S   UNL     1       5.580   3.962  14.752  0.00  0.00    +0.000 S 
ATOM      9  H   UNL     1       6.784   5.047  17.951  0.00  0.00    +0.000 HD
ENDROOT
BRANCH   1  10
ATOM     10  C   UNL     1       6.563   4.265  12.163  0.00  0.00    +0.000 C 
BRANCH  10  11
ATOM     11  C   UNL     1       6.721   2.769  11.885  0.00  0.00    +0.000 C 
BRANCH  11  13
ATOM     12  C   UNL     1       4.320   3.182  11.259  0.00  0.00    +0.000 C 
ATOM     13  C   UNL     1       5.405   2.132  11.439  0.00  0.00    +0.000 C 
ENDBRANCH  11  13
ENDBRANCH  10  11
ENDBRANCH   1  10
BRANCH   6  14
ATOM     14  C   UNL     1       4.699   4.475  19.282  0.00  0.00    +0.000 C 
BRANCH  14  15
ATOM     15  O   UNL     1       5.272   3.305  19.856  0.00  0.00    +0.000 OA
ATOM     16  C   UNL     1       4.338   2.241  19.976  0.00  0.00    +0.000 C 
ENDBRANCH  14  15
ENDBRANCH   6  14
TORSDOF 5
ENDMDL
MODEL 6
REMARK VINA RESULT:      -5.8      1.680      2.386
REMARK  Name = 
REMARK  7 active torsions:
REMARK  status: ('A' for Active; 'I' for Inactive)
REMARK    1  A    between atoms: C_1  and  C_2
REMARK    2  A    between atoms: C_2  and  C_3
REMARK    3  A    between atoms: C_3  and  C_4
REMARK    4  A    between atoms: C_4  and  C_5
REMARK    5  A    between atoms: C_10  and  C_12
REMARK    6  A    between atoms: C_12  and  O_13
REMARK    7  A    between atoms: O_13  and  C_14
REMARK                            x       y       z     vdW  Elec       q    Type
REMARK                         _______ _______ _______ _____ _____    ______ ____
ROOT
ATOM      1  C   UNL     1       6.963   4.611  13.600  0.00  0.00    +0.000 A 
ATOM      2  N   UNL     1       7.788   5.505  14.106  0.00  0.00    +0.000 NA
ATOM      3  N   UNL     1       7.586   5.686  15.466  0.00  0.00    +0.000 NA
ATOM      4  C   UNL     1       6.584   4.958  15.918  0.00  0.00    +0.000 A 
ATOM      5  N   UNL     1       6.186   4.942  17.238  0.00  0.00    +0.000 N 
ATOM      6  C   UNL     1       4.949   4.505  17.679  0.00  0.00    +0.000 C 
ATOM      7  O   UNL     1       4.055   4.026  17.001  0.00  0.00    +0.000 OA
ATOM      8  S   UNL     1       5.884   3.936  14.751  0.00  0.00    +0.000 S 
ATOM      9  H   UNL     1       6.779   5.463  17.870  0.00  0.00    +0.000 HD
ENDROOT
BRANCH   1  10
ATOM     10  C   UNL     1       6.913   4.167  12.172  0.00  0.00    +0.000 C 
BRANCH  10  11
ATOM     11  C   UNL     1       6.123   2.865  12.024  0.00  0.00    +0.000 C 
BRANCH  11  13
ATOM     12  C   UNL     1       6.165   0.489  11.200  0.00  0.00    +0.000 C 
ATOM     13  C   UNL     1       6.890   1.826  11.207  0.00  0.00    +0.000 C 
ENDBRANCH  11  13
ENDBRANCH  10  11
ENDBRANCH   1  10
BRANCH   6  14
ATOM     14  C   UNL     1       4.754   4.689  19.191  0.00  0.00    +0.000 C 
BRANCH  14  15
ATOM     15  O   UNL     1       3.438   5.168  19.440  0.00  0.00    +0.000 OA
ATOM     16  C   UNL     1       2.723   4.351  20.357  0.00  0.00    +0.000 C 
ENDBRANCH  14  15
ENDBRANCH   6  14
TORSDOF 5
ENDMDL
MODEL 7
REMARK VINA RESULT:      -5.8      1.394      1.601
REMARK  Name = 
REMARK  7 active torsions:
REMARK  status: ('A' for Active; 'I' for Inactive)
REMARK    1  A    between atoms: C_1  and  C_2
REMARK    2  A    between atoms: C_2  and  C_3
REMARK    3  A    between atoms: C_3  and  C_4
REMARK    4  A    between atoms: C_4  and  C_5
REMARK    5  A    between atoms: C_10  and  C_12
REMARK    6  A    between atoms: C_12  and  O_13
REMARK    7  A    between atoms: O_13  and  C_14
REMARK                            x       y       z     vdW  Elec       q    Type
REMARK                         _______ _______ _______ _____ _____    ______ ____
ROOT
ATOM      1  C   UNL     1       5.833   4.541  16.537  0.00  0.00    +0.000 A 
ATOM      2  N   UNL     1       6.278   5.224  17.572  0.00  0.00    +0.000 NA
ATOM      3  N   UNL     1       5.376   5.211  18.626  0.00  0.00    +0.000 NA
ATOM      4  C   UNL     1       4.269   4.563  18.322  0.00  0.00    +0.000 A 
ATOM      5  N   UNL     1       3.220   4.391  19.200  0.00  0.00    +0.000 N 
ATOM      6  C   UNL     1       1.929   4.060  18.824  0.00  0.00    +0.000 C 
ATOM      7  O   UNL     1       1.532   3.820  17.696  0.00  0.00    +0.000 OA
ATOM      8  S   UNL     1       4.285   3.844  16.780  0.00  0.00    +0.000 S 
ATOM      9  H   UNL     1       3.390   4.719  20.140  0.00  0.00    +0.000 HD
ENDROOT
BRANCH   1  10
ATOM     10  C   UNL     1       6.552   4.341  15.239  0.00  0.00    +0.000 C 
BRANCH  10  11
ATOM     11  C   UNL     1       5.573   4.294  14.065  0.00  0.00    +0.000 C 
BRANCH  11  13
ATOM     12  C   UNL     1       5.084   3.191  11.857  0.00  0.00    +0.000 C 
ATOM     13  C   UNL     1       6.165   3.561  12.861  0.00  0.00    +0.000 C 
ENDBRANCH  11  13
ENDBRANCH  10  11
ENDBRANCH   1  10
BRANCH   6  14
ATOM     14  C   UNL     1       0.952   4.025  20.007  0.00  0.00    +0.000 C 
BRANCH  14  15
ATOM     15  O   UNL     1       1.688   3.909  21.220  0.00  0.00    +0.000 OA
ATOM     16  C   UNL     1       1.658   2.591  21.754  0.00  0.00    +0.000 C 
ENDBRANCH  14  15
ENDBRANCH   6  14
TORSDOF 5
ENDMDL
MODEL 8
REMARK VINA RESULT:      -5.7      1.668      1.933
REMARK  Name = 
REMARK  7 active torsions:
REMARK  status: ('A' for Active; 'I' for Inactive)
REMARK    1  A    between atoms: C_1  and  C_2
REMARK    2  A    between atoms: C_2  and  C_3
REMARK    3  A    between atoms: C_3  and  C_4
REMARK    4  A    between atoms: C_4  and  C_5
REMARK    5  A    between atoms: C_10  and  C_12
REMARK    6  A    between atoms: C_12  and  O_13
REMARK    7  A    between atoms: O_13  and  C_14
REMARK                            x       y       z     vdW  Elec       q    Type
REMARK                         _______ _______ _______ _____ _____    ______ ____
ROOT
ATOM      1  C   UNL     1       6.597   4.424  14.295  0.00  0.00    +0.000 A 
ATOM      2  N   UNL     1       7.495   5.260  14.774  0.00  0.00    +0.000 NA
ATOM      3  N   UNL     1       7.209   5.635  16.078  0.00  0.00    +0.000 NA
ATOM      4  C   UNL     1       6.081   5.108  16.509  0.00  0.00    +0.000 A 
ATOM      5  N   UNL     1       5.578   5.311  17.776  0.00  0.00    +0.000 N 
ATOM      6  C   UNL     1       4.259   5.098  18.140  0.00  0.00    +0.000 C 
ATOM      7  O   UNL     1       3.365   4.657  17.436  0.00  0.00    +0.000 OA
ATOM      8  S   UNL     1       5.342   4.046  15.402  0.00  0.00    +0.000 S 
ATOM      9  H   UNL     1       6.184   5.824  18.400  0.00  0.00    +0.000 HD
ENDROOT
BRANCH   1  10
ATOM     10  C   UNL     1       6.601   3.814  12.928  0.00  0.00    +0.000 C 
BRANCH  10  11
ATOM     11  C   UNL     1       5.274   4.057  12.208  0.00  0.00    +0.000 C 
BRANCH  11  13
ATOM     12  C   UNL     1       3.471   3.066  10.761  0.00  0.00    +0.000 C 
ATOM     13  C   UNL     1       4.780   2.802  11.488  0.00  0.00    +0.000 C 
ENDBRANCH  11  13
ENDBRANCH  10  11
ENDBRANCH   1  10
BRANCH   6  14
ATOM     14  C   UNL     1       3.969   5.494  19.594  0.00  0.00    +0.000 C 
BRANCH  14  15
ATOM     15  O   UNL     1       2.564   5.461  19.818  0.00  0.00    +0.000 OA
ATOM     16  C   UNL     1       2.211   4.698  20.965  0.00  0.00    +0.000 C 
ENDBRANCH  14  15
ENDBRANCH   6  14
TORSDOF 5
ENDMDL
MODEL 9
REMARK VINA RESULT:      -5.7      2.562      6.741
REMARK  Name = 
REMARK  7 active torsions:
REMARK  status: ('A' for Active; 'I' for Inactive)
REMARK    1  A    between atoms: C_1  and  C_2
REMARK    2  A    between atoms: C_2  and  C_3
REMARK    3  A    between atoms: C_3  and  C_4
REMARK    4  A    between atoms: C_4  and  C_5
REMARK    5  A    between atoms: C_10  and  C_12
REMARK    6  A    between atoms: C_12  and  O_13
REMARK    7  A    between atoms: O_13  and  C_14
REMARK                            x       y       z     vdW  Elec       q    Type
REMARK                         _______ _______ _______ _____ _____    ______ ____
ROOT
ATOM      1  C   UNL     1       2.220   3.344  18.563  0.00  0.00    +0.000 A 
ATOM      2  N   UNL     1       2.643   2.124  18.304  0.00  0.00    +0.000 NA
ATOM      3  N   UNL     1       3.855   2.128  17.630  0.00  0.00    +0.000 NA
ATOM      4  C   UNL     1       4.268   3.351  17.363  0.00  0.00    +0.000 A 
ATOM      5  N   UNL     1       5.452   3.632  16.715  0.00  0.00    +0.000 N 
ATOM      6  C   UNL     1       5.740   4.837  16.096  0.00  0.00    +0.000 C 
ATOM      7  O   UNL     1       5.040   5.835  16.071  0.00  0.00    +0.000 OA
ATOM      8  S   UNL     1       3.270   4.576  17.995  0.00  0.00    +0.000 S 
ATOM      9  H   UNL     1       6.041   2.832  16.533  0.00  0.00    +0.000 HD
ENDROOT
BRANCH   1  10
ATOM     10  C   UNL     1       0.958   3.706  19.282  0.00  0.00    +0.000 C 
BRANCH  10  11
ATOM     11  C   UNL     1       1.251   4.539  20.531  0.00  0.00    +0.000 C 
BRANCH  11  13
ATOM     12  C   UNL     1       1.512   2.471  21.939  0.00  0.00    +0.000 C 
ATOM     13  C   UNL     1       2.145   3.788  21.518  0.00  0.00    +0.000 C 
ENDBRANCH  11  13
ENDBRANCH  10  11
ENDBRANCH   1  10
BRANCH   6  14
ATOM     14  C   UNL     1       7.097   4.831  15.378  0.00  0.00    +0.000 C 
BRANCH  14  15
ATOM     15  O   UNL     1       6.898   5.110  13.997  0.00  0.00    +0.000 OA
ATOM     16  C   UNL     1       6.454   3.973  13.268  0.00  0.00    +0.000 C 
ENDBRANCH  14  15
ENDBRANCH   6  14
TORSDOF 5
ENDMDL
