MODEL 1
REMARK VINA RESULT:      -8.0      0.000      0.000
REMARK  Name = 
REMARK  1 active torsions:
REMARK  status: ('A' for Active; 'I' for Inactive)
REMARK    1  A    between atoms: C_3  and  C_4
REMARK                            x       y       z     vdW  Elec       q    Type
REMARK                         _______ _______ _______ _____ _____    ______ ____
ROOT
ATOM      1  C   UNL     1       4.341   6.195  17.417  0.00  0.00    +0.000 A 
ATOM      2  N   UNL     1       3.928   5.423  18.438  0.00  0.00    +0.000 NA
ATOM      3  C   UNL     1       2.934   5.828  19.287  0.00  0.00    +0.000 A 
ATOM      4  N   UNL     1       2.541   4.896  20.230  0.00  0.00    +0.000 N 
ATOM      5  C   UNL     1       1.184   4.732  20.752  0.00  0.00    +0.000 C 
ATOM      6  C   UNL     1       0.768   3.253  20.825  0.00  0.00    +0.000 C 
ATOM      7  N   UNL     1       1.727   2.451  21.603  0.00  0.00    +0.000 NA
ATOM      8  C   UNL     1       3.067   2.590  20.993  0.00  0.00    +0.000 C 
ATOM      9  C   UNL     1       3.559   4.052  20.869  0.00  0.00    +0.000 C 
ATOM     10  C   UNL     1       2.418   7.149  19.087  0.00  0.00    +0.000 A 
ATOM     11  C   UNL     1       1.518   8.049  19.819  0.00  0.00    +0.000 A 
ATOM     12  C   UNL     1       1.291   9.235  19.133  0.00  0.00    +0.000 A 
ATOM     13  S   UNL     1       2.211   9.338  17.710  0.00  0.00    +0.000 S 
ATOM     14  C   UNL     1       2.912   7.817  17.970  0.00  0.00    +0.000 A 
ATOM     15  N   UNL     1       3.849   7.392  17.112  0.00  0.00    +0.000 NA
ATOM     16  C   UNL     1       0.389  10.368  19.530  0.00  0.00    +0.000 C 
ATOM     17  C   UNL     1       0.777  10.974  20.877  0.00  0.00    +0.000 C 
ATOM     18  C   UNL     1       0.371  10.122  22.081  0.00  0.00    +0.000 C 
ATOM     19  C   UNL     1       1.180   8.844  22.224  0.00  0.00    +0.000 C 
ATOM     20  C   UNL     1       0.899   7.796  21.157  0.00  0.00    +0.000 C 
ATOM     21  H   UNL     1       1.443   1.474  21.573  0.00  0.00    +0.000 HD
ENDROOT
BRANCH   1  24
ATOM     22  C   UNL     1       6.355   5.135  14.398  0.00  0.00    +0.000 A 
ATOM     23  C   UNL     1       5.306   5.626  15.162  0.00  0.00    +0.000 A 
ATOM     24  C   UNL     1       5.430   5.682  16.560  0.00  0.00    +0.000 A 
ATOM     25  C   UNL     1       6.643   5.229  17.101  0.00  0.00    +0.000 A 
ATOM     26  C   UNL     1       7.638   4.748  16.260  0.00  0.00    +0.000 A 
ATOM     27  N   UNL     1       7.519   4.697  14.919  0.00  0.00    +0.000 NA
ENDBRANCH   1  24
TORSDOF 1
ENDMDL
MODEL 2
REMARK VINA RESULT:      -6.9      2.140      6.642
REMARK  Name = 
REMARK  1 active torsions:
REMARK  status: ('A' for Active; 'I' for Inactive)
REMARK    1  A    between atoms: C_3  and  C_4
REMARK                            x       y       z     vdW  Elec       q    Type
REMARK                         _______ _______ _______ _____ _____    ______ ____
ROOT
ATOM      1  C   UNL     1       2.730   7.404  18.539  0.00  0.00    +0.000 A 
ATOM      2  N   UNL     1       2.314   6.126  18.478  0.00  0.00    +0.000 NA
ATOM      3  C   UNL     1       3.063   5.156  17.870  0.00  0.00    +0.000 A 
ATOM      4  N   UNL     1       2.564   3.871  17.967  0.00  0.00    +0.000 N 
ATOM      5  C   UNL     1       3.365   2.650  18.064  0.00  0.00    +0.000 C 
ATOM      6  C   UNL     1       2.825   1.688  19.136  0.00  0.00    +0.000 C 
ATOM      7  N   UNL     1       1.405   1.365  18.917  0.00  0.00    +0.000 NA
ATOM      8  C   UNL     1       0.628   2.622  18.902  0.00  0.00    +0.000 C 
ATOM      9  C   UNL     1       1.115   3.656  17.857  0.00  0.00    +0.000 C 
ATOM     10  C   UNL     1       4.269   5.586  17.226  0.00  0.00    +0.000 A 
ATOM     11  C   UNL     1       5.261   4.974  16.334  0.00  0.00    +0.000 A 
ATOM     12  C   UNL     1       6.308   5.838  16.042  0.00  0.00    +0.000 A 
ATOM     13  S   UNL     1       6.071   7.380  16.710  0.00  0.00    +0.000 S 
ATOM     14  C   UNL     1       4.591   6.929  17.404  0.00  0.00    +0.000 A 
ATOM     15  N   UNL     1       3.877   7.862  18.047  0.00  0.00    +0.000 NA
ATOM     16  C   UNL     1       7.531   5.555  15.218  0.00  0.00    +0.000 C 
ATOM     17  C   UNL     1       7.185   5.151  13.787  0.00  0.00    +0.000 C 
ATOM     18  C   UNL     1       6.665   3.718  13.654  0.00  0.00    +0.000 C 
ATOM     19  C   UNL     1       5.275   3.518  14.233  0.00  0.00    +0.000 C 
ATOM     20  C   UNL     1       5.207   3.597  15.751  0.00  0.00    +0.000 C 
ATOM     21  H   UNL     1       1.078   0.776  19.681  0.00  0.00    +0.000 HD
ENDROOT
BRANCH   1  24
ATOM     22  C   UNL     1       0.508  10.394  19.184  0.00  0.00    +0.000 A 
ATOM     23  C   UNL     1       1.330   9.497  18.517  0.00  0.00    +0.000 A 
ATOM     24  C   UNL     1       1.848   8.387  19.203  0.00  0.00    +0.000 A 
ATOM     25  C   UNL     1       1.484   8.257  20.553  0.00  0.00    +0.000 A 
ATOM     26  C   UNL     1       0.659   9.207  21.140  0.00  0.00    +0.000 A 
ATOM     27  N   UNL     1       0.160  10.270  20.481  0.00  0.00    +0.000 NA
ENDBRANCH   1  24
TORSDOF 1
ENDMDL
MODEL 3
REMARK VINA RESULT:      -6.8      8.682     11.665
REMARK  Name = 
REMARK  1 active torsions:
REMARK  status: ('A' for Active; 'I' for Inactive)
REMARK    1  A    between atoms: C_3  and  C_4
REMARK                            x       y       z     vdW  Elec       q    Type
REMARK                         _______ _______ _______ _____ _____    ______ ____
ROOT
ATOM      1  C   UNL     1       7.833  12.806  22.607  0.00  0.00    +0.000 A 
ATOM      2  N   UNL     1       7.478  14.003  22.105  0.00  0.00    +0.000 NA
ATOM      3  C   UNL     1       7.874  14.405  20.859  0.00  0.00    +0.000 A 
ATOM      4  N   UNL     1       7.356  15.613  20.431  0.00  0.00    +0.000 N 
ATOM      5  C   UNL     1       7.017  15.953  19.048  0.00  0.00    +0.000 C 
ATOM      6  C   UNL     1       5.658  16.667  18.946  0.00  0.00    +0.000 C 
ATOM      7  N   UNL     1       5.599  17.861  19.807  0.00  0.00    +0.000 NA
ATOM      8  C   UNL     1       5.874  17.454  21.201  0.00  0.00    +0.000 C 
ATOM      9  C   UNL     1       7.220  16.715  21.393  0.00  0.00    +0.000 C 
ATOM     10  C   UNL     1       8.756  13.525  20.151  0.00  0.00    +0.000 A 
ATOM     11  C   UNL     1       9.554  13.601  18.921  0.00  0.00    +0.000 A 
ATOM     12  C   UNL     1      10.205  12.406  18.644  0.00  0.00    +0.000 A 
ATOM     13  S   UNL     1       9.977  11.253  19.869  0.00  0.00    +0.000 S 
ATOM     14  C   UNL     1       9.007  12.307  20.776  0.00  0.00    +0.000 A 
ATOM     15  N   UNL     1       8.572  11.899  21.975  0.00  0.00    +0.000 NA
ATOM     16  C   UNL     1      11.059  12.080  17.453  0.00  0.00    +0.000 C 
ATOM     17  C   UNL     1      12.263  13.011  17.330  0.00  0.00    +0.000 C 
ATOM     18  C   UNL     1      11.919  14.405  16.803  0.00  0.00    +0.000 C 
ATOM     19  C   UNL     1      11.141  15.255  17.792  0.00  0.00    +0.000 C 
ATOM     20  C   UNL     1       9.711  14.794  18.032  0.00  0.00    +0.000 C 
ATOM     21  H   UNL     1       4.666  18.264  19.751  0.00  0.00    +0.000 HD
ENDROOT
BRANCH   1  24
ATOM     22  C   UNL     1       7.458  12.709  26.367  0.00  0.00    +0.000 A 
ATOM     23  C   UNL     1       7.923  13.065  25.110  0.00  0.00    +0.000 A 
ATOM     24  C   UNL     1       7.371  12.463  23.968  0.00  0.00    +0.000 A 
ATOM     25  C   UNL     1       6.356  11.518  24.185  0.00  0.00    +0.000 A 
ATOM     26  C   UNL     1       5.956  11.219  25.481  0.00  0.00    +0.000 A 
ATOM     27  N   UNL     1       6.484  11.800  26.575  0.00  0.00    +0.000 NA
ENDBRANCH   1  24
TORSDOF 1
ENDMDL
MODEL 4
REMARK VINA RESULT:      -6.7      6.318      8.820
REMARK  Name = 
REMARK  1 active torsions:
REMARK  status: ('A' for Active; 'I' for Inactive)
REMARK    1  A    between atoms: C_3  and  C_4
REMARK                            x       y       z     vdW  Elec       q    Type
REMARK                         _______ _______ _______ _____ _____    ______ ____
ROOT
ATOM      1  C   UNL     1      -3.141  11.636  18.892  0.00  0.00    +0.000 A 
ATOM      2  N   UNL     1      -2.070  11.307  19.638  0.00  0.00    +0.000 NA
ATOM      3  C   UNL     1      -1.939  11.732  20.932  0.00  0.00    +0.000 A 
ATOM      4  N   UNL     1      -0.841  11.239  21.611  0.00  0.00    +0.000 N 
ATOM      5  C   UNL     1      -0.791  10.931  23.041  0.00  0.00    +0.000 C 
ATOM      6  C   UNL     1      -0.100   9.585  23.317  0.00  0.00    +0.000 C 
ATOM      7  N   UNL     1       1.246   9.527  22.723  0.00  0.00    +0.000 NA
ATOM      8  C   UNL     1       1.135   9.770  21.270  0.00  0.00    +0.000 C 
ATOM      9  C   UNL     1       0.437  11.102  20.901  0.00  0.00    +0.000 C 
ATOM     10  C   UNL     1      -2.955  12.615  21.423  0.00  0.00    +0.000 A 
ATOM     11  C   UNL     1      -3.144  13.437  22.625  0.00  0.00    +0.000 A 
ATOM     12  C   UNL     1      -4.376  14.076  22.635  0.00  0.00    +0.000 A 
ATOM     13  S   UNL     1      -5.248  13.809  21.204  0.00  0.00    +0.000 S 
ATOM     14  C   UNL     1      -4.020  12.837  20.554  0.00  0.00    +0.000 A 
ATOM     15  N   UNL     1      -4.166  12.374  19.306  0.00  0.00    +0.000 NA
ATOM     16  C   UNL     1      -4.951  14.947  23.714  0.00  0.00    +0.000 C 
ATOM     17  C   UNL     1      -4.078  16.167  24.002  0.00  0.00    +0.000 C 
ATOM     18  C   UNL     1      -2.819  15.853  24.813  0.00  0.00    +0.000 C 
ATOM     19  C   UNL     1      -1.775  15.068  24.038  0.00  0.00    +0.000 C 
ATOM     20  C   UNL     1      -2.162  13.627  23.738  0.00  0.00    +0.000 C 
ATOM     21  H   UNL     1       1.639   8.600  22.881  0.00  0.00    +0.000 HD
ENDROOT
BRANCH   1  24
ATOM     22  C   UNL     1      -4.180  11.089  15.299  0.00  0.00    +0.000 A 
ATOM     23  C   UNL     1      -4.173  11.581  16.596  0.00  0.00    +0.000 A 
ATOM     24  C   UNL     1      -3.190  11.144  17.500  0.00  0.00    +0.000 A 
ATOM     25  C   UNL     1      -2.256  10.217  17.011  0.00  0.00    +0.000 A 
ATOM     26  C   UNL     1      -2.343   9.775  15.698  0.00  0.00    +0.000 A 
ATOM     27  N   UNL     1      -3.284  10.197  14.831  0.00  0.00    +0.000 NA
ENDBRANCH   1  24
TORSDOF 1
ENDMDL
MODEL 5
REMARK VINA RESULT:      -6.7      8.783     11.759
REMARK  Name = 
REMARK  1 active torsions:
REMARK  status: ('A' for Active; 'I' for Inactive)
REMARK    1  A    between atoms: C_3  and  C_4
REMARK                            x       y       z     vdW  Elec       q    Type
REMARK                         _______ _______ _______ _____ _____    ______ ____
ROOT
ATOM      1  C   UNL     1       7.734  13.090  22.967  0.00  0.00    +0.000 A 
ATOM      2  N   UNL     1       7.435  14.257  22.368  0.00  0.00    +0.000 NA
ATOM      3  C   UNL     1       7.775  14.504  21.066  0.00  0.00    +0.000 A 
ATOM      4  N   UNL     1       7.320  15.702  20.549  0.00  0.00    +0.000 N 
ATOM      5  C   UNL     1       6.915  15.933  19.162  0.00  0.00    +0.000 C 
ATOM      6  C   UNL     1       5.609  16.741  19.069  0.00  0.00    +0.000 C 
ATOM      7  N   UNL     1       5.696  18.013  19.807  0.00  0.00    +0.000 NA
ATOM      8  C   UNL     1       6.034  17.722  21.216  0.00  0.00    +0.000 C 
ATOM      9  C   UNL     1       7.332  16.899  21.401  0.00  0.00    +0.000 C 
ATOM     10  C   UNL     1       8.541  13.492  20.400  0.00  0.00    +0.000 A 
ATOM     11  C   UNL     1       9.257  13.384  19.123  0.00  0.00    +0.000 A 
ATOM     12  C   UNL     1       9.798  12.120  18.930  0.00  0.00    +0.000 A 
ATOM     13  S   UNL     1       9.569  11.112  20.278  0.00  0.00    +0.000 S 
ATOM     14  C   UNL     1       8.743  12.323  21.130  0.00  0.00    +0.000 A 
ATOM     15  N   UNL     1       8.360  12.069  22.388  0.00  0.00    +0.000 NA
ATOM     16  C   UNL     1      10.543  11.612  17.730  0.00  0.00    +0.000 C 
ATOM     17  C   UNL     1      11.802  12.427  17.441  0.00  0.00    +0.000 C 
ATOM     18  C   UNL     1      11.528  13.787  16.797  0.00  0.00    +0.000 C 
ATOM     19  C   UNL     1      10.882  14.789  17.739  0.00  0.00    +0.000 C 
ATOM     20  C   UNL     1       9.442  14.469  18.110  0.00  0.00    +0.000 C 
ATOM     21  H   UNL     1       4.794  18.482  19.766  0.00  0.00    +0.000 HD
ENDROOT
BRANCH   1  24
ATOM     22  C   UNL     1       6.635  11.548  26.239  0.00  0.00    +0.000 A 
ATOM     23  C   UNL     1       6.999  11.660  24.905  0.00  0.00    +0.000 A 
ATOM     24  C   UNL     1       7.341  12.918  24.381  0.00  0.00    +0.000 A 
ATOM     25  C   UNL     1       7.293  14.003  25.270  0.00  0.00    +0.000 A 
ATOM     26  C   UNL     1       6.911  13.798  26.589  0.00  0.00    +0.000 A 
ATOM     27  N   UNL     1       6.586  12.591  27.092  0.00  0.00    +0.000 NA
ENDBRANCH   1  24
TORSDOF 1
ENDMDL
MODEL 6
REMARK VINA RESULT:      -6.5      8.792     11.599
REMARK  Name = 
REMARK  1 active torsions:
REMARK  status: ('A' for Active; 'I' for Inactive)
REMARK    1  A    between atoms: C_3  and  C_4
REMARK                            x       y       z     vdW  Elec       q    Type
REMARK                         _______ _______ _______ _____ _____    ______ ____
ROOT
ATOM      1  C   UNL     1       7.732  13.047  22.371  0.00  0.00    +0.000 A 
ATOM      2  N   UNL     1       7.157  14.189  21.953  0.00  0.00    +0.000 NA
ATOM      3  C   UNL     1       7.458  14.740  20.738  0.00  0.00    +0.000 A 
ATOM      4  N   UNL     1       6.722  15.859  20.393  0.00  0.00    +0.000 N 
ATOM      5  C   UNL     1       6.310  16.223  19.037  0.00  0.00    +0.000 C 
ATOM      6  C   UNL     1       4.842  16.681  18.983  0.00  0.00    +0.000 C 
ATOM      7  N   UNL     1       4.575  17.782  19.924  0.00  0.00    +0.000 NA
ATOM      8  C   UNL     1       4.937  17.339  21.287  0.00  0.00    +0.000 C 
ATOM      9  C   UNL     1       6.398  16.849  21.429  0.00  0.00    +0.000 C 
ATOM     10  C   UNL     1       8.479  14.088  19.972  0.00  0.00    +0.000 A 
ATOM     11  C   UNL     1       9.234  14.392  18.750  0.00  0.00    +0.000 A 
ATOM     12  C   UNL     1      10.090  13.360  18.393  0.00  0.00    +0.000 A 
ATOM     13  S   UNL     1      10.092  12.104  19.535  0.00  0.00    +0.000 S 
ATOM     14  C   UNL     1       8.956  12.897  20.512  0.00  0.00    +0.000 A 
ATOM     15  N   UNL     1       8.618  12.336  21.680  0.00  0.00    +0.000 NA
ATOM     16  C   UNL     1      10.976  13.277  17.183  0.00  0.00    +0.000 C 
ATOM     17  C   UNL     1      11.987  14.420  17.125  0.00  0.00    +0.000 C 
ATOM     18  C   UNL     1      11.387  15.760  16.696  0.00  0.00    +0.000 C 
ATOM     19  C   UNL     1      10.477  16.383  17.740  0.00  0.00    +0.000 C 
ATOM     20  C   UNL     1       9.159  15.652  17.947  0.00  0.00    +0.000 C 
ATOM     21  H   UNL     1       3.583  18.009  19.895  0.00  0.00    +0.000 HD
ENDROOT
BRANCH   1  24
ATOM     22  C   UNL     1       5.937  11.229  25.159  0.00  0.00    +0.000 A 
ATOM     23  C   UNL     1       6.252  11.685  23.887  0.00  0.00    +0.000 A 
ATOM     24  C   UNL     1       7.357  12.532  23.705  0.00  0.00    +0.000 A 
ATOM     25  C   UNL     1       8.090  12.863  24.856  0.00  0.00    +0.000 A 
ATOM     26  C   UNL     1       7.699  12.364  26.091  0.00  0.00    +0.000 A 
ATOM     27  N   UNL     1       6.640  11.550  26.264  0.00  0.00    +0.000 NA
ENDBRANCH   1  24
TORSDOF 1
ENDMDL
MODEL 7
REMARK VINA RESULT:      -6.4      9.066     11.237
REMARK  Name = 
REMARK  1 active torsions:
REMARK  status: ('A' for Active; 'I' for Inactive)
REMARK    1  A    between atoms: C_3  and  C_4
REMARK                            x       y       z     vdW  Elec       q    Type
REMARK                         _______ _______ _______ _____ _____    ______ ____
ROOT
ATOM      1  C   UNL     1       6.027  15.677  19.582  0.00  0.00    +0.000 A 
ATOM      2  N   UNL     1       6.176  15.004  20.737  0.00  0.00    +0.000 NA
ATOM      3  C   UNL     1       7.360  14.403  21.070  0.00  0.00    +0.000 A 
ATOM      4  N   UNL     1       7.404  13.832  22.328  0.00  0.00    +0.000 N 
ATOM      5  C   UNL     1       8.583  13.761  23.190  0.00  0.00    +0.000 C 
ATOM      6  C   UNL     1       8.255  14.127  24.648  0.00  0.00    +0.000 C 
ATOM      7  N   UNL     1       7.163  13.300  25.189  0.00  0.00    +0.000 NA
ATOM      8  C   UNL     1       5.973  13.463  24.326  0.00  0.00    +0.000 C 
ATOM      9  C   UNL     1       6.219  13.128  22.836  0.00  0.00    +0.000 C 
ATOM     10  C   UNL     1       8.402  14.453  20.088  0.00  0.00    +0.000 A 
ATOM     11  C   UNL     1       9.721  13.830  19.922  0.00  0.00    +0.000 A 
ATOM     12  C   UNL     1      10.375  14.281  18.783  0.00  0.00    +0.000 A 
ATOM     13  S   UNL     1       9.408  15.331  17.863  0.00  0.00    +0.000 S 
ATOM     14  C   UNL     1       8.119  15.215  18.958  0.00  0.00    +0.000 A 
ATOM     15  N   UNL     1       6.974  15.845  18.664  0.00  0.00    +0.000 NA
ATOM     16  C   UNL     1      11.754  13.922  18.311  0.00  0.00    +0.000 C 
ATOM     17  C   UNL     1      11.911  12.423  18.064  0.00  0.00    +0.000 C 
ATOM     18  C   UNL     1      12.044  11.594  19.343  0.00  0.00    +0.000 C 
ATOM     19  C   UNL     1      10.759  11.506  20.149  0.00  0.00    +0.000 C 
ATOM     20  C   UNL     1      10.344  12.807  20.819  0.00  0.00    +0.000 C 
ATOM     21  H   UNL     1       6.942  13.617  26.131  0.00  0.00    +0.000 HD
ENDROOT
BRANCH   1  24
ATOM     22  C   UNL     1       2.859  16.756  17.823  0.00  0.00    +0.000 A 
ATOM     23  C   UNL     1       4.098  16.170  18.040  0.00  0.00    +0.000 A 
ATOM     24  C   UNL     1       4.708  16.282  19.300  0.00  0.00    +0.000 A 
ATOM     25  C   UNL     1       4.000  16.996  20.280  0.00  0.00    +0.000 A 
ATOM     26  C   UNL     1       2.767  17.554  19.971  0.00  0.00    +0.000 A 
ATOM     27  N   UNL     1       2.181  17.444  18.763  0.00  0.00    +0.000 NA
ENDBRANCH   1  24
TORSDOF 1
ENDMDL
MODEL 8
REMARK VINA RESULT:      -6.4      7.779     11.010
REMARK  Name = 
REMARK  1 active torsions:
REMARK  status: ('A' for Active; 'I' for Inactive)
REMARK    1  A    between atoms: C_3  and  C_4
REMARK                            x       y       z     vdW  Elec       q    Type
REMARK                         _______ _______ _______ _____ _____    ______ ____
ROOT
ATOM      1  C   UNL     1      -1.742  13.752  21.639  0.00  0.00    +0.000 A 
ATOM      2  N   UNL     1      -3.083  13.813  21.550  0.00  0.00    +0.000 NA
ATOM      3  C   UNL     1      -3.778  13.043  20.659  0.00  0.00    +0.000 A 
ATOM      4  N   UNL     1      -5.155  13.133  20.742  0.00  0.00    +0.000 N 
ATOM      5  C   UNL     1      -6.098  12.044  20.483  0.00  0.00    +0.000 C 
ATOM      6  C   UNL     1      -7.207  11.976  21.547  0.00  0.00    +0.000 C 
ATOM      7  N   UNL     1      -7.916  13.260  21.683  0.00  0.00    +0.000 NA
ATOM      8  C   UNL     1      -6.934  14.312  22.017  0.00  0.00    +0.000 C 
ATOM      9  C   UNL     1      -5.772  14.440  21.002  0.00  0.00    +0.000 C 
ATOM     10  C   UNL     1      -3.002  12.233  19.767  0.00  0.00    +0.000 A 
ATOM     11  C   UNL     1      -3.276  11.416  18.579  0.00  0.00    +0.000 A 
ATOM     12  C   UNL     1      -2.140  10.767  18.115  0.00  0.00    +0.000 A 
ATOM     13  S   UNL     1      -0.752  11.201  18.990  0.00  0.00    +0.000 S 
ATOM     14  C   UNL     1      -1.629  12.242  20.000  0.00  0.00    +0.000 A 
ATOM     15  N   UNL     1      -0.960  12.960  20.911  0.00  0.00    +0.000 NA
ATOM     16  C   UNL     1      -2.035   9.805  16.967  0.00  0.00    +0.000 C 
ATOM     17  C   UNL     1      -2.477  10.429  15.645  0.00  0.00    +0.000 C 
ATOM     18  C   UNL     1      -3.993  10.565  15.498  0.00  0.00    +0.000 C 
ATOM     19  C   UNL     1      -4.600  11.624  16.403  0.00  0.00    +0.000 C 
ATOM     20  C   UNL     1      -4.592  11.269  17.882  0.00  0.00    +0.000 C 
ATOM     21  H   UNL     1      -8.598  13.184  22.436  0.00  0.00    +0.000 HD
ENDROOT
BRANCH   1  24
ATOM     22  C   UNL     1      -0.864  15.575  24.833  0.00  0.00    +0.000 A 
ATOM     23  C   UNL     1      -1.523  14.734  23.947  0.00  0.00    +0.000 A 
ATOM     24  C   UNL     1      -1.073  14.631  22.621  0.00  0.00    +0.000 A 
ATOM     25  C   UNL     1       0.045  15.406  22.275  0.00  0.00    +0.000 A 
ATOM     26  C   UNL     1       0.639  16.225  23.227  0.00  0.00    +0.000 A 
ATOM     27  N   UNL     1       0.209  16.320  24.499  0.00  0.00    +0.000 NA
ENDBRANCH   1  24
TORSDOF 1
ENDMDL
MODEL 9
REMARK VINA RESULT:      -6.4      6.443     10.558
REMARK  Name = 
REMARK  1 active torsions:
REMARK  status: ('A' for Active; 'I' for Inactive)
REMARK    1  A    between atoms: C_3  and  C_4
REMARK                            x       y       z     vdW  Elec       q    Type
REMARK                         _______ _______ _______ _____ _____    ______ ____
ROOT
ATOM      1  C   UNL     1      -4.136  12.572  19.418  0.00  0.00    +0.000 A 
ATOM      2  N   UNL     1      -3.878  12.943  20.686  0.00  0.00    +0.000 NA
ATOM      3  C   UNL     1      -2.708  12.603  21.309  0.00  0.00    +0.000 A 
ATOM      4  N   UNL     1      -2.533  13.133  22.574  0.00  0.00    +0.000 N 
ATOM      5  C   UNL     1      -1.253  13.534  23.159  0.00  0.00    +0.000 C 
ATOM      6  C   UNL     1      -1.347  14.891  23.877  0.00  0.00    +0.000 C 
ATOM      7  N   UNL     1      -2.412  14.902  24.893  0.00  0.00    +0.000 NA
ATOM      8  C   UNL     1      -3.695  14.565  24.240  0.00  0.00    +0.000 C 
ATOM      9  C   UNL     1      -3.684  13.216  23.481  0.00  0.00    +0.000 C 
ATOM     10  C   UNL     1      -1.812  11.760  20.575  0.00  0.00    +0.000 A 
ATOM     11  C   UNL     1      -0.579  11.020  20.876  0.00  0.00    +0.000 A 
ATOM     12  C   UNL     1      -0.059  10.390  19.753  0.00  0.00    +0.000 A 
ATOM     13  S   UNL     1      -1.063  10.568  18.396  0.00  0.00    +0.000 S 
ATOM     14  C   UNL     1      -2.192  11.488  19.264  0.00  0.00    +0.000 A 
ATOM     15  N   UNL     1      -3.316  11.869  18.643  0.00  0.00    +0.000 NA
ATOM     16  C   UNL     1       1.210   9.595  19.651  0.00  0.00    +0.000 C 
ATOM     17  C   UNL     1       1.218   8.392  20.592  0.00  0.00    +0.000 C 
ATOM     18  C   UNL     1       1.465   8.751  22.058  0.00  0.00    +0.000 C 
ATOM     19  C   UNL     1       0.302   9.477  22.712  0.00  0.00    +0.000 C 
ATOM     20  C   UNL     1       0.083  10.897  22.211  0.00  0.00    +0.000 C 
ATOM     21  H   UNL     1      -2.475  15.835  25.298  0.00  0.00    +0.000 HD
ENDROOT
BRANCH   1  24
ATOM     22  C   UNL     1      -7.055  12.944  17.045  0.00  0.00    +0.000 A 
ATOM     23  C   UNL     1      -5.830  12.540  17.556  0.00  0.00    +0.000 A 
ATOM     24  C   UNL     1      -5.431  12.972  18.831  0.00  0.00    +0.000 A 
ATOM     25  C   UNL     1      -6.329  13.802  19.522  0.00  0.00    +0.000 A 
ATOM     26  C   UNL     1      -7.533  14.160  18.930  0.00  0.00    +0.000 A 
ATOM     27  N   UNL     1      -7.916  13.743  17.708  0.00  0.00    +0.000 NA
ENDBRANCH   1  24
TORSDOF 1
ENDMDL
