MODEL 1
REMARK VINA RESULT:      -8.3      0.000      0.000
REMARK  Name = 
REMARK  2 active torsions:
REMARK  status: ('A' for Active; 'I' for Inactive)
REMARK    1  A    between atoms: C_2  and  C_11
REMARK    2  A    between atoms: N_3  and  C_4
REMARK                            x       y       z     vdW  Elec       q    Type
REMARK                         _______ _______ _______ _____ _____    ______ ____
ROOT
ATOM      1  C   UNL     1      -0.373  10.814  19.319  0.00  0.00    +0.000 C 
ATOM      2  C   UNL     1      -0.453   9.853  20.507  0.00  0.00    +0.000 C 
ATOM      3  C   UNL     1       0.947   9.378  20.862  0.00  0.00    +0.000 C 
ATOM      4  N   UNL     1       1.470   8.574  19.751  0.00  0.00    +0.000 N 
ATOM      5  C   UNL     1       1.861   7.278  20.084  0.00  0.00    +0.000 C 
ATOM      6  O   UNL     1       1.557   6.876  21.214  0.00  0.00    +0.000 OA
ATOM      7  N   UNL     1       2.599   6.485  19.207  0.00  0.00    +0.000 N 
ATOM      8  C   UNL     1       3.178   6.930  17.942  0.00  0.00    +0.000 C 
ATOM      9  C   UNL     1       4.563   6.389  17.693  0.00  0.00    +0.000 C 
ATOM     10  O   UNL     1       4.579   4.977  17.667  0.00  0.00    +0.000 OA
ATOM     11  C   UNL     1       3.942   4.442  18.760  0.00  0.00    +0.000 A 
ATOM     12  C   UNL     1       4.356   3.140  19.058  0.00  0.00    +0.000 A 
ATOM     13  C   UNL     1       3.805   2.457  20.133  0.00  0.00    +0.000 A 
ATOM     14  C   UNL     1       2.810   3.068  20.887  0.00  0.00    +0.000 A 
ATOM     15  C   UNL     1       2.387   4.369  20.578  0.00  0.00    +0.000 A 
ATOM     16  C   UNL     1       2.960   5.108  19.529  0.00  0.00    +0.000 A 
ATOM     17  C   UNL     1       1.521   9.313  18.480  0.00  0.00    +0.000 C 
ATOM     18  C   UNL     1       0.245  10.080  18.134  0.00  0.00    +0.000 C 
ENDROOT
BRANCH   1  20
ATOM     19  O   UNL     1       0.549  12.486  20.800  0.00  0.00    +0.000 OA
ATOM     20  C   UNL     1       0.407  12.091  19.648  0.00  0.00    +0.000 C 
ATOM     21  N   UNL     1       0.911  12.696  18.513  0.00  0.00    +0.000 N 
ATOM     22  H   UNL     1       0.639  12.305  17.620  0.00  0.00    +0.000 HD
BRANCH  21  23
ATOM     23  C   UNL     1       1.745  13.822  18.440  0.00  0.00    +0.000 A 
ATOM     24  C   UNL     1       1.307  15.131  18.663  0.00  0.00    +0.000 A 
ATOM     25  C   UNL     1       2.212  16.193  18.617  0.00  0.00    +0.000 A 
ATOM     26  C   UNL     1       3.555  15.957  18.340  0.00  0.00    +0.000 A 
ATOM     27  C   UNL     1       3.984  14.656  18.106  0.00  0.00    +0.000 A 
ATOM     28  F   UNL     1       5.271  14.425  17.826  0.00  0.00    +0.000 F 
ATOM     29  C   UNL     1       3.095  13.592  18.160  0.00  0.00    +0.000 A 
ENDBRANCH  21  23
ENDBRANCH   1  20
TORSDOF 2
ENDMDL
MODEL 2
REMARK VINA RESULT:      -8.2      0.936      1.303
REMARK  Name = 
REMARK  2 active torsions:
REMARK  status: ('A' for Active; 'I' for Inactive)
REMARK    1  A    between atoms: C_2  and  C_11
REMARK    2  A    between atoms: N_3  and  C_4
REMARK                            x       y       z     vdW  Elec       q    Type
REMARK                         _______ _______ _______ _____ _____    ______ ____
ROOT
ATOM      1  C   UNL     1      -0.305  10.792  19.232  0.00  0.00    +0.000 C 
ATOM      2  C   UNL     1      -0.431   9.836  20.421  0.00  0.00    +0.000 C 
ATOM      3  C   UNL     1       0.954   9.352  20.821  0.00  0.00    +0.000 C 
ATOM      4  N   UNL     1       1.506   8.541  19.731  0.00  0.00    +0.000 N 
ATOM      5  C   UNL     1       1.877   7.243  20.080  0.00  0.00    +0.000 C 
ATOM      6  O   UNL     1       1.534   6.848  21.201  0.00  0.00    +0.000 OA
ATOM      7  N   UNL     1       2.637   6.442  19.231  0.00  0.00    +0.000 N 
ATOM      8  C   UNL     1       3.259   6.878  17.982  0.00  0.00    +0.000 C 
ATOM      9  C   UNL     1       4.648   6.326  17.780  0.00  0.00    +0.000 C 
ATOM     10  O   UNL     1       4.654   4.914  17.760  0.00  0.00    +0.000 OA
ATOM     11  C   UNL     1       3.979   4.387  18.833  0.00  0.00    +0.000 A 
ATOM     12  C   UNL     1       4.373   3.084  19.149  0.00  0.00    +0.000 A 
ATOM     13  C   UNL     1       3.783   2.409  20.208  0.00  0.00    +0.000 A 
ATOM     14  C   UNL     1       2.769   3.030  20.928  0.00  0.00    +0.000 A 
ATOM     15  C   UNL     1       2.366   4.333  20.602  0.00  0.00    +0.000 A 
ATOM     16  C   UNL     1       2.978   5.063  19.568  0.00  0.00    +0.000 A 
ATOM     17  C   UNL     1       1.603   9.274  18.459  0.00  0.00    +0.000 C 
ATOM     18  C   UNL     1       0.345  10.049  18.070  0.00  0.00    +0.000 C 
ENDROOT
BRANCH   1  20
ATOM     19  O   UNL     1       0.582  12.462  20.736  0.00  0.00    +0.000 OA
ATOM     20  C   UNL     1       0.473  12.065  19.581  0.00  0.00    +0.000 C 
ATOM     21  N   UNL     1       1.016  12.663  18.461  0.00  0.00    +0.000 N 
ATOM     22  H   UNL     1       0.768  12.271  17.561  0.00  0.00    +0.000 HD
BRANCH  21  23
ATOM     23  C   UNL     1       1.859  13.784  18.410  0.00  0.00    +0.000 A 
ATOM     24  C   UNL     1       3.230  13.716  18.146  0.00  0.00    +0.000 A 
ATOM     25  C   UNL     1       3.989  14.884  18.068  0.00  0.00    +0.000 A 
ATOM     26  C   UNL     1       3.389  16.125  18.261  0.00  0.00    +0.000 A 
ATOM     27  C   UNL     1       2.028  16.186  18.536  0.00  0.00    +0.000 A 
ATOM     28  F   UNL     1       1.448  17.375  18.736  0.00  0.00    +0.000 F 
ATOM     29  C   UNL     1       1.261  15.032  18.606  0.00  0.00    +0.000 A 
ENDBRANCH  21  23
ENDBRANCH   1  20
TORSDOF 2
ENDMDL
MODEL 3
REMARK VINA RESULT:      -8.1      3.228      4.821
REMARK  Name = 
REMARK  2 active torsions:
REMARK  status: ('A' for Active; 'I' for Inactive)
REMARK    1  A    between atoms: C_2  and  C_11
REMARK    2  A    between atoms: N_3  and  C_4
REMARK                            x       y       z     vdW  Elec       q    Type
REMARK                         _______ _______ _______ _____ _____    ______ ____
ROOT
ATOM      1  C   UNL     1       0.650  11.185  20.837  0.00  0.00    +0.000 C 
ATOM      2  C   UNL     1       1.244  11.299  19.431  0.00  0.00    +0.000 C 
ATOM      3  C   UNL     1       0.856  10.070  18.624  0.00  0.00    +0.000 C 
ATOM      4  N   UNL     1       1.496   8.891  19.218  0.00  0.00    +0.000 N 
ATOM      5  C   UNL     1       2.311   8.156  18.359  0.00  0.00    +0.000 C 
ATOM      6  O   UNL     1       2.563   8.664  17.259  0.00  0.00    +0.000 OA
ATOM      7  N   UNL     1       2.784   6.890  18.697  0.00  0.00    +0.000 N 
ATOM      8  C   UNL     1       2.385   6.121  19.874  0.00  0.00    +0.000 C 
ATOM      9  C   UNL     1       2.187   4.653  19.592  0.00  0.00    +0.000 C 
ATOM     10  O   UNL     1       3.364   4.049  19.097  0.00  0.00    +0.000 OA
ATOM     11  C   UNL     1       3.904   4.765  18.057  0.00  0.00    +0.000 A 
ATOM     12  C   UNL     1       4.720   3.996  17.222  0.00  0.00    +0.000 A 
ATOM     13  C   UNL     1       5.344   4.574  16.125  0.00  0.00    +0.000 A 
ATOM     14  C   UNL     1       5.179   5.933  15.888  0.00  0.00    +0.000 A 
ATOM     15  C   UNL     1       4.371   6.706  16.735  0.00  0.00    +0.000 A 
ATOM     16  C   UNL     1       3.684   6.142  17.824  0.00  0.00    +0.000 A 
ATOM     17  C   UNL     1       1.121   8.679  20.625  0.00  0.00    +0.000 C 
ATOM     18  C   UNL     1       1.199   9.928  21.503  0.00  0.00    +0.000 C 
ENDROOT
BRANCH   1  20
ATOM     19  O   UNL     1      -1.535  10.794  21.791  0.00  0.00    +0.000 OA
ATOM     20  C   UNL     1      -0.882  11.183  20.829  0.00  0.00    +0.000 C 
ATOM     21  N   UNL     1      -1.394  11.671  19.643  0.00  0.00    +0.000 N 
ATOM     22  H   UNL     1      -0.734  11.873  18.902  0.00  0.00    +0.000 HD
BRANCH  21  23
ATOM     23  C   UNL     1      -2.740  11.898  19.319  0.00  0.00    +0.000 A 
ATOM     24  C   UNL     1      -3.617  12.645  20.112  0.00  0.00    +0.000 A 
ATOM     25  C   UNL     1      -4.931  12.863  19.694  0.00  0.00    +0.000 A 
ATOM     26  C   UNL     1      -5.380  12.331  18.489  0.00  0.00    +0.000 A 
ATOM     27  C   UNL     1      -4.509  11.579  17.710  0.00  0.00    +0.000 A 
ATOM     28  F   UNL     1      -4.939  11.053  16.557  0.00  0.00    +0.000 F 
ATOM     29  C   UNL     1      -3.198  11.364  18.110  0.00  0.00    +0.000 A 
ENDBRANCH  21  23
ENDBRANCH   1  20
TORSDOF 2
ENDMDL
MODEL 4
REMARK VINA RESULT:      -8.0      3.719      5.267
REMARK  Name = 
REMARK  2 active torsions:
REMARK  status: ('A' for Active; 'I' for Inactive)
REMARK    1  A    between atoms: C_2  and  C_11
REMARK    2  A    between atoms: N_3  and  C_4
REMARK                            x       y       z     vdW  Elec       q    Type
REMARK                         _______ _______ _______ _____ _____    ______ ____
ROOT
ATOM      1  C   UNL     1       0.733  11.415  20.819  0.00  0.00    +0.000 C 
ATOM      2  C   UNL     1       1.370  11.481  19.429  0.00  0.00    +0.000 C 
ATOM      3  C   UNL     1       0.928  10.272  18.620  0.00  0.00    +0.000 C 
ATOM      4  N   UNL     1       1.479   9.061  19.238  0.00  0.00    +0.000 N 
ATOM      5  C   UNL     1       2.269   8.270  18.405  0.00  0.00    +0.000 C 
ATOM      6  O   UNL     1       2.581   8.753  17.310  0.00  0.00    +0.000 OA
ATOM      7  N   UNL     1       2.654   6.980  18.764  0.00  0.00    +0.000 N 
ATOM      8  C   UNL     1       2.177   6.246  19.934  0.00  0.00    +0.000 C 
ATOM      9  C   UNL     1       1.896   4.791  19.656  0.00  0.00    +0.000 C 
ATOM     10  O   UNL     1       3.047   4.113  19.197  0.00  0.00    +0.000 OA
ATOM     11  C   UNL     1       3.658   4.786  18.168  0.00  0.00    +0.000 A 
ATOM     12  C   UNL     1       4.446   3.962  17.359  0.00  0.00    +0.000 A 
ATOM     13  C   UNL     1       5.133   4.491  16.276  0.00  0.00    +0.000 A 
ATOM     14  C   UNL     1       5.059   5.857  16.026  0.00  0.00    +0.000 A 
ATOM     15  C   UNL     1       4.278   6.684  16.846  0.00  0.00    +0.000 A 
ATOM     16  C   UNL     1       3.529   6.172  17.920  0.00  0.00    +0.000 A 
ATOM     17  C   UNL     1       1.054   8.883  20.636  0.00  0.00    +0.000 C 
ATOM     18  C   UNL     1       1.186  10.132  21.507  0.00  0.00    +0.000 C 
ENDROOT
BRANCH   1  20
ATOM     19  O   UNL     1      -1.454  10.929  19.913  0.00  0.00    +0.000 OA
ATOM     20  C   UNL     1      -0.796  11.507  20.771  0.00  0.00    +0.000 C 
ATOM     21  N   UNL     1      -1.299  12.290  21.791  0.00  0.00    +0.000 N 
ATOM     22  H   UNL     1      -0.630  12.778  22.374  0.00  0.00    +0.000 HD
BRANCH  21  23
ATOM     23  C   UNL     1      -2.646  12.522  22.109  0.00  0.00    +0.000 A 
ATOM     24  C   UNL     1      -3.604  12.943  21.183  0.00  0.00    +0.000 A 
ATOM     25  C   UNL     1      -4.935  13.106  21.571  0.00  0.00    +0.000 A 
ATOM     26  C   UNL     1      -5.316  12.858  22.887  0.00  0.00    +0.000 A 
ATOM     27  C   UNL     1      -4.357  12.452  23.808  0.00  0.00    +0.000 A 
ATOM     28  F   UNL     1      -4.715  12.226  25.077  0.00  0.00    +0.000 F 
ATOM     29  C   UNL     1      -3.034  12.277  23.430  0.00  0.00    +0.000 A 
ENDBRANCH  21  23
ENDBRANCH   1  20
TORSDOF 2
ENDMDL
MODEL 5
REMARK VINA RESULT:      -7.9      1.005      1.093
REMARK  Name = 
REMARK  2 active torsions:
REMARK  status: ('A' for Active; 'I' for Inactive)
REMARK    1  A    between atoms: C_2  and  C_11
REMARK    2  A    between atoms: N_3  and  C_4
REMARK                            x       y       z     vdW  Elec       q    Type
REMARK                         _______ _______ _______ _____ _____    ______ ____
ROOT
ATOM      1  C   UNL     1      -0.233  10.650  19.993  0.00  0.00    +0.000 C 
ATOM      2  C   UNL     1      -0.238   9.533  21.038  0.00  0.00    +0.000 C 
ATOM      3  C   UNL     1       1.170   8.977  21.182  0.00  0.00    +0.000 C 
ATOM      4  N   UNL     1       1.554   8.327  19.925  0.00  0.00    +0.000 N 
ATOM      5  C   UNL     1       1.925   6.988  20.033  0.00  0.00    +0.000 C 
ATOM      6  O   UNL     1       1.713   6.437  21.121  0.00  0.00    +0.000 OA
ATOM      7  N   UNL     1       2.544   6.309  18.987  0.00  0.00    +0.000 N 
ATOM      8  C   UNL     1       3.018   6.915  17.744  0.00  0.00    +0.000 C 
ATOM      9  C   UNL     1       4.351   6.381  17.286  0.00  0.00    +0.000 C 
ATOM     10  O   UNL     1       4.310   4.986  17.063  0.00  0.00    +0.000 OA
ATOM     11  C   UNL     1       3.759   4.317  18.128  0.00  0.00    +0.000 A 
ATOM     12  C   UNL     1       4.149   2.977  18.200  0.00  0.00    +0.000 A 
ATOM     13  C   UNL     1       3.676   2.162  19.219  0.00  0.00    +0.000 A 
ATOM     14  C   UNL     1       2.781   2.684  20.146  0.00  0.00    +0.000 A 
ATOM     15  C   UNL     1       2.382   4.026  20.064  0.00  0.00    +0.000 A 
ATOM     16  C   UNL     1       2.881   4.891  19.076  0.00  0.00    +0.000 A 
ATOM     17  C   UNL     1       1.513   9.237  18.769  0.00  0.00    +0.000 C 
ATOM     18  C   UNL     1       0.241  10.077  18.662  0.00  0.00    +0.000 C 
ENDROOT
BRANCH   1  20
ATOM     19  O   UNL     1       0.627  12.267  21.569  0.00  0.00    +0.000 OA
ATOM     20  C   UNL     1       0.623  11.848  20.417  0.00  0.00    +0.000 C 
ATOM     21  N   UNL     1       1.362  12.354  19.365  0.00  0.00    +0.000 N 
ATOM     22  H   UNL     1       1.190  11.962  18.448  0.00  0.00    +0.000 HD
BRANCH  21  23
ATOM     23  C   UNL     1       2.316  13.382  19.404  0.00  0.00    +0.000 A 
ATOM     24  C   UNL     1       2.979  13.786  20.566  0.00  0.00    +0.000 A 
ATOM     25  C   UNL     1       3.950  14.787  20.511  0.00  0.00    +0.000 A 
ATOM     26  C   UNL     1       4.260  15.396  19.298  0.00  0.00    +0.000 A 
ATOM     27  C   UNL     1       3.589  15.000  18.147  0.00  0.00    +0.000 A 
ATOM     28  F   UNL     1       3.873  15.591  16.981  0.00  0.00    +0.000 F 
ATOM     29  C   UNL     1       2.629  13.999  18.189  0.00  0.00    +0.000 A 
ENDBRANCH  21  23
ENDBRANCH   1  20
TORSDOF 2
ENDMDL
MODEL 6
REMARK VINA RESULT:      -7.9      3.278      4.902
REMARK  Name = 
REMARK  2 active torsions:
REMARK  status: ('A' for Active; 'I' for Inactive)
REMARK    1  A    between atoms: C_2  and  C_11
REMARK    2  A    between atoms: N_3  and  C_4
REMARK                            x       y       z     vdW  Elec       q    Type
REMARK                         _______ _______ _______ _____ _____    ______ ____
ROOT
ATOM      1  C   UNL     1       0.658  11.293  20.771  0.00  0.00    +0.000 C 
ATOM      2  C   UNL     1       1.224  11.360  19.350  0.00  0.00    +0.000 C 
ATOM      3  C   UNL     1       0.833  10.099  18.596  0.00  0.00    +0.000 C 
ATOM      4  N   UNL     1       1.496   8.949  19.221  0.00  0.00    +0.000 N 
ATOM      5  C   UNL     1       2.301   8.190  18.373  0.00  0.00    +0.000 C 
ATOM      6  O   UNL     1       2.527   8.660  17.251  0.00  0.00    +0.000 OA
ATOM      7  N   UNL     1       2.794   6.942  18.748  0.00  0.00    +0.000 N 
ATOM      8  C   UNL     1       2.425   6.213  19.959  0.00  0.00    +0.000 C 
ATOM      9  C   UNL     1       2.236   4.734  19.735  0.00  0.00    +0.000 C 
ATOM     10  O   UNL     1       3.410   4.124  19.240  0.00  0.00    +0.000 OA
ATOM     11  C   UNL     1       3.923   4.806  18.165  0.00  0.00    +0.000 A 
ATOM     12  C   UNL     1       4.730   4.015  17.342  0.00  0.00    +0.000 A 
ATOM     13  C   UNL     1       5.327   4.557  16.213  0.00  0.00    +0.000 A 
ATOM     14  C   UNL     1       5.144   5.905  15.930  0.00  0.00    +0.000 A 
ATOM     15  C   UNL     1       4.345   6.701  16.763  0.00  0.00    +0.000 A 
ATOM     16  C   UNL     1       3.684   6.171  17.886  0.00  0.00    +0.000 A 
ATOM     17  C   UNL     1       1.150   8.785  20.641  0.00  0.00    +0.000 C 
ATOM     18  C   UNL     1       1.233  10.066  21.471  0.00  0.00    +0.000 C 
ENDROOT
BRANCH   1  20
ATOM     19  O   UNL     1      -1.504  10.837  21.748  0.00  0.00    +0.000 OA
ATOM     20  C   UNL     1      -0.874  11.277  20.793  0.00  0.00    +0.000 C 
ATOM     21  N   UNL     1      -1.414  11.813  19.640  0.00  0.00    +0.000 N 
ATOM     22  H   UNL     1      -0.771  12.056  18.897  0.00  0.00    +0.000 HD
BRANCH  21  23
ATOM     23  C   UNL     1      -2.768  12.042  19.354  0.00  0.00    +0.000 A 
ATOM     24  C   UNL     1      -3.433  11.501  18.249  0.00  0.00    +0.000 A 
ATOM     25  C   UNL     1      -4.795  11.741  18.062  0.00  0.00    +0.000 A 
ATOM     26  C   UNL     1      -5.500  12.527  18.969  0.00  0.00    +0.000 A 
ATOM     27  C   UNL     1      -4.832  13.073  20.059  0.00  0.00    +0.000 A 
ATOM     28  F   UNL     1      -5.501  13.840  20.926  0.00  0.00    +0.000 F 
ATOM     29  C   UNL     1      -3.480  12.833  20.261  0.00  0.00    +0.000 A 
ENDBRANCH  21  23
ENDBRANCH   1  20
TORSDOF 2
ENDMDL
MODEL 7
REMARK VINA RESULT:      -7.7      4.046      8.706
REMARK  Name = 
REMARK  2 active torsions:
REMARK  status: ('A' for Active; 'I' for Inactive)
REMARK    1  A    between atoms: C_2  and  C_11
REMARK    2  A    between atoms: N_3  and  C_4
REMARK                            x       y       z     vdW  Elec       q    Type
REMARK                         _______ _______ _______ _____ _____    ______ ____
ROOT
ATOM      1  C   UNL     1       6.065   5.053  17.749  0.00  0.00    +0.000 C 
ATOM      2  C   UNL     1       5.188   4.596  18.916  0.00  0.00    +0.000 C 
ATOM      3  C   UNL     1       3.733   4.898  18.596  0.00  0.00    +0.000 C 
ATOM      4  N   UNL     1       3.555   6.352  18.526  0.00  0.00    +0.000 N 
ATOM      5  C   UNL     1       2.593   6.879  19.387  0.00  0.00    +0.000 C 
ATOM      6  O   UNL     1       2.132   6.113  20.243  0.00  0.00    +0.000 OA
ATOM      7  N   UNL     1       2.137   8.189  19.267  0.00  0.00    +0.000 N 
ATOM      8  C   UNL     1       2.463   9.106  18.177  0.00  0.00    +0.000 C 
ATOM      9  C   UNL     1       1.288   9.926  17.711  0.00  0.00    +0.000 C 
ATOM     10  O   UNL     1       0.752  10.716  18.752  0.00  0.00    +0.000 OA
ATOM     11  C   UNL     1       0.520   9.974  19.884  0.00  0.00    +0.000 A 
ATOM     12  C   UNL     1      -0.444  10.537  20.726  0.00  0.00    +0.000 A 
ATOM     13  C   UNL     1      -0.790   9.909  21.914  0.00  0.00    +0.000 A 
ATOM     14  C   UNL     1      -0.141   8.735  22.276  0.00  0.00    +0.000 A 
ATOM     15  C   UNL     1       0.835   8.180  21.437  0.00  0.00    +0.000 A 
ATOM     16  C   UNL     1       1.173   8.762  20.203  0.00  0.00    +0.000 A 
ATOM     17  C   UNL     1       4.411   6.990  17.514  0.00  0.00    +0.000 C 
ATOM     18  C   UNL     1       5.875   6.552  17.548  0.00  0.00    +0.000 C 
ENDROOT
BRANCH   1  20
ATOM     19  O   UNL     1       5.006   3.326  16.432  0.00  0.00    +0.000 OA
ATOM     20  C   UNL     1       5.776   4.280  16.458  0.00  0.00    +0.000 C 
ATOM     21  N   UNL     1       6.467   4.796  15.379  0.00  0.00    +0.000 N 
ATOM     22  H   UNL     1       7.136   5.532  15.568  0.00  0.00    +0.000 HD
BRANCH  21  23
ATOM     23  C   UNL     1       6.377   4.403  14.036  0.00  0.00    +0.000 A 
ATOM     24  C   UNL     1       7.440   4.475  13.130  0.00  0.00    +0.000 A 
ATOM     25  C   UNL     1       7.280   4.019  11.821  0.00  0.00    +0.000 A 
ATOM     26  C   UNL     1       6.059   3.496  11.405  0.00  0.00    +0.000 A 
ATOM     27  C   UNL     1       5.002   3.438  12.305  0.00  0.00    +0.000 A 
ATOM     28  F   UNL     1       3.822   2.950  11.907  0.00  0.00    +0.000 F 
ATOM     29  C   UNL     1       5.152   3.879  13.611  0.00  0.00    +0.000 A 
ENDBRANCH  21  23
ENDBRANCH   1  20
TORSDOF 2
ENDMDL
MODEL 8
REMARK VINA RESULT:      -7.7      4.287      8.864
REMARK  Name = 
REMARK  2 active torsions:
REMARK  status: ('A' for Active; 'I' for Inactive)
REMARK    1  A    between atoms: C_2  and  C_11
REMARK    2  A    between atoms: N_3  and  C_4
REMARK                            x       y       z     vdW  Elec       q    Type
REMARK                         _______ _______ _______ _____ _____    ______ ____
ROOT
ATOM      1  C   UNL     1       6.044   5.260  17.279  0.00  0.00    +0.000 C 
ATOM      2  C   UNL     1       5.476   4.908  18.656  0.00  0.00    +0.000 C 
ATOM      3  C   UNL     1       3.959   4.999  18.609  0.00  0.00    +0.000 C 
ATOM      4  N   UNL     1       3.575   6.395  18.379  0.00  0.00    +0.000 N 
ATOM      5  C   UNL     1       2.733   6.950  19.342  0.00  0.00    +0.000 C 
ATOM      6  O   UNL     1       2.553   6.289  20.372  0.00  0.00    +0.000 OA
ATOM      7  N   UNL     1       2.087   8.168  19.141  0.00  0.00    +0.000 N 
ATOM      8  C   UNL     1       2.071   8.925  17.891  0.00  0.00    +0.000 C 
ATOM      9  C   UNL     1       0.728   9.530  17.573  0.00  0.00    +0.000 C 
ATOM     10  O   UNL     1       0.298  10.417  18.585  0.00  0.00    +0.000 OA
ATOM     11  C   UNL     1       0.390   9.848  19.831  0.00  0.00    +0.000 A 
ATOM     12  C   UNL     1      -0.463  10.435  20.770  0.00  0.00    +0.000 A 
ATOM     13  C   UNL     1      -0.487   9.976  22.080  0.00  0.00    +0.000 A 
ATOM     14  C   UNL     1       0.374   8.952  22.456  0.00  0.00    +0.000 A 
ATOM     15  C   UNL     1       1.238   8.373  21.515  0.00  0.00    +0.000 A 
ATOM     16  C   UNL     1       1.251   8.779  20.170  0.00  0.00    +0.000 A 
ATOM     17  C   UNL     1       4.127   6.947  17.132  0.00  0.00    +0.000 C 
ATOM     18  C   UNL     1       5.616   6.678  16.918  0.00  0.00    +0.000 C 
ENDROOT
BRANCH   1  20
ATOM     19  O   UNL     1       4.965   3.259  16.459  0.00  0.00    +0.000 OA
ATOM     20  C   UNL     1       5.621   4.261  16.197  0.00  0.00    +0.000 C 
ATOM     21  N   UNL     1       6.057   4.642  14.943  0.00  0.00    +0.000 N 
ATOM     22  H   UNL     1       6.666   5.449  14.890  0.00  0.00    +0.000 HD
BRANCH  21  23
ATOM     23  C   UNL     1       5.781   4.023  13.714  0.00  0.00    +0.000 A 
ATOM     24  C   UNL     1       4.514   3.995  13.123  0.00  0.00    +0.000 A 
ATOM     25  C   UNL     1       4.333   3.398  11.875  0.00  0.00    +0.000 A 
ATOM     26  C   UNL     1       5.411   2.818  11.213  0.00  0.00    +0.000 A 
ATOM     27  C   UNL     1       6.667   2.836  11.810  0.00  0.00    +0.000 A 
ATOM     28  F   UNL     1       7.704   2.268  11.185  0.00  0.00    +0.000 F 
ATOM     29  C   UNL     1       6.860   3.436  13.046  0.00  0.00    +0.000 A 
ENDBRANCH  21  23
ENDBRANCH   1  20
TORSDOF 2
ENDMDL
MODEL 9
REMARK VINA RESULT:      -7.6      3.553      5.102
REMARK  Name = 
REMARK  2 active torsions:
REMARK  status: ('A' for Active; 'I' for Inactive)
REMARK    1  A    between atoms: C_2  and  C_11
REMARK    2  A    between atoms: N_3  and  C_4
REMARK                            x       y       z     vdW  Elec       q    Type
REMARK                         _______ _______ _______ _____ _____    ______ ____
ROOT
ATOM      1  C   UNL     1       0.734  11.411  20.792  0.00  0.00    +0.000 C 
ATOM      2  C   UNL     1       1.364  11.380  19.398  0.00  0.00    +0.000 C 
ATOM      3  C   UNL     1       0.900  10.130  18.668  0.00  0.00    +0.000 C 
ATOM      4  N   UNL     1       1.435   8.952  19.358  0.00  0.00    +0.000 N 
ATOM      5  C   UNL     1       2.208   8.098  18.572  0.00  0.00    +0.000 C 
ATOM      6  O   UNL     1       2.521   8.507  17.447  0.00  0.00    +0.000 OA
ATOM      7  N   UNL     1       2.576   6.827  19.009  0.00  0.00    +0.000 N 
ATOM      8  C   UNL     1       2.095   6.175  20.226  0.00  0.00    +0.000 C 
ATOM      9  C   UNL     1       1.790   4.710  20.040  0.00  0.00    +0.000 C 
ATOM     10  O   UNL     1       2.928   3.986  19.619  0.00  0.00    +0.000 OA
ATOM     11  C   UNL     1       3.543   4.584  18.547  0.00  0.00    +0.000 A 
ATOM     12  C   UNL     1       4.313   3.699  17.788  0.00  0.00    +0.000 A 
ATOM     13  C   UNL     1       5.002   4.149  16.670  0.00  0.00    +0.000 A 
ATOM     14  C   UNL     1       4.947   5.497  16.336  0.00  0.00    +0.000 A 
ATOM     15  C   UNL     1       4.184   6.386  17.106  0.00  0.00    +0.000 A 
ATOM     16  C   UNL     1       3.433   5.954  18.214  0.00  0.00    +0.000 A 
ATOM     17  C   UNL     1       1.016   8.868  20.766  0.00  0.00    +0.000 C 
ATOM     18  C   UNL     1       1.172  10.167  21.557  0.00  0.00    +0.000 C 
ENDROOT
BRANCH   1  20
ATOM     19  O   UNL     1      -1.453  11.023  19.842  0.00  0.00    +0.000 OA
ATOM     20  C   UNL     1      -0.793  11.524  20.745  0.00  0.00    +0.000 C 
ATOM     21  N   UNL     1      -1.293  12.229  21.823  0.00  0.00    +0.000 N 
ATOM     22  H   UNL     1      -0.621  12.662  22.445  0.00  0.00    +0.000 HD
BRANCH  21  23
ATOM     23  C   UNL     1      -2.638  12.450  22.153  0.00  0.00    +0.000 A 
ATOM     24  C   UNL     1      -3.150  12.345  23.450  0.00  0.00    +0.000 A 
ATOM     25  C   UNL     1      -4.493  12.627  23.701  0.00  0.00    +0.000 A 
ATOM     26  C   UNL     1      -5.336  13.006  22.661  0.00  0.00    +0.000 A 
ATOM     27  C   UNL     1      -4.827  13.096  21.371  0.00  0.00    +0.000 A 
ATOM     28  F   UNL     1      -5.635  13.447  20.364  0.00  0.00    +0.000 F 
ATOM     29  C   UNL     1      -3.491  12.828  21.111  0.00  0.00    +0.000 A 
ENDBRANCH  21  23
ENDBRANCH   1  20
TORSDOF 2
ENDMDL
