MODEL 1
REMARK VINA RESULT:      -7.6      0.000      0.000
REMARK  Name = 
REMARK  4 active torsions:
REMARK  status: ('A' for Active; 'I' for Inactive)
REMARK    1  A    between atoms: N_2  and  C_4
REMARK    2  A    between atoms: C_8  and  C_9
REMARK    3  A    between atoms: N_10  and  O_11
REMARK    4  A    between atoms: N_12  and  C_13
REMARK                            x       y       z     vdW  Elec       q    Type
REMARK                         _______ _______ _______ _____ _____    ______ ____
ROOT
ATOM      1  C   UNL     1       5.908   4.851  16.092  0.00  0.00    +0.000 C 
ATOM      2  N   UNL     1       6.635   4.542  17.141  0.00  0.00    +0.000 NA
ATOM      3  N   UNL     1       4.673   5.460  16.297  0.00  0.00    +0.000 N 
ATOM      4  H   UNL     1       4.147   5.793  15.503  0.00  0.00    +0.000 HD
ENDROOT
BRANCH   1   9
ATOM      5  C   UNL     1       6.029   3.548  12.494  0.00  0.00    +0.000 A 
ATOM      6  C   UNL     1       7.146   4.216  11.978  0.00  0.00    +0.000 A 
ATOM      7  C   UNL     1       7.848   5.097  12.798  0.00  0.00    +0.000 A 
ATOM      8  C   UNL     1       7.459   5.287  14.131  0.00  0.00    +0.000 A 
ATOM      9  C   UNL     1       6.341   4.617  14.657  0.00  0.00    +0.000 A 
ATOM     10  C   UNL     1       5.605   3.771  13.812  0.00  0.00    +0.000 A 
BRANCH   5  12
ATOM     11  O   UNL     1       4.165   2.912  11.267  0.00  0.00    +0.000 OA
ATOM     12  N   UNL     1       5.300   2.592  11.648  0.00  0.00    +0.000 N 
ATOM     13  O   UNL     1       5.862   1.526  11.359  0.00  0.00    +0.000 OA
ENDBRANCH   5  12
ENDBRANCH   1   9
BRANCH   3  14
ATOM     14  C   UNL     1       3.835   5.234  17.413  0.00  0.00    +0.000 A 
ATOM     15  C   UNL     1       3.770   6.197  18.430  0.00  0.00    +0.000 A 
ATOM     16  C   UNL     1       2.944   6.005  19.544  0.00  0.00    +0.000 A 
ATOM     17  C   UNL     1       2.165   4.856  19.652  0.00  0.00    +0.000 A 
ATOM     18  C   UNL     1       2.222   3.890  18.646  0.00  0.00    +0.000 A 
ATOM     19  C   UNL     1       3.058   4.076  17.542  0.00  0.00    +0.000 A 
ENDBRANCH   3  14
BRANCH   2  20
ATOM     20  O   UNL     1       7.917   4.071  16.869  0.00  0.00    +0.000 OA
ATOM     21  H   UNL     1       8.221   4.700  16.188  0.00  0.00    +0.000 HD
ENDBRANCH   2  20
TORSDOF 4
ENDMDL
MODEL 2
REMARK VINA RESULT:      -7.6      0.062      1.105
REMARK  Name = 
REMARK  4 active torsions:
REMARK  status: ('A' for Active; 'I' for Inactive)
REMARK    1  A    between atoms: N_2  and  C_4
REMARK    2  A    between atoms: C_8  and  C_9
REMARK    3  A    between atoms: N_10  and  O_11
REMARK    4  A    between atoms: N_12  and  C_13
REMARK                            x       y       z     vdW  Elec       q    Type
REMARK                         _______ _______ _______ _____ _____    ______ ____
ROOT
ATOM      1  C   UNL     1       5.915   4.852  16.097  0.00  0.00    +0.000 C 
ATOM      2  N   UNL     1       6.645   4.543  17.144  0.00  0.00    +0.000 NA
ATOM      3  N   UNL     1       4.680   5.460  16.305  0.00  0.00    +0.000 N 
ATOM      4  H   UNL     1       4.152   5.793  15.512  0.00  0.00    +0.000 HD
ENDROOT
BRANCH   1   9
ATOM      5  C   UNL     1       6.030   3.548  12.499  0.00  0.00    +0.000 A 
ATOM      6  C   UNL     1       7.143   4.219  11.979  0.00  0.00    +0.000 A 
ATOM      7  C   UNL     1       7.846   5.102  12.798  0.00  0.00    +0.000 A 
ATOM      8  C   UNL     1       7.459   5.291  14.131  0.00  0.00    +0.000 A 
ATOM      9  C   UNL     1       6.344   4.618  14.660  0.00  0.00    +0.000 A 
ATOM     10  C   UNL     1       5.609   3.770  13.818  0.00  0.00    +0.000 A 
BRANCH   5  12
ATOM     11  O   UNL     1       4.164   2.909  11.275  0.00  0.00    +0.000 OA
ATOM     12  N   UNL     1       5.300   2.591  11.654  0.00  0.00    +0.000 N 
ATOM     13  O   UNL     1       5.863   1.526  11.365  0.00  0.00    +0.000 OA
ENDBRANCH   5  12
ENDBRANCH   1   9
BRANCH   3  14
ATOM     14  C   UNL     1       3.845   5.233  17.423  0.00  0.00    +0.000 A 
ATOM     15  C   UNL     1       3.055   4.075  17.467  0.00  0.00    +0.000 A 
ATOM     16  C   UNL     1       2.223   3.819  18.563  0.00  0.00    +0.000 A 
ATOM     17  C   UNL     1       2.178   4.708  19.635  0.00  0.00    +0.000 A 
ATOM     18  C   UNL     1       2.960   5.864  19.601  0.00  0.00    +0.000 A 
ATOM     19  C   UNL     1       3.778   6.126  18.499  0.00  0.00    +0.000 A 
ENDBRANCH   3  14
BRANCH   2  20
ATOM     20  O   UNL     1       7.926   4.072  16.869  0.00  0.00    +0.000 OA
ATOM     21  H   UNL     1       7.815   3.702  15.973  0.00  0.00    +0.000 HD
ENDBRANCH   2  20
TORSDOF 4
ENDMDL
MODEL 3
REMARK VINA RESULT:      -7.5      3.116      6.884
REMARK  Name = 
REMARK  4 active torsions:
REMARK  status: ('A' for Active; 'I' for Inactive)
REMARK    1  A    between atoms: N_2  and  C_4
REMARK    2  A    between atoms: C_8  and  C_9
REMARK    3  A    between atoms: N_10  and  O_11
REMARK    4  A    between atoms: N_12  and  C_13
REMARK                            x       y       z     vdW  Elec       q    Type
REMARK                         _______ _______ _______ _____ _____    ______ ____
ROOT
ATOM      1  C   UNL     1       4.814   4.533  16.623  0.00  0.00    +0.000 C 
ATOM      2  N   UNL     1       4.906   5.831  16.445  0.00  0.00    +0.000 NA
ATOM      3  N   UNL     1       5.685   3.705  15.920  0.00  0.00    +0.000 N 
ATOM      4  H   UNL     1       5.695   2.715  16.118  0.00  0.00    +0.000 HD
ENDROOT
BRANCH   1   9
ATOM      5  C   UNL     1       3.335   2.817  19.710  0.00  0.00    +0.000 A 
ATOM      6  C   UNL     1       1.993   2.665  19.345  0.00  0.00    +0.000 A 
ATOM      7  C   UNL     1       1.571   3.131  18.101  0.00  0.00    +0.000 A 
ATOM      8  C   UNL     1       2.486   3.717  17.217  0.00  0.00    +0.000 A 
ATOM      9  C   UNL     1       3.836   3.871  17.575  0.00  0.00    +0.000 A 
ATOM     10  C   UNL     1       4.246   3.447  18.849  0.00  0.00    +0.000 A 
BRANCH   5  12
ATOM     11  O   UNL     1       3.007   2.348  21.959  0.00  0.00    +0.000 OA
ATOM     12  N   UNL     1       3.798   2.301  21.006  0.00  0.00    +0.000 N 
ATOM     13  O   UNL     1       4.948   1.843  21.071  0.00  0.00    +0.000 OA
ENDBRANCH   5  12
ENDBRANCH   1   9
BRANCH   3  14
ATOM     14  C   UNL     1       6.199   3.979  14.633  0.00  0.00    +0.000 A 
ATOM     15  C   UNL     1       7.272   4.871  14.497  0.00  0.00    +0.000 A 
ATOM     16  C   UNL     1       7.809   5.157  13.236  0.00  0.00    +0.000 A 
ATOM     17  C   UNL     1       7.290   4.548  12.096  0.00  0.00    +0.000 A 
ATOM     18  C   UNL     1       6.221   3.658  12.219  0.00  0.00    +0.000 A 
ATOM     19  C   UNL     1       5.677   3.385  13.477  0.00  0.00    +0.000 A 
ENDBRANCH   3  14
BRANCH   2  20
ATOM     20  O   UNL     1       4.111   6.612  17.280  0.00  0.00    +0.000 OA
ATOM     21  H   UNL     1       4.596   7.459  17.284  0.00  0.00    +0.000 HD
ENDBRANCH   2  20
TORSDOF 4
ENDMDL
MODEL 4
REMARK VINA RESULT:      -7.3      3.078      6.911
REMARK  Name = 
REMARK  4 active torsions:
REMARK  status: ('A' for Active; 'I' for Inactive)
REMARK    1  A    between atoms: N_2  and  C_4
REMARK    2  A    between atoms: C_8  and  C_9
REMARK    3  A    between atoms: N_10  and  O_11
REMARK    4  A    between atoms: N_12  and  C_13
REMARK                            x       y       z     vdW  Elec       q    Type
REMARK                         _______ _______ _______ _____ _____    ______ ____
ROOT
ATOM      1  C   UNL     1       4.765   4.772  16.516  0.00  0.00    +0.000 C 
ATOM      2  N   UNL     1       4.886   6.054  16.255  0.00  0.00    +0.000 NA
ATOM      3  N   UNL     1       5.612   3.880  15.865  0.00  0.00    +0.000 N 
ATOM      4  H   UNL     1       5.601   2.905  16.127  0.00  0.00    +0.000 HD
ENDROOT
BRANCH   1   9
ATOM      5  C   UNL     1       3.295   3.050  19.604  0.00  0.00    +0.000 A 
ATOM      6  C   UNL     1       1.919   3.153  19.369  0.00  0.00    +0.000 A 
ATOM      7  C   UNL     1       1.474   3.792  18.213  0.00  0.00    +0.000 A 
ATOM      8  C   UNL     1       2.394   4.298  17.285  0.00  0.00    +0.000 A 
ATOM      9  C   UNL     1       3.777   4.196  17.512  0.00  0.00    +0.000 A 
ATOM     10  C   UNL     1       4.220   3.598  18.703  0.00  0.00    +0.000 A 
BRANCH   5  12
ATOM     11  O   UNL     1       3.039   2.344  21.800  0.00  0.00    +0.000 OA
ATOM     12  N   UNL     1       3.777   2.350  20.804  0.00  0.00    +0.000 N 
ATOM     13  O   UNL     1       4.887   1.803  20.750  0.00  0.00    +0.000 OA
ENDBRANCH   5  12
ENDBRANCH   1   9
BRANCH   3  14
ATOM     14  C   UNL     1       6.127   4.058  14.561  0.00  0.00    +0.000 A 
ATOM     15  C   UNL     1       5.500   3.420  13.481  0.00  0.00    +0.000 A 
ATOM     16  C   UNL     1       5.982   3.582  12.177  0.00  0.00    +0.000 A 
ATOM     17  C   UNL     1       7.088   4.393  11.932  0.00  0.00    +0.000 A 
ATOM     18  C   UNL     1       7.720   5.033  12.999  0.00  0.00    +0.000 A 
ATOM     19  C   UNL     1       7.247   4.858  14.302  0.00  0.00    +0.000 A 
ENDBRANCH   3  14
BRANCH   2  20
ATOM     20  O   UNL     1       4.113   6.905  17.040  0.00  0.00    +0.000 OA
ATOM     21  H   UNL     1       4.656   6.980  17.848  0.00  0.00    +0.000 HD
ENDBRANCH   2  20
TORSDOF 4
ENDMDL
MODEL 5
REMARK VINA RESULT:      -7.2      2.100      2.850
REMARK  Name = 
REMARK  4 active torsions:
REMARK  status: ('A' for Active; 'I' for Inactive)
REMARK    1  A    between atoms: N_2  and  C_4
REMARK    2  A    between atoms: C_8  and  C_9
REMARK    3  A    between atoms: N_10  and  O_11
REMARK    4  A    between atoms: N_12  and  C_13
REMARK                            x       y       z     vdW  Elec       q    Type
REMARK                         _______ _______ _______ _____ _____    ______ ____
ROOT
ATOM      1  C   UNL     1       3.862   4.735  17.345  0.00  0.00    +0.000 C 
ATOM      2  N   UNL     1       3.337   5.846  17.809  0.00  0.00    +0.000 NA
ATOM      3  N   UNL     1       3.286   3.524  17.717  0.00  0.00    +0.000 N 
ATOM      4  H   UNL     1       3.613   2.669  17.292  0.00  0.00    +0.000 HD
ENDROOT
BRANCH   1   9
ATOM      5  C   UNL     1       5.986   4.230  14.200  0.00  0.00    +0.000 A 
ATOM      6  C   UNL     1       7.257   4.620  14.638  0.00  0.00    +0.000 A 
ATOM      7  C   UNL     1       7.416   5.057  15.952  0.00  0.00    +0.000 A 
ATOM      8  C   UNL     1       6.323   5.076  16.829  0.00  0.00    +0.000 A 
ATOM      9  C   UNL     1       5.045   4.683  16.397  0.00  0.00    +0.000 A 
ATOM     10  C   UNL     1       4.879   4.293  15.058  0.00  0.00    +0.000 A 
BRANCH   5  12
ATOM     11  O   UNL     1       4.657   3.523  12.433  0.00  0.00    +0.000 OA
ATOM     12  N   UNL     1       5.812   3.737  12.825  0.00  0.00    +0.000 N 
ATOM     13  O   UNL     1       6.829   3.569  12.137  0.00  0.00    +0.000 OA
ENDBRANCH   5  12
ENDBRANCH   1   9
BRANCH   3  14
ATOM     14  C   UNL     1       2.653   3.276  18.956  0.00  0.00    +0.000 A 
ATOM     15  C   UNL     1       3.432   2.925  20.068  0.00  0.00    +0.000 A 
ATOM     16  C   UNL     1       2.836   2.680  21.310  0.00  0.00    +0.000 A 
ATOM     17  C   UNL     1       1.456   2.792  21.462  0.00  0.00    +0.000 A 
ATOM     18  C   UNL     1       0.670   3.141  20.362  0.00  0.00    +0.000 A 
ATOM     19  C   UNL     1       1.266   3.370  19.119  0.00  0.00    +0.000 A 
ENDBRANCH   3  14
BRANCH   2  20
ATOM     20  O   UNL     1       3.865   7.025  17.289  0.00  0.00    +0.000 OA
ATOM     21  H   UNL     1       3.207   7.254  16.605  0.00  0.00    +0.000 HD
ENDBRANCH   2  20
TORSDOF 4
ENDMDL
MODEL 6
REMARK VINA RESULT:      -7.1      2.046      2.852
REMARK  Name = 
REMARK  4 active torsions:
REMARK  status: ('A' for Active; 'I' for Inactive)
REMARK    1  A    between atoms: N_2  and  C_4
REMARK    2  A    between atoms: C_8  and  C_9
REMARK    3  A    between atoms: N_10  and  O_11
REMARK    4  A    between atoms: N_12  and  C_13
REMARK                            x       y       z     vdW  Elec       q    Type
REMARK                         _______ _______ _______ _____ _____    ______ ____
ROOT
ATOM      1  C   UNL     1       3.939   4.803  17.238  0.00  0.00    +0.000 C 
ATOM      2  N   UNL     1       3.459   5.917  17.740  0.00  0.00    +0.000 NA
ATOM      3  N   UNL     1       3.335   3.601  17.597  0.00  0.00    +0.000 N 
ATOM      4  H   UNL     1       3.627   2.746  17.146  0.00  0.00    +0.000 HD
ENDROOT
BRANCH   1   9
ATOM      5  C   UNL     1       5.995   4.200  14.065  0.00  0.00    +0.000 A 
ATOM      6  C   UNL     1       7.263   4.651  14.447  0.00  0.00    +0.000 A 
ATOM      7  C   UNL     1       7.443   5.161  15.732  0.00  0.00    +0.000 A 
ATOM      8  C   UNL     1       6.373   5.192  16.637  0.00  0.00    +0.000 A 
ATOM      9  C   UNL     1       5.098   4.738  16.261  0.00  0.00    +0.000 A 
ATOM     10  C   UNL     1       4.909   4.274  14.950  0.00  0.00    +0.000 A 
BRANCH   5  12
ATOM     11  O   UNL     1       6.812   3.298  12.089  0.00  0.00    +0.000 OA
ATOM     12  N   UNL     1       5.801   3.631  12.723  0.00  0.00    +0.000 N 
ATOM     13  O   UNL     1       4.640   3.511  12.306  0.00  0.00    +0.000 OA
ENDBRANCH   5  12
ENDBRANCH   1   9
BRANCH   3  14
ATOM     14  C   UNL     1       2.725   3.342  18.845  0.00  0.00    +0.000 A 
ATOM     15  C   UNL     1       1.329   3.415  18.955  0.00  0.00    +0.000 A 
ATOM     16  C   UNL     1       0.694   3.158  20.176  0.00  0.00    +0.000 A 
ATOM     17  C   UNL     1       1.442   2.814  21.299  0.00  0.00    +0.000 A 
ATOM     18  C   UNL     1       2.833   2.738  21.201  0.00  0.00    +0.000 A 
ATOM     19  C   UNL     1       3.466   3.010  19.985  0.00  0.00    +0.000 A 
ENDBRANCH   3  14
BRANCH   2  20
ATOM     20  O   UNL     1       4.009   7.093  17.234  0.00  0.00    +0.000 OA
ATOM     21  H   UNL     1       4.891   7.096  17.650  0.00  0.00    +0.000 HD
ENDBRANCH   2  20
TORSDOF 4
ENDMDL
MODEL 7
REMARK VINA RESULT:      -7.1      1.159      1.868
REMARK  Name = 
REMARK  4 active torsions:
REMARK  status: ('A' for Active; 'I' for Inactive)
REMARK    1  A    between atoms: N_2  and  C_4
REMARK    2  A    between atoms: C_8  and  C_9
REMARK    3  A    between atoms: N_10  and  O_11
REMARK    4  A    between atoms: N_12  and  C_13
REMARK                            x       y       z     vdW  Elec       q    Type
REMARK                         _______ _______ _______ _____ _____    ______ ____
ROOT
ATOM      1  C   UNL     1       5.027   4.455  17.085  0.00  0.00    +0.000 C 
ATOM      2  N   UNL     1       5.607   4.182  18.231  0.00  0.00    +0.000 NA
ATOM      3  N   UNL     1       3.666   4.744  17.082  0.00  0.00    +0.000 N 
ATOM      4  H   UNL     1       3.226   5.052  16.228  0.00  0.00    +0.000 HD
ENDROOT
BRANCH   1   9
ATOM      5  C   UNL     1       5.932   3.894  13.407  0.00  0.00    +0.000 A 
ATOM      6  C   UNL     1       7.107   4.642  13.277  0.00  0.00    +0.000 A 
ATOM      7  C   UNL     1       7.595   5.336  14.383  0.00  0.00    +0.000 A 
ATOM      8  C   UNL     1       6.933   5.260  15.615  0.00  0.00    +0.000 A 
ATOM      9  C   UNL     1       5.754   4.508  15.754  0.00  0.00    +0.000 A 
ATOM     10  C   UNL     1       5.238   3.853  14.625  0.00  0.00    +0.000 A 
BRANCH   5  12
ATOM     11  O   UNL     1       4.295   3.414  11.833  0.00  0.00    +0.000 OA
ATOM     12  N   UNL     1       5.425   3.132  12.255  0.00  0.00    +0.000 N 
ATOM     13  O   UNL     1       6.158   2.258  11.771  0.00  0.00    +0.000 OA
ENDBRANCH   5  12
ENDBRANCH   1   9
BRANCH   3  14
ATOM     14  C   UNL     1       2.721   4.198  17.980  0.00  0.00    +0.000 A 
ATOM     15  C   UNL     1       2.225   2.906  17.755  0.00  0.00    +0.000 A 
ATOM     16  C   UNL     1       1.294   2.334  18.630  0.00  0.00    +0.000 A 
ATOM     17  C   UNL     1       0.854   3.040  19.748  0.00  0.00    +0.000 A 
ATOM     18  C   UNL     1       1.341   4.327  19.983  0.00  0.00    +0.000 A 
ATOM     19  C   UNL     1       2.259   4.901  19.100  0.00  0.00    +0.000 A 
ENDBRANCH   3  14
BRANCH   2  20
ATOM     20  O   UNL     1       6.992   4.043  18.189  0.00  0.00    +0.000 OA
ATOM     21  H   UNL     1       7.289   4.912  18.520  0.00  0.00    +0.000 HD
ENDBRANCH   2  20
TORSDOF 4
ENDMDL
MODEL 8
REMARK VINA RESULT:      -6.9      2.906      6.729
REMARK  Name = 
REMARK  4 active torsions:
REMARK  status: ('A' for Active; 'I' for Inactive)
REMARK    1  A    between atoms: N_2  and  C_4
REMARK    2  A    between atoms: C_8  and  C_9
REMARK    3  A    between atoms: N_10  and  O_11
REMARK    4  A    between atoms: N_12  and  C_13
REMARK                            x       y       z     vdW  Elec       q    Type
REMARK                         _______ _______ _______ _____ _____    ______ ____
ROOT
ATOM      1  C   UNL     1       5.768   4.313  16.862  0.00  0.00    +0.000 C 
ATOM      2  N   UNL     1       7.054   4.359  17.120  0.00  0.00    +0.000 NA
ATOM      3  N   UNL     1       5.361   3.913  15.592  0.00  0.00    +0.000 N 
ATOM      4  H   UNL     1       4.378   3.777  15.407  0.00  0.00    +0.000 HD
ENDROOT
BRANCH   1   9
ATOM      5  C   UNL     1       3.101   3.948  19.585  0.00  0.00    +0.000 A 
ATOM      6  C   UNL     1       2.685   5.272  19.767  0.00  0.00    +0.000 A 
ATOM      7  C   UNL     1       3.281   6.280  19.011  0.00  0.00    +0.000 A 
ATOM      8  C   UNL     1       4.263   5.967  18.061  0.00  0.00    +0.000 A 
ATOM      9  C   UNL     1       4.683   4.639  17.871  0.00  0.00    +0.000 A 
ATOM     10  C   UNL     1       4.117   3.634  18.671  0.00  0.00    +0.000 A 
BRANCH   5  12
ATOM     11  O   UNL     1       2.609   2.875  21.583  0.00  0.00    +0.000 OA
ATOM     12  N   UNL     1       2.457   2.872  20.354  0.00  0.00    +0.000 N 
ATOM     13  O   UNL     1       1.796   2.030  19.730  0.00  0.00    +0.000 OA
ENDBRANCH   5  12
ENDBRANCH   1   9
BRANCH   3  14
ATOM     14  C   UNL     1       6.083   4.146  14.400  0.00  0.00    +0.000 A 
ATOM     15  C   UNL     1       5.758   3.420  13.245  0.00  0.00    +0.000 A 
ATOM     16  C   UNL     1       6.450   3.634  12.047  0.00  0.00    +0.000 A 
ATOM     17  C   UNL     1       7.468   4.583  11.983  0.00  0.00    +0.000 A 
ATOM     18  C   UNL     1       7.800   5.312  13.126  0.00  0.00    +0.000 A 
ATOM     19  C   UNL     1       7.118   5.086  14.325  0.00  0.00    +0.000 A 
ENDBRANCH   3  14
BRANCH   2  20
ATOM     20  O   UNL     1       7.394   4.626  18.444  0.00  0.00    +0.000 OA
ATOM     21  H   UNL     1       7.316   3.743  18.853  0.00  0.00    +0.000 HD
ENDBRANCH   2  20
TORSDOF 4
ENDMDL
MODEL 9
REMARK VINA RESULT:      -6.8      4.722      6.415
REMARK  Name = 
REMARK  4 active torsions:
REMARK  status: ('A' for Active; 'I' for Inactive)
REMARK    1  A    between atoms: N_2  and  C_4
REMARK    2  A    between atoms: C_8  and  C_9
REMARK    3  A    between atoms: N_10  and  O_11
REMARK    4  A    between atoms: N_12  and  C_13
REMARK                            x       y       z     vdW  Elec       q    Type
REMARK                         _______ _______ _______ _____ _____    ______ ____
ROOT
ATOM      1  C   UNL     1       2.251   7.772  18.882  0.00  0.00    +0.000 C 
ATOM      2  N   UNL     1       1.871   7.831  20.138  0.00  0.00    +0.000 NA
ATOM      3  N   UNL     1       2.108   8.909  18.092  0.00  0.00    +0.000 N 
ATOM      4  H   UNL     1       2.485   8.913  17.156  0.00  0.00    +0.000 HD
ENDROOT
BRANCH   1   9
ATOM      5  C   UNL     1       2.816   4.175  17.696  0.00  0.00    +0.000 A 
ATOM      6  C   UNL     1       4.026   4.283  17.001  0.00  0.00    +0.000 A 
ATOM      7  C   UNL     1       4.648   5.527  16.910  0.00  0.00    +0.000 A 
ATOM      8  C   UNL     1       4.083   6.648  17.533  0.00  0.00    +0.000 A 
ATOM      9  C   UNL     1       2.870   6.547  18.236  0.00  0.00    +0.000 A 
ATOM     10  C   UNL     1       2.221   5.303  18.280  0.00  0.00    +0.000 A 
BRANCH   5  12
ATOM     11  O   UNL     1       2.880   1.856  17.711  0.00  0.00    +0.000 OA
ATOM     12  N   UNL     1       2.167   2.862  17.826  0.00  0.00    +0.000 N 
ATOM     13  O   UNL     1       0.949   2.837  18.047  0.00  0.00    +0.000 OA
ENDBRANCH   5  12
ENDBRANCH   1   9
BRANCH   3  14
ATOM     14  C   UNL     1       1.086   9.874  18.241  0.00  0.00    +0.000 A 
ATOM     15  C   UNL     1      -0.220   9.558  17.842  0.00  0.00    +0.000 A 
ATOM     16  C   UNL     1      -1.256  10.490  17.983  0.00  0.00    +0.000 A 
ATOM     17  C   UNL     1      -1.003  11.744  18.534  0.00  0.00    +0.000 A 
ATOM     18  C   UNL     1       0.294  12.070  18.934  0.00  0.00    +0.000 A 
ATOM     19  C   UNL     1       1.329  11.144  18.779  0.00  0.00    +0.000 A 
ENDBRANCH   3  14
BRANCH   2  20
ATOM     20  O   UNL     1       2.171   6.713  20.912  0.00  0.00    +0.000 OA
ATOM     21  H   UNL     1       1.605   6.853  21.694  0.00  0.00    +0.000 HD
ENDBRANCH   2  20
TORSDOF 4
ENDMDL
