MODEL 1
REMARK VINA RESULT:      -9.1      0.000      0.000
REMARK  Name = 
REMARK  5 active torsions:
REMARK  status: ('A' for Active; 'I' for Inactive)
REMARK    1  A    between atoms: C_1  and  C_2
REMARK    2  A    between atoms: C_5  and  C_6
REMARK    3  A    between atoms: C_6  and  N_7
REMARK    4  A    between atoms: C_12  and  C_14
REMARK    5  A    between atoms: C_16  and  C_17
REMARK                            x       y       z     vdW  Elec       q    Type
REMARK                         _______ _______ _______ _____ _____    ______ ____
ROOT
ATOM      1  N   UNL     1       6.353   5.428  17.393  0.00  0.00    +0.000 N 
ATOM      2  C   UNL     1       7.084   4.662  18.256  0.00  0.00    +0.000 A 
ATOM      3  C   UNL     1       7.973   5.527  18.856  0.00  0.00    +0.000 A 
ATOM      4  C   UNL     1       7.715   6.794  18.279  0.00  0.00    +0.000 A 
ATOM      5  N   UNL     1       8.385   7.954  18.596  0.00  0.00    +0.000 N 
ATOM      6  C   UNL     1       8.154   9.182  18.005  0.00  0.00    +0.000 C 
ATOM      7  O   UNL     1       7.357   9.444  17.114  0.00  0.00    +0.000 OA
ATOM      8  N   UNL     1       6.720   6.720  17.398  0.00  0.00    +0.000 NA
ATOM      9  H   UNL     1       9.095   7.911  19.315  0.00  0.00    +0.000 HD
ENDROOT
BRANCH   6  10
ATOM     10  C   UNL     1       8.995  10.249  18.562  0.00  0.00    +0.000 A 
ATOM     11  C   UNL     1       9.403  11.443  17.910  0.00  0.00    +0.000 A 
ATOM     12  C   UNL     1      10.101  12.149  18.861  0.00  0.00    +0.000 A 
ATOM     13  O   UNL     1      10.154  11.394  19.999  0.00  0.00    +0.000 OA
ATOM     14  N   UNL     1       9.466  10.208  19.820  0.00  0.00    +0.000 NA
BRANCH  12  15
ATOM     15  C   UNL     1      10.717  13.472  18.930  0.00  0.00    +0.000 A 
ATOM     16  C   UNL     1      11.145  14.002  20.173  0.00  0.00    +0.000 A 
ATOM     17  C   UNL     1      11.666  15.296  20.278  0.00  0.00    +0.000 A 
ATOM     18  C   UNL     1      11.746  16.046  19.129  0.00  0.00    +0.000 A 
ATOM     19  C   UNL     1      11.354  15.544  17.911  0.00  0.00    +0.000 A 
ATOM     20  C   UNL     1      10.848  14.264  17.776  0.00  0.00    +0.000 A 
ATOM     21  O   UNL     1      11.507  16.449  16.908  0.00  0.00    +0.000 OA
ATOM     22  C   UNL     1      11.972  17.600  17.648  0.00  0.00    +0.000 C 
ATOM     23  O   UNL     1      12.191  17.328  19.047  0.00  0.00    +0.000 OA
ENDBRANCH  12  15
ENDBRANCH   6  10
BRANCH   1  24
ATOM     24  C   UNL     1       5.170   5.028  16.641  0.00  0.00    +0.000 C 
BRANCH  24  29
ATOM     25  C   UNL     1       0.762   3.587  20.173  0.00  0.00    +0.000 C 
ATOM     26  C   UNL     1       1.866   3.975  19.234  0.00  0.00    +0.000 A 
ATOM     27  C   UNL     1       2.189   3.179  18.131  0.00  0.00    +0.000 A 
ATOM     28  C   UNL     1       3.241   3.537  17.282  0.00  0.00    +0.000 A 
ATOM     29  C   UNL     1       3.986   4.701  17.516  0.00  0.00    +0.000 A 
ATOM     30  C   UNL     1       3.652   5.502  18.618  0.00  0.00    +0.000 A 
ATOM     31  C   UNL     1       2.604   5.141  19.469  0.00  0.00    +0.000 A 
ENDBRANCH  24  29
ENDBRANCH   1  24
TORSDOF 4
ENDMDL
MODEL 2
REMARK VINA RESULT:      -8.5      7.684     11.396
REMARK  Name = 
REMARK  5 active torsions:
REMARK  status: ('A' for Active; 'I' for Inactive)
REMARK    1  A    between atoms: C_1  and  C_2
REMARK    2  A    between atoms: C_5  and  C_6
REMARK    3  A    between atoms: C_6  and  N_7
REMARK    4  A    between atoms: C_12  and  C_14
REMARK    5  A    between atoms: C_16  and  C_17
REMARK                            x       y       z     vdW  Elec       q    Type
REMARK                         _______ _______ _______ _____ _____    ______ ____
ROOT
ATOM      1  N   UNL     1      -2.174  12.666  19.958  0.00  0.00    +0.000 N 
ATOM      2  C   UNL     1      -2.951  12.256  18.913  0.00  0.00    +0.000 A 
ATOM      3  C   UNL     1      -2.354  11.110  18.435  0.00  0.00    +0.000 A 
ATOM      4  C   UNL     1      -1.210  10.914  19.247  0.00  0.00    +0.000 A 
ATOM      5  N   UNL     1      -0.319   9.874  19.112  0.00  0.00    +0.000 N 
ATOM      6  C   UNL     1       0.815   9.705  19.883  0.00  0.00    +0.000 C 
ATOM      7  O   UNL     1       1.226  10.434  20.776  0.00  0.00    +0.000 OA
ATOM      8  N   UNL     1      -1.120  11.864  20.175  0.00  0.00    +0.000 NA
ATOM      9  H   UNL     1      -0.505   9.177  18.401  0.00  0.00    +0.000 HD
ENDROOT
BRANCH   6  10
ATOM     10  C   UNL     1       1.563   8.489  19.537  0.00  0.00    +0.000 A 
ATOM     11  C   UNL     1       2.053   8.124  18.255  0.00  0.00    +0.000 A 
ATOM     12  C   UNL     1       2.749   6.956  18.459  0.00  0.00    +0.000 A 
ATOM     13  O   UNL     1       2.632   6.614  19.776  0.00  0.00    +0.000 OA
ATOM     14  N   UNL     1       1.894   7.565  20.455  0.00  0.00    +0.000 NA
BRANCH  12  15
ATOM     15  C   UNL     1       3.576   6.081  17.631  0.00  0.00    +0.000 A 
ATOM     16  C   UNL     1       3.386   4.677  17.657  0.00  0.00    +0.000 A 
ATOM     17  C   UNL     1       4.215   3.811  16.934  0.00  0.00    +0.000 A 
ATOM     18  C   UNL     1       5.230   4.370  16.195  0.00  0.00    +0.000 A 
ATOM     19  C   UNL     1       5.418   5.730  16.142  0.00  0.00    +0.000 A 
ATOM     20  C   UNL     1       4.607   6.610  16.835  0.00  0.00    +0.000 A 
ATOM     21  O   UNL     1       6.480   6.072  15.363  0.00  0.00    +0.000 OA
ATOM     22  C   UNL     1       6.979   4.767  14.994  0.00  0.00    +0.000 C 
ATOM     23  O   UNL     1       6.149   3.686  15.463  0.00  0.00    +0.000 OA
ENDBRANCH  12  15
ENDBRANCH   6  10
BRANCH   1  24
ATOM     24  C   UNL     1      -2.463  13.733  20.909  0.00  0.00    +0.000 C 
BRANCH  24  29
ATOM     25  C   UNL     1      -7.237  13.040  24.182  0.00  0.00    +0.000 C 
ATOM     26  C   UNL     1      -6.010  13.174  23.329  0.00  0.00    +0.000 A 
ATOM     27  C   UNL     1      -4.752  12.794  23.808  0.00  0.00    +0.000 A 
ATOM     28  C   UNL     1      -3.614  12.953  23.013  0.00  0.00    +0.000 A 
ATOM     29  C   UNL     1      -3.710  13.490  21.721  0.00  0.00    +0.000 A 
ATOM     30  C   UNL     1      -4.976  13.860  21.241  0.00  0.00    +0.000 A 
ATOM     31  C   UNL     1      -6.113  13.705  22.038  0.00  0.00    +0.000 A 
ENDBRANCH  24  29
ENDBRANCH   1  24
TORSDOF 4
ENDMDL
MODEL 3
REMARK VINA RESULT:      -8.4      7.308     11.087
REMARK  Name = 
REMARK  5 active torsions:
REMARK  status: ('A' for Active; 'I' for Inactive)
REMARK    1  A    between atoms: C_1  and  C_2
REMARK    2  A    between atoms: C_5  and  C_6
REMARK    3  A    between atoms: C_6  and  N_7
REMARK    4  A    between atoms: C_12  and  C_14
REMARK    5  A    between atoms: C_16  and  C_17
REMARK                            x       y       z     vdW  Elec       q    Type
REMARK                         _______ _______ _______ _____ _____    ______ ____
ROOT
ATOM      1  N   UNL     1      -0.159  12.925  21.958  0.00  0.00    +0.000 N 
ATOM      2  C   UNL     1       0.536  13.599  20.994  0.00  0.00    +0.000 A 
ATOM      3  C   UNL     1       1.186  12.630  20.260  0.00  0.00    +0.000 A 
ATOM      4  C   UNL     1       0.834  11.399  20.866  0.00  0.00    +0.000 A 
ATOM      5  N   UNL     1       1.268  10.163  20.444  0.00  0.00    +0.000 N 
ATOM      6  C   UNL     1       0.952   8.967  21.059  0.00  0.00    +0.000 C 
ATOM      7  O   UNL     1       0.271   8.800  22.062  0.00  0.00    +0.000 OA
ATOM      8  N   UNL     1       0.008  11.595  21.891  0.00  0.00    +0.000 NA
ATOM      9  H   UNL     1       1.859  10.121  19.623  0.00  0.00    +0.000 HD
ENDROOT
BRANCH   6  10
ATOM     10  C   UNL     1       1.531   7.804  20.374  0.00  0.00    +0.000 A 
ATOM     11  C   UNL     1       2.216   7.800  19.130  0.00  0.00    +0.000 A 
ATOM     12  C   UNL     1       2.633   6.501  18.956  0.00  0.00    +0.000 A 
ATOM     13  O   UNL     1       2.173   5.761  20.009  0.00  0.00    +0.000 OA
ATOM     14  N   UNL     1       1.484   6.567  20.897  0.00  0.00    +0.000 NA
BRANCH  12  15
ATOM     15  C   UNL     1       3.453   5.795  17.975  0.00  0.00    +0.000 A 
ATOM     16  C   UNL     1       3.244   4.416  17.722  0.00  0.00    +0.000 A 
ATOM     17  C   UNL     1       4.065   3.698  16.846  0.00  0.00    +0.000 A 
ATOM     18  C   UNL     1       5.093   4.377  16.235  0.00  0.00    +0.000 A 
ATOM     19  C   UNL     1       5.300   5.718  16.453  0.00  0.00    +0.000 A 
ATOM     20  C   UNL     1       4.497   6.455  17.303  0.00  0.00    +0.000 A 
ATOM     21  O   UNL     1       6.372   6.191  15.761  0.00  0.00    +0.000 OA
ATOM     22  C   UNL     1       6.854   4.978  15.143  0.00  0.00    +0.000 C 
ATOM     23  O   UNL     1       6.006   3.837  15.386  0.00  0.00    +0.000 OA
ENDBRANCH  12  15
ENDBRANCH   6  10
BRANCH   1  24
ATOM     24  C   UNL     1      -1.140  13.473  22.886  0.00  0.00    +0.000 C 
BRANCH  24  29
ATOM     25  C   UNL     1      -6.717  12.644  21.403  0.00  0.00    +0.000 C 
ATOM     26  C   UNL     1      -5.276  12.812  21.787  0.00  0.00    +0.000 A 
ATOM     27  C   UNL     1      -4.869  12.720  23.122  0.00  0.00    +0.000 A 
ATOM     28  C   UNL     1      -3.528  12.910  23.468  0.00  0.00    +0.000 A 
ATOM     29  C   UNL     1      -2.566  13.188  22.486  0.00  0.00    +0.000 A 
ATOM     30  C   UNL     1      -2.978  13.269  21.147  0.00  0.00    +0.000 A 
ATOM     31  C   UNL     1      -4.320  13.084  20.803  0.00  0.00    +0.000 A 
ENDBRANCH  24  29
ENDBRANCH   1  24
TORSDOF 4
ENDMDL
MODEL 4
REMARK VINA RESULT:      -8.3      7.648     11.369
REMARK  Name = 
REMARK  5 active torsions:
REMARK  status: ('A' for Active; 'I' for Inactive)
REMARK    1  A    between atoms: C_1  and  C_2
REMARK    2  A    between atoms: C_5  and  C_6
REMARK    3  A    between atoms: C_6  and  N_7
REMARK    4  A    between atoms: C_12  and  C_14
REMARK    5  A    between atoms: C_16  and  C_17
REMARK                            x       y       z     vdW  Elec       q    Type
REMARK                         _______ _______ _______ _____ _____    ______ ____
ROOT
ATOM      1  N   UNL     1      -0.886  13.425  21.089  0.00  0.00    +0.000 N 
ATOM      2  C   UNL     1      -1.196  13.656  19.780  0.00  0.00    +0.000 A 
ATOM      3  C   UNL     1      -0.740  12.554  19.091  0.00  0.00    +0.000 A 
ATOM      4  C   UNL     1      -0.153  11.714  20.069  0.00  0.00    +0.000 A 
ATOM      5  N   UNL     1       0.432  10.495  19.810  0.00  0.00    +0.000 N 
ATOM      6  C   UNL     1       1.034   9.695  20.761  0.00  0.00    +0.000 C 
ATOM      7  O   UNL     1       1.170   9.927  21.955  0.00  0.00    +0.000 OA
ATOM      8  N   UNL     1      -0.259  12.253  21.281  0.00  0.00    +0.000 NA
ATOM      9  H   UNL     1       0.418  10.154  18.857  0.00  0.00    +0.000 HD
ENDROOT
BRANCH   6  10
ATOM     10  C   UNL     1       1.546   8.436  20.205  0.00  0.00    +0.000 A 
ATOM     11  C   UNL     1       2.179   8.253  18.946  0.00  0.00    +0.000 A 
ATOM     12  C   UNL     1       2.546   6.929  18.920  0.00  0.00    +0.000 A 
ATOM     13  O   UNL     1       2.108   6.342  20.073  0.00  0.00    +0.000 OA
ATOM     14  N   UNL     1       1.483   7.275  20.879  0.00  0.00    +0.000 NA
BRANCH  12  15
ATOM     15  C   UNL     1       3.302   6.078  18.004  0.00  0.00    +0.000 A 
ATOM     16  C   UNL     1       2.988   4.701  17.878  0.00  0.00    +0.000 A 
ATOM     17  C   UNL     1       3.744   3.848  17.067  0.00  0.00    +0.000 A 
ATOM     18  C   UNL     1       4.813   4.390  16.394  0.00  0.00    +0.000 A 
ATOM     19  C   UNL     1       5.122   5.726  16.488  0.00  0.00    +0.000 A 
ATOM     20  C   UNL     1       4.385   6.594  17.271  0.00  0.00    +0.000 A 
ATOM     21  O   UNL     1       6.219   6.053  15.753  0.00  0.00    +0.000 OA
ATOM     22  C   UNL     1       6.603   4.756  15.245  0.00  0.00    +0.000 C 
ATOM     23  O   UNL     1       5.675   3.709  15.593  0.00  0.00    +0.000 OA
ENDBRANCH  12  15
ENDBRANCH   6  10
BRANCH   1  24
ATOM     24  C   UNL     1      -1.303  14.206  22.248  0.00  0.00    +0.000 C 
BRANCH  24  29
ATOM     25  C   UNL     1      -6.640  12.624  23.975  0.00  0.00    +0.000 C 
ATOM     26  C   UNL     1      -5.271  13.069  23.555  0.00  0.00    +0.000 A 
ATOM     27  C   UNL     1      -5.098  13.987  22.514  0.00  0.00    +0.000 A 
ATOM     28  C   UNL     1      -3.815  14.369  22.112  0.00  0.00    +0.000 A 
ATOM     29  C   UNL     1      -2.679  13.848  22.748  0.00  0.00    +0.000 A 
ATOM     30  C   UNL     1      -2.858  12.936  23.799  0.00  0.00    +0.000 A 
ATOM     31  C   UNL     1      -4.141  12.549  24.197  0.00  0.00    +0.000 A 
ENDBRANCH  24  29
ENDBRANCH   1  24
TORSDOF 4
ENDMDL
MODEL 5
REMARK VINA RESULT:      -8.3      7.001     10.092
REMARK  Name = 
REMARK  5 active torsions:
REMARK  status: ('A' for Active; 'I' for Inactive)
REMARK    1  A    between atoms: C_1  and  C_2
REMARK    2  A    between atoms: C_5  and  C_6
REMARK    3  A    between atoms: C_6  and  N_7
REMARK    4  A    between atoms: C_12  and  C_14
REMARK    5  A    between atoms: C_16  and  C_17
REMARK                            x       y       z     vdW  Elec       q    Type
REMARK                         _______ _______ _______ _____ _____    ______ ____
ROOT
ATOM      1  N   UNL     1       2.816   4.229  19.413  0.00  0.00    +0.000 N 
ATOM      2  C   UNL     1       2.104   3.416  20.249  0.00  0.00    +0.000 A 
ATOM      3  C   UNL     1       1.371   4.262  21.052  0.00  0.00    +0.000 A 
ATOM      4  C   UNL     1       1.717   5.571  20.636  0.00  0.00    +0.000 A 
ATOM      5  N   UNL     1       1.208   6.729  21.179  0.00  0.00    +0.000 N 
ATOM      6  C   UNL     1       1.575   8.005  20.795  0.00  0.00    +0.000 C 
ATOM      7  O   UNL     1       2.401   8.322  19.950  0.00  0.00    +0.000 OA
ATOM      8  N   UNL     1       2.590   5.534  19.632  0.00  0.00    +0.000 NA
ATOM      9  H   UNL     1       0.513   6.646  21.910  0.00  0.00    +0.000 HD
ENDROOT
BRANCH   6  10
ATOM     10  C   UNL     1       0.847   9.051  21.526  0.00  0.00    +0.000 A 
ATOM     11  C   UNL     1      -0.075   9.986  20.985  0.00  0.00    +0.000 A 
ATOM     12  C   UNL     1      -0.543  10.692  22.068  0.00  0.00    +0.000 A 
ATOM     13  O   UNL     1       0.105  10.242  23.183  0.00  0.00    +0.000 OA
ATOM     14  N   UNL     1       0.974   9.219  22.853  0.00  0.00    +0.000 NA
BRANCH  12  15
ATOM     15  C   UNL     1      -1.558  11.722  22.276  0.00  0.00    +0.000 A 
ATOM     16  C   UNL     1      -2.422  11.662  23.398  0.00  0.00    +0.000 A 
ATOM     17  C   UNL     1      -3.453  12.591  23.581  0.00  0.00    +0.000 A 
ATOM     18  C   UNL     1      -3.605  13.569  22.627  0.00  0.00    +0.000 A 
ATOM     19  C   UNL     1      -2.765  13.656  21.543  0.00  0.00    +0.000 A 
ATOM     20  C   UNL     1      -1.731  12.760  21.344  0.00  0.00    +0.000 A 
ATOM     21  O   UNL     1      -3.094  14.687  20.719  0.00  0.00    +0.000 OA
ATOM     22  C   UNL     1      -4.279  15.192  21.374  0.00  0.00    +0.000 C 
ATOM     23  O   UNL     1      -4.567  14.529  22.622  0.00  0.00    +0.000 OA
ENDBRANCH  12  15
ENDBRANCH   6  10
BRANCH   1  24
ATOM     24  C   UNL     1       3.616   3.829  18.262  0.00  0.00    +0.000 C 
BRANCH  24  29
ATOM     25  C   UNL     1       7.851   7.702  17.239  0.00  0.00    +0.000 C 
ATOM     26  C   UNL     1       6.779   6.678  17.470  0.00  0.00    +0.000 A 
ATOM     27  C   UNL     1       5.666   6.596  16.628  0.00  0.00    +0.000 A 
ATOM     28  C   UNL     1       4.659   5.657  16.874  0.00  0.00    +0.000 A 
ATOM     29  C   UNL     1       4.750   4.778  17.962  0.00  0.00    +0.000 A 
ATOM     30  C   UNL     1       5.873   4.857  18.798  0.00  0.00    +0.000 A 
ATOM     31  C   UNL     1       6.877   5.800  18.555  0.00  0.00    +0.000 A 
ENDBRANCH  24  29
ENDBRANCH   1  24
TORSDOF 4
ENDMDL
MODEL 6
REMARK VINA RESULT:      -8.3      7.257     10.085
REMARK  Name = 
REMARK  5 active torsions:
REMARK  status: ('A' for Active; 'I' for Inactive)
REMARK    1  A    between atoms: C_1  and  C_2
REMARK    2  A    between atoms: C_5  and  C_6
REMARK    3  A    between atoms: C_6  and  N_7
REMARK    4  A    between atoms: C_12  and  C_14
REMARK    5  A    between atoms: C_16  and  C_17
REMARK                            x       y       z     vdW  Elec       q    Type
REMARK                         _______ _______ _______ _____ _____    ______ ____
ROOT
ATOM      1  N   UNL     1       2.950   4.405  19.326  0.00  0.00    +0.000 N 
ATOM      2  C   UNL     1       2.368   3.513  20.181  0.00  0.00    +0.000 A 
ATOM      3  C   UNL     1       1.580   4.267  21.023  0.00  0.00    +0.000 A 
ATOM      4  C   UNL     1       1.762   5.609  20.610  0.00  0.00    +0.000 A 
ATOM      5  N   UNL     1       1.152   6.699  21.188  0.00  0.00    +0.000 N 
ATOM      6  C   UNL     1       1.359   8.011  20.804  0.00  0.00    +0.000 C 
ATOM      7  O   UNL     1       2.109   8.423  19.929  0.00  0.00    +0.000 OA
ATOM      8  N   UNL     1       2.590   5.676  19.570  0.00  0.00    +0.000 NA
ATOM      9  H   UNL     1       0.502   6.534  21.946  0.00  0.00    +0.000 HD
ENDROOT
BRANCH   6  10
ATOM     10  C   UNL     1       0.553   8.964  21.577  0.00  0.00    +0.000 A 
ATOM     11  C   UNL     1       0.419  10.358  21.340  0.00  0.00    +0.000 A 
ATOM     12  C   UNL     1      -0.497  10.792  22.269  0.00  0.00    +0.000 A 
ATOM     13  O   UNL     1      -0.846   9.728  23.052  0.00  0.00    +0.000 OA
ATOM     14  N   UNL     1      -0.196   8.585  22.627  0.00  0.00    +0.000 NA
BRANCH  12  15
ATOM     15  C   UNL     1      -1.173  12.056  22.550  0.00  0.00    +0.000 A 
ATOM     16  C   UNL     1      -0.501  13.289  22.353  0.00  0.00    +0.000 A 
ATOM     17  C   UNL     1      -1.097  14.510  22.687  0.00  0.00    +0.000 A 
ATOM     18  C   UNL     1      -2.363  14.476  23.222  0.00  0.00    +0.000 A 
ATOM     19  C   UNL     1      -3.038  13.293  23.403  0.00  0.00    +0.000 A 
ATOM     20  C   UNL     1      -2.479  12.073  23.070  0.00  0.00    +0.000 A 
ATOM     21  O   UNL     1      -4.268  13.482  23.951  0.00  0.00    +0.000 OA
ATOM     22  C   UNL     1      -4.258  14.911  24.159  0.00  0.00    +0.000 C 
ATOM     23  O   UNL     1      -3.079  15.556  23.635  0.00  0.00    +0.000 OA
ENDBRANCH  12  15
ENDBRANCH   6  10
BRANCH   1  24
ATOM     24  C   UNL     1       3.740   4.106  18.138  0.00  0.00    +0.000 C 
BRANCH  24  29
ATOM     25  C   UNL     1       8.059   7.968  17.499  0.00  0.00    +0.000 C 
ATOM     26  C   UNL     1       6.964   6.951  17.628  0.00  0.00    +0.000 A 
ATOM     27  C   UNL     1       5.827   7.007  16.816  0.00  0.00    +0.000 A 
ATOM     28  C   UNL     1       4.800   6.071  16.968  0.00  0.00    +0.000 A 
ATOM     29  C   UNL     1       4.892   5.055  17.930  0.00  0.00    +0.000 A 
ATOM     30  C   UNL     1       6.039   4.996  18.736  0.00  0.00    +0.000 A 
ATOM     31  C   UNL     1       7.063   5.936  18.587  0.00  0.00    +0.000 A 
ENDBRANCH  24  29
ENDBRANCH   1  24
TORSDOF 4
ENDMDL
MODEL 7
REMARK VINA RESULT:      -8.3      6.955     10.198
REMARK  Name = 
REMARK  5 active torsions:
REMARK  status: ('A' for Active; 'I' for Inactive)
REMARK    1  A    between atoms: C_1  and  C_2
REMARK    2  A    between atoms: C_5  and  C_6
REMARK    3  A    between atoms: C_6  and  N_7
REMARK    4  A    between atoms: C_12  and  C_14
REMARK    5  A    between atoms: C_16  and  C_17
REMARK                            x       y       z     vdW  Elec       q    Type
REMARK                         _______ _______ _______ _____ _____    ______ ____
ROOT
ATOM      1  N   UNL     1       2.783   3.859  19.544  0.00  0.00    +0.000 N 
ATOM      2  C   UNL     1       1.995   3.119  20.378  0.00  0.00    +0.000 A 
ATOM      3  C   UNL     1       1.273   4.032  21.114  0.00  0.00    +0.000 A 
ATOM      4  C   UNL     1       1.704   5.304  20.664  0.00  0.00    +0.000 A 
ATOM      5  N   UNL     1       1.234   6.508  21.139  0.00  0.00    +0.000 N 
ATOM      6  C   UNL     1       1.682   7.747  20.723  0.00  0.00    +0.000 C 
ATOM      7  O   UNL     1       2.559   7.987  19.903  0.00  0.00    +0.000 OA
ATOM      8  N   UNL     1       2.616   5.182  19.702  0.00  0.00    +0.000 NA
ATOM      9  H   UNL     1       0.505   6.489  21.841  0.00  0.00    +0.000 HD
ENDROOT
BRANCH   6  10
ATOM     10  C   UNL     1       0.980   8.857  21.379  0.00  0.00    +0.000 A 
ATOM     11  C   UNL     1      -0.038   9.674  20.818  0.00  0.00    +0.000 A 
ATOM     12  C   UNL     1      -0.430  10.506  21.840  0.00  0.00    +0.000 A 
ATOM     13  O   UNL     1       0.348  10.239  22.931  0.00  0.00    +0.000 OA
ATOM     14  N   UNL     1       1.230   9.212  22.651  0.00  0.00    +0.000 NA
BRANCH  12  15
ATOM     15  C   UNL     1      -1.470  11.517  22.015  0.00  0.00    +0.000 A 
ATOM     16  C   UNL     1      -1.735  12.460  20.990  0.00  0.00    +0.000 A 
ATOM     17  C   UNL     1      -2.670  13.486  21.161  0.00  0.00    +0.000 A 
ATOM     18  C   UNL     1      -3.327  13.555  22.367  0.00  0.00    +0.000 A 
ATOM     19  C   UNL     1      -3.098  12.640  23.366  0.00  0.00    +0.000 A 
ATOM     20  C   UNL     1      -2.189  11.608  23.219  0.00  0.00    +0.000 A 
ATOM     21  O   UNL     1      -3.842  12.894  24.476  0.00  0.00    +0.000 OA
ATOM     22  C   UNL     1      -4.509  14.114  24.084  0.00  0.00    +0.000 C 
ATOM     23  O   UNL     1      -4.238  14.500  22.722  0.00  0.00    +0.000 OA
ENDBRANCH  12  15
ENDBRANCH   6  10
BRANCH   1  24
ATOM     24  C   UNL     1       3.610   3.373  18.446  0.00  0.00    +0.000 C 
BRANCH  24  29
ATOM     25  C   UNL     1       7.677   7.294  17.006  0.00  0.00    +0.000 C 
ATOM     26  C   UNL     1       6.652   6.254  17.351  0.00  0.00    +0.000 A 
ATOM     27  C   UNL     1       5.617   5.938  16.466  0.00  0.00    +0.000 A 
ATOM     28  C   UNL     1       4.651   4.989  16.814  0.00  0.00    +0.000 A 
ATOM     29  C   UNL     1       4.705   4.332  18.052  0.00  0.00    +0.000 A 
ATOM     30  C   UNL     1       5.752   4.644  18.932  0.00  0.00    +0.000 A 
ATOM     31  C   UNL     1       6.714   5.597  18.586  0.00  0.00    +0.000 A 
ENDBRANCH  24  29
ENDBRANCH   1  24
TORSDOF 4
ENDMDL
MODEL 8
REMARK VINA RESULT:      -8.2      7.146     10.568
REMARK  Name = 
REMARK  5 active torsions:
REMARK  status: ('A' for Active; 'I' for Inactive)
REMARK    1  A    between atoms: C_1  and  C_2
REMARK    2  A    between atoms: C_5  and  C_6
REMARK    3  A    between atoms: C_6  and  N_7
REMARK    4  A    between atoms: C_12  and  C_14
REMARK    5  A    between atoms: C_16  and  C_17
REMARK                            x       y       z     vdW  Elec       q    Type
REMARK                         _______ _______ _______ _____ _____    ______ ____
ROOT
ATOM      1  N   UNL     1      -1.362  11.511  21.900  0.00  0.00    +0.000 N 
ATOM      2  C   UNL     1      -1.182  10.947  23.131  0.00  0.00    +0.000 A 
ATOM      3  C   UNL     1      -0.291   9.914  22.939  0.00  0.00    +0.000 A 
ATOM      4  C   UNL     1       0.001   9.920  21.553  0.00  0.00    +0.000 A 
ATOM      5  N   UNL     1       0.856   9.043  20.925  0.00  0.00    +0.000 N 
ATOM      6  C   UNL     1       1.111   9.030  19.567  0.00  0.00    +0.000 C 
ATOM      7  O   UNL     1       0.625   9.754  18.709  0.00  0.00    +0.000 OA
ATOM      8  N   UNL     1      -0.651  10.903  20.936  0.00  0.00    +0.000 NA
ATOM      9  H   UNL     1       1.339   8.360  21.495  0.00  0.00    +0.000 HD
ENDROOT
BRANCH   6  10
ATOM     10  C   UNL     1       2.089   8.004  19.181  0.00  0.00    +0.000 A 
ATOM     11  C   UNL     1       2.841   7.952  17.977  0.00  0.00    +0.000 A 
ATOM     12  C   UNL     1       3.667   6.862  18.120  0.00  0.00    +0.000 A 
ATOM     13  O   UNL     1       3.385   6.267  19.317  0.00  0.00    +0.000 OA
ATOM     14  N   UNL     1       2.402   6.973  19.984  0.00  0.00    +0.000 NA
BRANCH  12  15
ATOM     15  C   UNL     1       4.751   6.270  17.339  0.00  0.00    +0.000 A 
ATOM     16  C   UNL     1       6.102   6.568  17.644  0.00  0.00    +0.000 A 
ATOM     17  C   UNL     1       7.156   6.078  16.865  0.00  0.00    +0.000 A 
ATOM     18  C   UNL     1       6.835   5.295  15.781  0.00  0.00    +0.000 A 
ATOM     19  C   UNL     1       5.532   4.979  15.480  0.00  0.00    +0.000 A 
ATOM     20  C   UNL     1       4.473   5.439  16.240  0.00  0.00    +0.000 A 
ATOM     21  O   UNL     1       5.435   4.204  14.366  0.00  0.00    +0.000 OA
ATOM     22  C   UNL     1       6.821   4.130  13.964  0.00  0.00    +0.000 C 
ATOM     23  O   UNL     1       7.720   4.763  14.896  0.00  0.00    +0.000 OA
ENDBRANCH  12  15
ENDBRANCH   6  10
BRANCH   1  24
ATOM     24  C   UNL     1      -2.076  12.742  21.587  0.00  0.00    +0.000 C 
BRANCH  24  29
ATOM     25  C   UNL     1      -6.872  12.167  18.325  0.00  0.00    +0.000 C 
ATOM     26  C   UNL     1      -5.647  12.274  19.183  0.00  0.00    +0.000 A 
ATOM     27  C   UNL     1      -5.734  12.668  20.522  0.00  0.00    +0.000 A 
ATOM     28  C   UNL     1      -4.580  12.794  21.301  0.00  0.00    +0.000 A 
ATOM     29  C   UNL     1      -3.316  12.521  20.759  0.00  0.00    +0.000 A 
ATOM     30  C   UNL     1      -3.234  12.117  19.418  0.00  0.00    +0.000 A 
ATOM     31  C   UNL     1      -4.388  11.996  18.638  0.00  0.00    +0.000 A 
ENDBRANCH  24  29
ENDBRANCH   1  24
TORSDOF 4
ENDMDL
MODEL 9
REMARK VINA RESULT:      -8.2      7.547     11.273
REMARK  Name = 
REMARK  5 active torsions:
REMARK  status: ('A' for Active; 'I' for Inactive)
REMARK    1  A    between atoms: C_1  and  C_2
REMARK    2  A    between atoms: C_5  and  C_6
REMARK    3  A    between atoms: C_6  and  N_7
REMARK    4  A    between atoms: C_12  and  C_14
REMARK    5  A    between atoms: C_16  and  C_17
REMARK                            x       y       z     vdW  Elec       q    Type
REMARK                         _______ _______ _______ _____ _____    ______ ____
ROOT
ATOM      1  N   UNL     1      -1.568  12.151  21.886  0.00  0.00    +0.000 N 
ATOM      2  C   UNL     1      -1.561  11.565  23.119  0.00  0.00    +0.000 A 
ATOM      3  C   UNL     1      -0.803  10.423  22.983  0.00  0.00    +0.000 A 
ATOM      4  C   UNL     1      -0.405  10.394  21.624  0.00  0.00    +0.000 A 
ATOM      5  N   UNL     1       0.373   9.412  21.054  0.00  0.00    +0.000 N 
ATOM      6  C   UNL     1       0.729   9.368  19.719  0.00  0.00    +0.000 C 
ATOM      7  O   UNL     1       0.411  10.153  18.835  0.00  0.00    +0.000 OA
ATOM      8  N   UNL     1      -0.871  11.456  20.972  0.00  0.00    +0.000 NA
ATOM      9  H   UNL     1       0.715   8.670  21.650  0.00  0.00    +0.000 HD
ENDROOT
BRANCH   6  10
ATOM     10  C   UNL     1       1.591   8.223  19.397  0.00  0.00    +0.000 A 
ATOM     11  C   UNL     1       2.000   7.800  18.105  0.00  0.00    +0.000 A 
ATOM     12  C   UNL     1       2.855   6.747  18.329  0.00  0.00    +0.000 A 
ATOM     13  O   UNL     1       2.908   6.519  19.674  0.00  0.00    +0.000 OA
ATOM     14  N   UNL     1       2.122   7.435  20.348  0.00  0.00    +0.000 NA
BRANCH  12  15
ATOM     15  C   UNL     1       3.705   5.903  17.492  0.00  0.00    +0.000 A 
ATOM     16  C   UNL     1       3.607   4.490  17.563  0.00  0.00    +0.000 A 
ATOM     17  C   UNL     1       4.462   3.658  16.831  0.00  0.00    +0.000 A 
ATOM     18  C   UNL     1       5.411   4.259  16.039  0.00  0.00    +0.000 A 
ATOM     19  C   UNL     1       5.510   5.626  15.942  0.00  0.00    +0.000 A 
ATOM     20  C   UNL     1       4.670   6.472  16.643  0.00  0.00    +0.000 A 
ATOM     21  O   UNL     1       6.518   6.012  15.115  0.00  0.00    +0.000 OA
ATOM     22  C   UNL     1       7.085   4.731  14.760  0.00  0.00    +0.000 C 
ATOM     23  O   UNL     1       6.344   3.613  15.289  0.00  0.00    +0.000 OA
ENDBRANCH  12  15
ENDBRANCH   6  10
BRANCH   1  24
ATOM     24  C   UNL     1      -2.087  13.467  21.534  0.00  0.00    +0.000 C 
BRANCH  24  29
ATOM     25  C   UNL     1      -7.643  13.624  19.779  0.00  0.00    +0.000 C 
ATOM     26  C   UNL     1      -6.226  13.557  20.266  0.00  0.00    +0.000 A 
ATOM     27  C   UNL     1      -5.784  14.366  21.317  0.00  0.00    +0.000 A 
ATOM     28  C   UNL     1      -4.452  14.315  21.739  0.00  0.00    +0.000 A 
ATOM     29  C   UNL     1      -3.537  13.449  21.123  0.00  0.00    +0.000 A 
ATOM     30  C   UNL     1      -3.988  12.631  20.076  0.00  0.00    +0.000 A 
ATOM     31  C   UNL     1      -5.318  12.687  19.651  0.00  0.00    +0.000 A 
ENDBRANCH  24  29
ENDBRANCH   1  24
TORSDOF 4
ENDMDL
