MODEL 1
REMARK VINA RESULT:      -8.5      0.000      0.000
REMARK  Name = 
REMARK  6 active torsions:
REMARK  status: ('A' for Active; 'I' for Inactive)
REMARK    1  A    between atoms: S_1  and  C_2
REMARK    2  A    between atoms: C_5  and  C_6
REMARK    3  A    between atoms: C_6  and  S_7
REMARK    4  A    between atoms: S_7  and  C_8
REMARK    5  A    between atoms: C_11  and  C_12
REMARK    6  A    between atoms: N_18  and  C_19
REMARK                            x       y       z     vdW  Elec       q    Type
REMARK                         _______ _______ _______ _____ _____    ______ ____
ROOT
ATOM      1  C   UNL     1       4.631   5.654  17.864  0.00  0.00    +0.000 A 
ATOM      2  N   UNL     1       5.079   6.707  17.221  0.00  0.00    +0.000 NA
ATOM      3  N   UNL     1       4.166   7.711  17.375  0.00  0.00    +0.000 NA
ATOM      4  C   UNL     1       3.178   7.280  18.142  0.00  0.00    +0.000 A 
ATOM      5  N   UNL     1       3.384   5.921  18.418  0.00  0.00    +0.000 N 
ENDROOT
BRANCH   4   6
ATOM      6  C   UNL     1       2.107   8.149  18.659  0.00  0.00    +0.000 A 
ATOM      7  C   UNL     1       1.804   8.141  20.021  0.00  0.00    +0.000 A 
ATOM      8  C   UNL     1       0.822   9.004  20.488  0.00  0.00    +0.000 A 
ATOM      9  N   UNL     1       0.139   9.862  19.703  0.00  0.00    +0.000 NA
ATOM     10  C   UNL     1       0.415   9.830  18.387  0.00  0.00    +0.000 A 
ATOM     11  C   UNL     1       1.354   8.983  17.826  0.00  0.00    +0.000 A 
ENDBRANCH   4   6
BRANCH   5  12
ATOM     12  C   UNL     1       2.511   5.048  19.133  0.00  0.00    +0.000 A 
ATOM     13  C   UNL     1       2.640   4.910  20.525  0.00  0.00    +0.000 A 
ATOM     14  C   UNL     1       1.911   3.932  21.207  0.00  0.00    +0.000 A 
ATOM     15  C   UNL     1       1.014   3.124  20.514  0.00  0.00    +0.000 A 
ATOM     16  C   UNL     1       0.838   3.296  19.144  0.00  0.00    +0.000 A 
ATOM     17  C   UNL     1       1.586   4.249  18.450  0.00  0.00    +0.000 A 
ENDBRANCH   5  12
BRANCH   1  18
ATOM     18  S   UNL     1       5.404   4.099  17.825  0.00  0.00    +0.000 S 
BRANCH  18  19
ATOM     19  C   UNL     1       7.020   4.483  17.099  0.00  0.00    +0.000 C 
BRANCH  19  23
ATOM     20  C   UNL     1       6.552   4.111  13.618  0.00  0.00    +0.000 A 
ATOM     21  N   UNL     1       7.359   5.150  13.553  0.00  0.00    +0.000 NA
ATOM     22  N   UNL     1       7.659   5.502  14.857  0.00  0.00    +0.000 NA
ATOM     23  C   UNL     1       7.005   4.654  15.626  0.00  0.00    +0.000 A 
ATOM     24  O   UNL     1       6.289   3.734  14.906  0.00  0.00    +0.000 OA
BRANCH  20  25
ATOM     25  S   UNL     1       5.925   3.277  12.236  0.00  0.00    +0.000 S 
ATOM     26  H   UNL     1       7.091   2.752  11.837  0.00  0.00    +0.000 HD
ENDBRANCH  20  25
ENDBRANCH  19  23
ENDBRANCH  18  19
ENDBRANCH   1  18
TORSDOF 6
ENDMDL
MODEL 2
REMARK VINA RESULT:      -8.2      0.523      1.427
REMARK  Name = 
REMARK  6 active torsions:
REMARK  status: ('A' for Active; 'I' for Inactive)
REMARK    1  A    between atoms: S_1  and  C_2
REMARK    2  A    between atoms: C_5  and  C_6
REMARK    3  A    between atoms: C_6  and  S_7
REMARK    4  A    between atoms: S_7  and  C_8
REMARK    5  A    between atoms: C_11  and  C_12
REMARK    6  A    between atoms: N_18  and  C_19
REMARK                            x       y       z     vdW  Elec       q    Type
REMARK                         _______ _______ _______ _____ _____    ______ ____
ROOT
ATOM      1  C   UNL     1       4.389   5.543  17.660  0.00  0.00    +0.000 A 
ATOM      2  N   UNL     1       4.681   6.650  17.018  0.00  0.00    +0.000 NA
ATOM      3  N   UNL     1       3.809   7.616  17.431  0.00  0.00    +0.000 NA
ATOM      4  C   UNL     1       3.007   7.106  18.352  0.00  0.00    +0.000 A 
ATOM      5  N   UNL     1       3.283   5.737  18.478  0.00  0.00    +0.000 N 
ENDROOT
BRANCH   4   6
ATOM      6  C   UNL     1       2.059   7.909  19.142  0.00  0.00    +0.000 A 
ATOM      7  C   UNL     1       1.421   9.004  18.558  0.00  0.00    +0.000 A 
ATOM      8  C   UNL     1       0.498   9.715  19.311  0.00  0.00    +0.000 A 
ATOM      9  N   UNL     1       0.170   9.410  20.583  0.00  0.00    +0.000 NA
ATOM     10  C   UNL     1       0.822   8.377  21.146  0.00  0.00    +0.000 A 
ATOM     11  C   UNL     1       1.780   7.629  20.484  0.00  0.00    +0.000 A 
ENDBRANCH   4   6
BRANCH   5  12
ATOM     12  C   UNL     1       2.587   4.794  19.293  0.00  0.00    +0.000 A 
ATOM     13  C   UNL     1       1.463   4.121  18.786  0.00  0.00    +0.000 A 
ATOM     14  C   UNL     1       0.675   3.333  19.628  0.00  0.00    +0.000 A 
ATOM     15  C   UNL     1       1.031   3.170  20.964  0.00  0.00    +0.000 A 
ATOM     16  C   UNL     1       2.178   3.786  21.458  0.00  0.00    +0.000 A 
ATOM     17  C   UNL     1       2.953   4.602  20.631  0.00  0.00    +0.000 A 
ENDBRANCH   5  12
BRANCH   1  18
ATOM     18  S   UNL     1       5.155   4.015  17.347  0.00  0.00    +0.000 S 
BRANCH  18  19
ATOM     19  C   UNL     1       6.807   4.512  16.790  0.00  0.00    +0.000 C 
BRANCH  19  23
ATOM     20  C   UNL     1       6.693   4.080  13.287  0.00  0.00    +0.000 A 
ATOM     21  N   UNL     1       7.503   5.119  13.286  0.00  0.00    +0.000 NA
ATOM     22  N   UNL     1       7.669   5.493  14.607  0.00  0.00    +0.000 NA
ATOM     23  C   UNL     1       6.941   4.657  15.321  0.00  0.00    +0.000 A 
ATOM     24  O   UNL     1       6.301   3.724  14.548  0.00  0.00    +0.000 OA
BRANCH  20  25
ATOM     25  S   UNL     1       6.207   3.222  11.863  0.00  0.00    +0.000 S 
ATOM     26  H   UNL     1       6.857   2.086  12.146  0.00  0.00    +0.000 HD
ENDBRANCH  20  25
ENDBRANCH  19  23
ENDBRANCH  18  19
ENDBRANCH   1  18
TORSDOF 6
ENDMDL
MODEL 3
REMARK VINA RESULT:      -7.6      1.917      2.986
REMARK  Name = 
REMARK  6 active torsions:
REMARK  status: ('A' for Active; 'I' for Inactive)
REMARK    1  A    between atoms: S_1  and  C_2
REMARK    2  A    between atoms: C_5  and  C_6
REMARK    3  A    between atoms: C_6  and  S_7
REMARK    4  A    between atoms: S_7  and  C_8
REMARK    5  A    between atoms: C_11  and  C_12
REMARK    6  A    between atoms: N_18  and  C_19
REMARK                            x       y       z     vdW  Elec       q    Type
REMARK                         _______ _______ _______ _____ _____    ______ ____
ROOT
ATOM      1  C   UNL     1       4.225   5.510  17.176  0.00  0.00    +0.000 A 
ATOM      2  N   UNL     1       4.464   6.643  16.557  0.00  0.00    +0.000 NA
ATOM      3  N   UNL     1       3.667   7.601  17.116  0.00  0.00    +0.000 NA
ATOM      4  C   UNL     1       2.967   7.060  18.099  0.00  0.00    +0.000 A 
ATOM      5  N   UNL     1       3.225   5.681  18.127  0.00  0.00    +0.000 N 
ENDROOT
BRANCH   4   6
ATOM      6  C   UNL     1       2.135   7.837  19.032  0.00  0.00    +0.000 A 
ATOM      7  C   UNL     1       1.506   9.004  18.595  0.00  0.00    +0.000 A 
ATOM      8  C   UNL     1       0.691   9.692  19.482  0.00  0.00    +0.000 A 
ATOM      9  N   UNL     1       0.462   9.300  20.752  0.00  0.00    +0.000 NA
ATOM     10  C   UNL     1       1.105   8.196  21.171  0.00  0.00    +0.000 A 
ATOM     11  C   UNL     1       1.962   7.463  20.368  0.00  0.00    +0.000 A 
ENDBRANCH   4   6
BRANCH   5  12
ATOM     12  C   UNL     1       2.609   4.711  18.972  0.00  0.00    +0.000 A 
ATOM     13  C   UNL     1       1.428   4.070  18.562  0.00  0.00    +0.000 A 
ATOM     14  C   UNL     1       0.725   3.253  19.451  0.00  0.00    +0.000 A 
ATOM     15  C   UNL     1       1.220   3.031  20.732  0.00  0.00    +0.000 A 
ATOM     16  C   UNL     1       2.422   3.616  21.125  0.00  0.00    +0.000 A 
ATOM     17  C   UNL     1       3.114   4.459  20.254  0.00  0.00    +0.000 A 
ENDBRANCH   5  12
BRANCH   1  18
ATOM     18  S   UNL     1       4.915   3.987  16.703  0.00  0.00    +0.000 S 
BRANCH  18  19
ATOM     19  C   UNL     1       6.662   4.408  16.460  0.00  0.00    +0.000 C 
BRANCH  19  23
ATOM     20  C   UNL     1       7.918   7.295  18.060  0.00  0.00    +0.000 A 
ATOM     21  N   UNL     1       8.131   6.463  19.059  0.00  0.00    +0.000 NA
ATOM     22  N   UNL     1       7.666   5.226  18.650  0.00  0.00    +0.000 NA
ATOM     23  C   UNL     1       7.194   5.395  17.430  0.00  0.00    +0.000 A 
ATOM     24  O   UNL     1       7.332   6.684  16.986  0.00  0.00    +0.000 OA
BRANCH  20  25
ATOM     25  S   UNL     1       8.367   8.968  18.073  0.00  0.00    +0.000 S 
ATOM     26  H   UNL     1       9.528   8.805  18.720  0.00  0.00    +0.000 HD
ENDBRANCH  20  25
ENDBRANCH  19  23
ENDBRANCH  18  19
ENDBRANCH   1  18
TORSDOF 6
ENDMDL
MODEL 4
REMARK VINA RESULT:      -7.6      1.042      1.495
REMARK  Name = 
REMARK  6 active torsions:
REMARK  status: ('A' for Active; 'I' for Inactive)
REMARK    1  A    between atoms: S_1  and  C_2
REMARK    2  A    between atoms: C_5  and  C_6
REMARK    3  A    between atoms: C_6  and  S_7
REMARK    4  A    between atoms: S_7  and  C_8
REMARK    5  A    between atoms: C_11  and  C_12
REMARK    6  A    between atoms: N_18  and  C_19
REMARK                            x       y       z     vdW  Elec       q    Type
REMARK                         _______ _______ _______ _____ _____    ______ ____
ROOT
ATOM      1  C   UNL     1       4.438   5.512  17.106  0.00  0.00    +0.000 A 
ATOM      2  N   UNL     1       4.788   6.669  16.594  0.00  0.00    +0.000 NA
ATOM      3  N   UNL     1       3.982   7.629  17.138  0.00  0.00    +0.000 NA
ATOM      4  C   UNL     1       3.163   7.060  18.007  0.00  0.00    +0.000 A 
ATOM      5  N   UNL     1       3.356   5.671  17.964  0.00  0.00    +0.000 N 
ENDROOT
BRANCH   4   6
ATOM      6  C   UNL     1       2.276   7.816  18.907  0.00  0.00    +0.000 A 
ATOM      7  C   UNL     1       1.630   8.963  18.443  0.00  0.00    +0.000 A 
ATOM      8  C   UNL     1       0.764   9.630  19.298  0.00  0.00    +0.000 A 
ATOM      9  N   UNL     1       0.501   9.235  20.560  0.00  0.00    +0.000 NA
ATOM     10  C   UNL     1       1.160   8.151  21.006  0.00  0.00    +0.000 A 
ATOM     11  C   UNL     1       2.066   7.440  20.238  0.00  0.00    +0.000 A 
ENDBRANCH   4   6
BRANCH   5  12
ATOM     12  C   UNL     1       2.616   4.680  18.675  0.00  0.00    +0.000 A 
ATOM     13  C   UNL     1       3.063   4.234  19.930  0.00  0.00    +0.000 A 
ATOM     14  C   UNL     1       2.448   3.144  20.550  0.00  0.00    +0.000 A 
ATOM     15  C   UNL     1       1.354   2.527  19.949  0.00  0.00    +0.000 A 
ATOM     16  C   UNL     1       0.869   3.003  18.734  0.00  0.00    +0.000 A 
ATOM     17  C   UNL     1       1.499   4.071  18.091  0.00  0.00    +0.000 A 
ENDBRANCH   5  12
BRANCH   1  18
ATOM     18  S   UNL     1       5.105   3.991  16.597  0.00  0.00    +0.000 S 
BRANCH  18  19
ATOM     19  C   UNL     1       6.545   4.501  15.621  0.00  0.00    +0.000 C 
BRANCH  19  23
ATOM     20  C   UNL     1       5.425   3.644  12.384  0.00  0.00    +0.000 A 
ATOM     21  N   UNL     1       6.685   3.848  12.060  0.00  0.00    +0.000 NA
ATOM     22  N   UNL     1       7.334   4.241  13.217  0.00  0.00    +0.000 NA
ATOM     23  C   UNL     1       6.418   4.255  14.165  0.00  0.00    +0.000 A 
ATOM     24  O   UNL     1       5.183   3.875  13.709  0.00  0.00    +0.000 OA
BRANCH  20  25
ATOM     25  S   UNL     1       4.210   3.098  11.276  0.00  0.00    +0.000 S 
ATOM     26  H   UNL     1       4.869   2.009  10.859  0.00  0.00    +0.000 HD
ENDBRANCH  20  25
ENDBRANCH  19  23
ENDBRANCH  18  19
ENDBRANCH   1  18
TORSDOF 6
ENDMDL
MODEL 5
REMARK VINA RESULT:      -7.6      1.966      2.884
REMARK  Name = 
REMARK  6 active torsions:
REMARK  status: ('A' for Active; 'I' for Inactive)
REMARK    1  A    between atoms: S_1  and  C_2
REMARK    2  A    between atoms: C_5  and  C_6
REMARK    3  A    between atoms: C_6  and  S_7
REMARK    4  A    between atoms: S_7  and  C_8
REMARK    5  A    between atoms: C_11  and  C_12
REMARK    6  A    between atoms: N_18  and  C_19
REMARK                            x       y       z     vdW  Elec       q    Type
REMARK                         _______ _______ _______ _____ _____    ______ ____
ROOT
ATOM      1  C   UNL     1       4.493   5.507  16.800  0.00  0.00    +0.000 A 
ATOM      2  N   UNL     1       4.731   6.655  16.210  0.00  0.00    +0.000 NA
ATOM      3  N   UNL     1       3.906   7.591  16.764  0.00  0.00    +0.000 NA
ATOM      4  C   UNL     1       3.189   7.021  17.718  0.00  0.00    +0.000 A 
ATOM      5  N   UNL     1       3.466   5.646  17.727  0.00  0.00    +0.000 N 
ENDROOT
BRANCH   4   6
ATOM      6  C   UNL     1       2.321   7.769  18.643  0.00  0.00    +0.000 A 
ATOM      7  C   UNL     1       2.194   7.349  19.968  0.00  0.00    +0.000 A 
ATOM      8  C   UNL     1       1.405   8.098  20.830  0.00  0.00    +0.000 A 
ATOM      9  N   UNL     1       0.751   9.220  20.467  0.00  0.00    +0.000 NA
ATOM     10  C   UNL     1       0.852   9.590  19.178  0.00  0.00    +0.000 A 
ATOM     11  C   UNL     1       1.588   8.889  18.239  0.00  0.00    +0.000 A 
ENDBRANCH   4   6
BRANCH   5  12
ATOM     12  C   UNL     1       2.842   4.651  18.537  0.00  0.00    +0.000 A 
ATOM     13  C   UNL     1       1.591   4.129  18.170  0.00  0.00    +0.000 A 
ATOM     14  C   UNL     1       0.895   3.289  19.042  0.00  0.00    +0.000 A 
ATOM     15  C   UNL     1       1.463   2.924  20.260  0.00  0.00    +0.000 A 
ATOM     16  C   UNL     1       2.730   3.390  20.603  0.00  0.00    +0.000 A 
ATOM     17  C   UNL     1       3.418   4.256  19.751  0.00  0.00    +0.000 A 
ENDBRANCH   5  12
BRANCH   1  18
ATOM     18  S   UNL     1       5.218   4.004  16.318  0.00  0.00    +0.000 S 
BRANCH  18  19
ATOM     19  C   UNL     1       6.988   4.395  16.351  0.00  0.00    +0.000 C 
BRANCH  19  23
ATOM     20  C   UNL     1       7.987   7.307  18.081  0.00  0.00    +0.000 A 
ATOM     21  N   UNL     1       8.074   6.484  19.106  0.00  0.00    +0.000 NA
ATOM     22  N   UNL     1       7.681   5.239  18.648  0.00  0.00    +0.000 NA
ATOM     23  C   UNL     1       7.376   5.394  17.375  0.00  0.00    +0.000 A 
ATOM     24  O   UNL     1       7.558   6.682  16.943  0.00  0.00    +0.000 OA
BRANCH  20  25
ATOM     25  S   UNL     1       8.412   8.985  18.141  0.00  0.00    +0.000 S 
ATOM     26  H   UNL     1       9.659   8.806  18.597  0.00  0.00    +0.000 HD
ENDBRANCH  20  25
ENDBRANCH  19  23
ENDBRANCH  18  19
ENDBRANCH   1  18
TORSDOF 6
ENDMDL
MODEL 6
REMARK VINA RESULT:      -7.6      0.972      1.352
REMARK  Name = 
REMARK  6 active torsions:
REMARK  status: ('A' for Active; 'I' for Inactive)
REMARK    1  A    between atoms: S_1  and  C_2
REMARK    2  A    between atoms: C_5  and  C_6
REMARK    3  A    between atoms: C_6  and  S_7
REMARK    4  A    between atoms: S_7  and  C_8
REMARK    5  A    between atoms: C_11  and  C_12
REMARK    6  A    between atoms: N_18  and  C_19
REMARK                            x       y       z     vdW  Elec       q    Type
REMARK                         _______ _______ _______ _____ _____    ______ ____
ROOT
ATOM      1  C   UNL     1       4.658   5.775  18.011  0.00  0.00    +0.000 A 
ATOM      2  N   UNL     1       5.112   6.832  17.380  0.00  0.00    +0.000 NA
ATOM      3  N   UNL     1       4.179   7.823  17.496  0.00  0.00    +0.000 NA
ATOM      4  C   UNL     1       3.171   7.379  18.229  0.00  0.00    +0.000 A 
ATOM      5  N   UNL     1       3.388   6.024  18.519  0.00  0.00    +0.000 N 
ENDROOT
BRANCH   4   6
ATOM      6  C   UNL     1       2.069   8.234  18.703  0.00  0.00    +0.000 A 
ATOM      7  C   UNL     1       1.350   9.009  17.791  0.00  0.00    +0.000 A 
ATOM      8  C   UNL     1       0.288   9.770  18.259  0.00  0.00    +0.000 A 
ATOM      9  N   UNL     1      -0.101   9.805  19.550  0.00  0.00    +0.000 NA
ATOM     10  C   UNL     1       0.626   9.084  20.422  0.00  0.00    +0.000 A 
ATOM     11  C   UNL     1       1.720   8.321  20.054  0.00  0.00    +0.000 A 
ENDBRANCH   4   6
BRANCH   5  12
ATOM     12  C   UNL     1       2.504   5.142  19.207  0.00  0.00    +0.000 A 
ATOM     13  C   UNL     1       2.590   5.005  20.602  0.00  0.00    +0.000 A 
ATOM     14  C   UNL     1       1.853   4.019  21.261  0.00  0.00    +0.000 A 
ATOM     15  C   UNL     1       0.988   3.199  20.541  0.00  0.00    +0.000 A 
ATOM     16  C   UNL     1       0.853   3.369  19.165  0.00  0.00    +0.000 A 
ATOM     17  C   UNL     1       1.611   4.331  18.495  0.00  0.00    +0.000 A 
ENDBRANCH   5  12
BRANCH   1  18
ATOM     18  S   UNL     1       5.457   4.232  18.007  0.00  0.00    +0.000 S 
BRANCH  18  19
ATOM     19  C   UNL     1       6.991   4.588  17.110  0.00  0.00    +0.000 C 
BRANCH  19  23
ATOM     20  C   UNL     1       7.283   4.896  13.604  0.00  0.00    +0.000 A 
ATOM     21  N   UNL     1       6.359   3.957  13.598  0.00  0.00    +0.000 NA
ATOM     22  N   UNL     1       6.102   3.645  14.920  0.00  0.00    +0.000 NA
ATOM     23  C   UNL     1       6.896   4.414  15.641  0.00  0.00    +0.000 A 
ATOM     24  O   UNL     1       7.666   5.243  14.869  0.00  0.00    +0.000 OA
BRANCH  20  25
ATOM     25  S   UNL     1       7.915   5.650  12.178  0.00  0.00    +0.000 S 
ATOM     26  H   UNL     1       8.126   6.853  12.728  0.00  0.00    +0.000 HD
ENDBRANCH  20  25
ENDBRANCH  19  23
ENDBRANCH  18  19
ENDBRANCH   1  18
TORSDOF 6
ENDMDL
MODEL 7
REMARK VINA RESULT:      -7.5      1.998      2.769
REMARK  Name = 
REMARK  6 active torsions:
REMARK  status: ('A' for Active; 'I' for Inactive)
REMARK    1  A    between atoms: S_1  and  C_2
REMARK    2  A    between atoms: C_5  and  C_6
REMARK    3  A    between atoms: C_6  and  S_7
REMARK    4  A    between atoms: S_7  and  C_8
REMARK    5  A    between atoms: C_11  and  C_12
REMARK    6  A    between atoms: N_18  and  C_19
REMARK                            x       y       z     vdW  Elec       q    Type
REMARK                         _______ _______ _______ _____ _____    ______ ____
ROOT
ATOM      1  C   UNL     1       3.913   5.759  17.732  0.00  0.00    +0.000 A 
ATOM      2  N   UNL     1       4.144   6.880  17.090  0.00  0.00    +0.000 NA
ATOM      3  N   UNL     1       3.319   7.838  17.609  0.00  0.00    +0.000 NA
ATOM      4  C   UNL     1       2.609   7.308  18.591  0.00  0.00    +0.000 A 
ATOM      5  N   UNL     1       2.891   5.935  18.658  0.00  0.00    +0.000 N 
ENDROOT
BRANCH   4   6
ATOM      6  C   UNL     1       1.745   8.093  19.488  0.00  0.00    +0.000 A 
ATOM      7  C   UNL     1       1.197   9.298  19.045  0.00  0.00    +0.000 A 
ATOM      8  C   UNL     1       0.350   9.994  19.895  0.00  0.00    +0.000 A 
ATOM      9  N   UNL     1       0.014   9.575  21.132  0.00  0.00    +0.000 NA
ATOM     10  C   UNL     1       0.580   8.432  21.559  0.00  0.00    +0.000 A 
ATOM     11  C   UNL     1       1.461   7.686  20.796  0.00  0.00    +0.000 A 
ENDBRANCH   4   6
BRANCH   5  12
ATOM     12  C   UNL     1       2.275   4.975  19.515  0.00  0.00    +0.000 A 
ATOM     13  C   UNL     1       2.792   4.746  20.801  0.00  0.00    +0.000 A 
ATOM     14  C   UNL     1       2.308   3.689  21.576  0.00  0.00    +0.000 A 
ATOM     15  C   UNL     1       1.276   2.889  21.096  0.00  0.00    +0.000 A 
ATOM     16  C   UNL     1       0.719   3.148  19.846  0.00  0.00    +0.000 A 
ATOM     17  C   UNL     1       1.218   4.182  19.052  0.00  0.00    +0.000 A 
ENDBRANCH   5  12
BRANCH   1  18
ATOM     18  S   UNL     1       4.639   4.238  17.311  0.00  0.00    +0.000 S 
BRANCH  18  19
ATOM     19  C   UNL     1       6.320   4.412  17.968  0.00  0.00    +0.000 C 
BRANCH  19  23
ATOM     20  C   UNL     1       7.886   7.574  17.826  0.00  0.00    +0.000 A 
ATOM     21  N   UNL     1       7.851   7.363  16.526  0.00  0.00    +0.000 NA
ATOM     22  N   UNL     1       7.282   6.116  16.342  0.00  0.00    +0.000 NA
ATOM     23  C   UNL     1       7.017   5.651  17.548  0.00  0.00    +0.000 A 
ATOM     24  O   UNL     1       7.364   6.531  18.539  0.00  0.00    +0.000 OA
BRANCH  20  25
ATOM     25  S   UNL     1       8.480   9.025  18.562  0.00  0.00    +0.000 S 
ATOM     26  H   UNL     1       9.445   9.262  17.663  0.00  0.00    +0.000 HD
ENDBRANCH  20  25
ENDBRANCH  19  23
ENDBRANCH  18  19
ENDBRANCH   1  18
TORSDOF 6
ENDMDL
MODEL 8
REMARK VINA RESULT:      -7.4      1.743      2.375
REMARK  Name = 
REMARK  6 active torsions:
REMARK  status: ('A' for Active; 'I' for Inactive)
REMARK    1  A    between atoms: S_1  and  C_2
REMARK    2  A    between atoms: C_5  and  C_6
REMARK    3  A    between atoms: C_6  and  S_7
REMARK    4  A    between atoms: S_7  and  C_8
REMARK    5  A    between atoms: C_11  and  C_12
REMARK    6  A    between atoms: N_18  and  C_19
REMARK                            x       y       z     vdW  Elec       q    Type
REMARK                         _______ _______ _______ _____ _____    ______ ____
ROOT
ATOM      1  C   UNL     1       5.003   5.295  16.453  0.00  0.00    +0.000 A 
ATOM      2  N   UNL     1       5.325   6.464  15.949  0.00  0.00    +0.000 NA
ATOM      3  N   UNL     1       4.508   7.403  16.512  0.00  0.00    +0.000 NA
ATOM      4  C   UNL     1       3.710   6.810  17.385  0.00  0.00    +0.000 A 
ATOM      5  N   UNL     1       3.928   5.426  17.326  0.00  0.00    +0.000 N 
ENDROOT
BRANCH   4   6
ATOM      6  C   UNL     1       2.820   7.541  18.303  0.00  0.00    +0.000 A 
ATOM      7  C   UNL     1       2.189   8.710  17.874  0.00  0.00    +0.000 A 
ATOM      8  C   UNL     1       1.320   9.352  18.744  0.00  0.00    +0.000 A 
ATOM      9  N   UNL     1       1.038   8.913  19.988  0.00  0.00    +0.000 NA
ATOM     10  C   UNL     1       1.683   7.808  20.400  0.00  0.00    +0.000 A 
ATOM     11  C   UNL     1       2.591   7.118  19.616  0.00  0.00    +0.000 A 
ENDBRANCH   4   6
BRANCH   5  12
ATOM     12  C   UNL     1       3.215   4.414  18.034  0.00  0.00    +0.000 A 
ATOM     13  C   UNL     1       1.906   4.077  17.652  0.00  0.00    +0.000 A 
ATOM     14  C   UNL     1       1.139   3.219  18.443  0.00  0.00    +0.000 A 
ATOM     15  C   UNL     1       1.689   2.652  19.590  0.00  0.00    +0.000 A 
ATOM     16  C   UNL     1       3.006   2.935  19.942  0.00  0.00    +0.000 A 
ATOM     17  C   UNL     1       3.769   3.818  19.174  0.00  0.00    +0.000 A 
ENDBRANCH   5  12
BRANCH   1  18
ATOM     18  S   UNL     1       5.692   3.792  15.921  0.00  0.00    +0.000 S 
BRANCH  18  19
ATOM     19  C   UNL     1       6.623   4.288  14.447  0.00  0.00    +0.000 C 
BRANCH  19  23
ATOM     20  C   UNL     1       4.720   3.229  11.666  0.00  0.00    +0.000 A 
ATOM     21  N   UNL     1       5.771   2.472  11.429  0.00  0.00    +0.000 NA
ATOM     22  N   UNL     1       6.696   2.756  12.417  0.00  0.00    +0.000 NA
ATOM     23  C   UNL     1       6.144   3.675  13.185  0.00  0.00    +0.000 A 
ATOM     24  O   UNL     1       4.882   4.016  12.773  0.00  0.00    +0.000 OA
BRANCH  20  25
ATOM     25  S   UNL     1       3.270   3.209  10.719  0.00  0.00    +0.000 S 
ATOM     26  H   UNL     1       3.713   2.354   9.789  0.00  0.00    +0.000 HD
ENDBRANCH  20  25
ENDBRANCH  19  23
ENDBRANCH  18  19
ENDBRANCH   1  18
TORSDOF 6
ENDMDL
MODEL 9
REMARK VINA RESULT:      -7.3      1.725      1.979
REMARK  Name = 
REMARK  6 active torsions:
REMARK  status: ('A' for Active; 'I' for Inactive)
REMARK    1  A    between atoms: S_1  and  C_2
REMARK    2  A    between atoms: C_5  and  C_6
REMARK    3  A    between atoms: C_6  and  S_7
REMARK    4  A    between atoms: S_7  and  C_8
REMARK    5  A    between atoms: C_11  and  C_12
REMARK    6  A    between atoms: N_18  and  C_19
REMARK                            x       y       z     vdW  Elec       q    Type
REMARK                         _______ _______ _______ _____ _____    ______ ____
ROOT
ATOM      1  C   UNL     1       5.046   5.359  16.524  0.00  0.00    +0.000 A 
ATOM      2  N   UNL     1       5.337   6.540  16.030  0.00  0.00    +0.000 NA
ATOM      3  N   UNL     1       4.480   7.448  16.583  0.00  0.00    +0.000 NA
ATOM      4  C   UNL     1       3.689   6.826  17.441  0.00  0.00    +0.000 A 
ATOM      5  N   UNL     1       3.954   5.450  17.380  0.00  0.00    +0.000 N 
ENDROOT
BRANCH   4   6
ATOM      6  C   UNL     1       2.760   7.522  18.347  0.00  0.00    +0.000 A 
ATOM      7  C   UNL     1       2.562   7.041  19.642  0.00  0.00    +0.000 A 
ATOM      8  C   UNL     1       1.716   7.743  20.489  0.00  0.00    +0.000 A 
ATOM      9  N   UNL     1       1.070   8.874  20.139  0.00  0.00    +0.000 NA
ATOM     10  C   UNL     1       1.240   9.304  18.877  0.00  0.00    +0.000 A 
ATOM     11  C   UNL     1       2.038   8.653  17.951  0.00  0.00    +0.000 A 
ENDBRANCH   4   6
BRANCH   5  12
ATOM     12  C   UNL     1       3.263   4.412  18.073  0.00  0.00    +0.000 A 
ATOM     13  C   UNL     1       3.892   3.733  19.130  0.00  0.00    +0.000 A 
ATOM     14  C   UNL     1       3.295   2.604  19.696  0.00  0.00    +0.000 A 
ATOM     15  C   UNL     1       2.049   2.177  19.248  0.00  0.00    +0.000 A 
ATOM     16  C   UNL     1       1.393   2.881  18.241  0.00  0.00    +0.000 A 
ATOM     17  C   UNL     1       1.997   3.991  17.647  0.00  0.00    +0.000 A 
ENDBRANCH   5  12
BRANCH   1  18
ATOM     18  S   UNL     1       5.793   3.881  15.998  0.00  0.00    +0.000 S 
BRANCH  18  19
ATOM     19  C   UNL     1       6.731   4.415  14.541  0.00  0.00    +0.000 C 
BRANCH  19  23
ATOM     20  C   UNL     1       4.831   3.282  11.787  0.00  0.00    +0.000 A 
ATOM     21  N   UNL     1       5.960   2.694  11.446  0.00  0.00    +0.000 NA
ATOM     22  N   UNL     1       6.893   3.040  12.407  0.00  0.00    +0.000 NA
ATOM     23  C   UNL     1       6.267   3.823  13.263  0.00  0.00    +0.000 A 
ATOM     24  O   UNL     1       4.949   4.011  12.938  0.00  0.00    +0.000 OA
BRANCH  20  25
ATOM     25  S   UNL     1       3.346   3.121  10.912  0.00  0.00    +0.000 S 
ATOM     26  H   UNL     1       3.501   4.214  10.154  0.00  0.00    +0.000 HD
ENDBRANCH  20  25
ENDBRANCH  19  23
ENDBRANCH  18  19
ENDBRANCH   1  18
TORSDOF 6
ENDMDL
