MODEL 1
REMARK VINA RESULT:      -6.7      0.000      0.000
REMARK  Name = 
REMARK  8 active torsions:
REMARK  status: ('A' for Active; 'I' for Inactive)
REMARK    1  A    between atoms: C_1  and  N_2
REMARK    2  A    between atoms: N_2  and  C_3
REMARK    3  A    between atoms: N_2  and  C_4
REMARK    4  A    between atoms: C_4  and  C_5
REMARK    5  A    between atoms: C_5  and  N_6
REMARK    6  A    between atoms: N_6  and  S_7
REMARK    7  A    between atoms: S_7  and  C_10
REMARK    8  A    between atoms: C_15  and  N_16
REMARK                            x       y       z     vdW  Elec       q    Type
REMARK                         _______ _______ _______ _____ _____    ______ ____
ROOT
ATOM      1  S   UNL     1       7.021   5.780  16.679  0.00  0.00    +0.000 S 
ATOM      2  O   UNL     1       7.911   4.641  16.740  0.00  0.00    +0.000 OA
ATOM      3  O   UNL     1       7.458   7.109  17.041  0.00  0.00    +0.000 OA
ENDROOT
BRANCH   1   4
ATOM      4  C   UNL     1       5.573   5.388  17.631  0.00  0.00    +0.000 A 
ATOM      5  C   UNL     1       4.541   6.326  17.755  0.00  0.00    +0.000 A 
ATOM      6  C   UNL     1       3.369   5.985  18.438  0.00  0.00    +0.000 A 
ATOM      7  C   UNL     1       3.223   4.712  19.001  0.00  0.00    +0.000 A 
ATOM      8 CL   UNL     1       1.725   4.350  19.777  0.00  0.00    +0.000 Cl
ATOM      9  C   UNL     1       4.270   3.797  18.872  0.00  0.00    +0.000 A 
ATOM     10  C   UNL     1       5.452   4.113  18.190  0.00  0.00    +0.000 A 
BRANCH   9  11
ATOM     11  N   UNL     1       4.146   2.460  19.408  0.00  0.00    +0.000 N 
ATOM     12  O   UNL     1       3.295   1.720  18.901  0.00  0.00    +0.000 OA
ATOM     13  O   UNL     1       4.874   2.180  20.369  0.00  0.00    +0.000 OA
ENDBRANCH   9  11
ENDBRANCH   1   4
BRANCH   1  14
ATOM     14  N   UNL     1       6.426   5.875  15.095  0.00  0.00    +0.000 NA
ATOM     15  H   UNL     1       5.405   5.928  15.150  0.00  0.00    +0.000 HD
BRANCH  14  16
ATOM     16  C   UNL     1       6.889   4.802  14.183  0.00  0.00    +0.000 C 
BRANCH  16  17
ATOM     17  C   UNL     1       5.749   3.824  13.850  0.00  0.00    +0.000 C 
BRANCH  17  19
ATOM     18  C   UNL     1       4.671   3.351  11.746  0.00  0.00    +0.000 C 
ATOM     19  N   UNL     1       5.904   3.195  12.522  0.00  0.00    +0.000 NA
ATOM     20  C   UNL     1       7.028   3.757  11.766  0.00  0.00    +0.000 C 
ENDBRANCH  17  19
ENDBRANCH  16  17
ENDBRANCH  14  16
ENDBRANCH   1  14
TORSDOF 6
ENDMDL
MODEL 2
REMARK VINA RESULT:      -6.7      1.604      1.953
REMARK  Name = 
REMARK  8 active torsions:
REMARK  status: ('A' for Active; 'I' for Inactive)
REMARK    1  A    between atoms: C_1  and  N_2
REMARK    2  A    between atoms: N_2  and  C_3
REMARK    3  A    between atoms: N_2  and  C_4
REMARK    4  A    between atoms: C_4  and  C_5
REMARK    5  A    between atoms: C_5  and  N_6
REMARK    6  A    between atoms: N_6  and  S_7
REMARK    7  A    between atoms: S_7  and  C_10
REMARK    8  A    between atoms: C_15  and  N_16
REMARK                            x       y       z     vdW  Elec       q    Type
REMARK                         _______ _______ _______ _____ _____    ______ ____
ROOT
ATOM      1  S   UNL     1       6.789   4.707  16.123  0.00  0.00    +0.000 S 
ATOM      2  O   UNL     1       8.019   4.251  16.732  0.00  0.00    +0.000 OA
ATOM      3  O   UNL     1       6.706   5.971  15.427  0.00  0.00    +0.000 OA
ENDROOT
BRANCH   1   4
ATOM      4  C   UNL     1       5.521   4.667  17.366  0.00  0.00    +0.000 A 
ATOM      5  C   UNL     1       5.659   5.430  18.533  0.00  0.00    +0.000 A 
ATOM      6  C   UNL     1       4.623   5.457  19.473  0.00  0.00    +0.000 A 
ATOM      7  C   UNL     1       3.451   4.725  19.255  0.00  0.00    +0.000 A 
ATOM      8 CL   UNL     1       2.197   4.858  20.433  0.00  0.00    +0.000 Cl
ATOM      9  C   UNL     1       3.340   3.965  18.089  0.00  0.00    +0.000 A 
ATOM     10  C   UNL     1       4.362   3.923  17.131  0.00  0.00    +0.000 A 
BRANCH   9  11
ATOM     11  N   UNL     1       2.132   3.222  17.809  0.00  0.00    +0.000 N 
ATOM     12  O   UNL     1       1.186   3.841  17.308  0.00  0.00    +0.000 OA
ATOM     13  O   UNL     1       2.127   2.029  18.139  0.00  0.00    +0.000 OA
ENDBRANCH   9  11
ENDBRANCH   1   4
BRANCH   1  14
ATOM     14  N   UNL     1       6.292   3.513  15.028  0.00  0.00    +0.000 NA
ATOM     15  H   UNL     1       7.082   2.877  14.883  0.00  0.00    +0.000 HD
BRANCH  14  16
ATOM     16  C   UNL     1       5.733   4.022  13.752  0.00  0.00    +0.000 C 
BRANCH  16  17
ATOM     17  C   UNL     1       6.600   3.596  12.556  0.00  0.00    +0.000 C 
BRANCH  17  19
ATOM     18  C   UNL     1       6.065   1.532  11.430  0.00  0.00    +0.000 C 
ATOM     19  N   UNL     1       5.813   2.975  11.470  0.00  0.00    +0.000 NA
ATOM     20  C   UNL     1       4.373   3.213  11.618  0.00  0.00    +0.000 C 
ENDBRANCH  17  19
ENDBRANCH  16  17
ENDBRANCH  14  16
ENDBRANCH   1  14
TORSDOF 6
ENDMDL
MODEL 3
REMARK VINA RESULT:      -6.6      0.988      1.197
REMARK  Name = 
REMARK  8 active torsions:
REMARK  status: ('A' for Active; 'I' for Inactive)
REMARK    1  A    between atoms: C_1  and  N_2
REMARK    2  A    between atoms: N_2  and  C_3
REMARK    3  A    between atoms: N_2  and  C_4
REMARK    4  A    between atoms: C_4  and  C_5
REMARK    5  A    between atoms: C_5  and  N_6
REMARK    6  A    between atoms: N_6  and  S_7
REMARK    7  A    between atoms: S_7  and  C_10
REMARK    8  A    between atoms: C_15  and  N_16
REMARK                            x       y       z     vdW  Elec       q    Type
REMARK                         _______ _______ _______ _____ _____    ______ ____
ROOT
ATOM      1  S   UNL     1       5.830   6.322  16.578  0.00  0.00    +0.000 S 
ATOM      2  O   UNL     1       6.636   7.165  17.433  0.00  0.00    +0.000 OA
ATOM      3  O   UNL     1       5.166   6.840  15.403  0.00  0.00    +0.000 OA
ENDROOT
BRANCH   1   4
ATOM      4  C   UNL     1       4.618   5.516  17.596  0.00  0.00    +0.000 A 
ATOM      5  C   UNL     1       3.400   6.150  17.870  0.00  0.00    +0.000 A 
ATOM      6  C   UNL     1       2.417   5.479  18.607  0.00  0.00    +0.000 A 
ATOM      7  C   UNL     1       2.646   4.180  19.073  0.00  0.00    +0.000 A 
ATOM      8 CL   UNL     1       1.362   3.400  19.923  0.00  0.00    +0.000 Cl
ATOM      9  C   UNL     1       3.872   3.572  18.795  0.00  0.00    +0.000 A 
ATOM     10  C   UNL     1       4.871   4.221  18.057  0.00  0.00    +0.000 A 
BRANCH   9  11
ATOM     11  N   UNL     1       4.135   2.218  19.228  0.00  0.00    +0.000 N 
ATOM     12  O   UNL     1       3.638   1.302  18.563  0.00  0.00    +0.000 OA
ATOM     13  O   UNL     1       4.801   2.089  20.263  0.00  0.00    +0.000 OA
ENDBRANCH   9  11
ENDBRANCH   1   4
BRANCH   1  14
ATOM     14  N   UNL     1       6.811   5.040  16.059  0.00  0.00    +0.000 NA
ATOM     15  H   UNL     1       7.725   5.150  16.507  0.00  0.00    +0.000 HD
BRANCH  14  16
ATOM     16  C   UNL     1       6.915   4.881  14.589  0.00  0.00    +0.000 C 
BRANCH  16  17
ATOM     17  C   UNL     1       5.965   3.785  14.079  0.00  0.00    +0.000 C 
BRANCH  17  19
ATOM     18  C   UNL     1       5.018   3.277  11.921  0.00  0.00    +0.000 C 
ATOM     19  N   UNL     1       6.260   3.371  12.692  0.00  0.00    +0.000 NA
ATOM     20  C   UNL     1       7.181   4.293  12.018  0.00  0.00    +0.000 C 
ENDBRANCH  17  19
ENDBRANCH  16  17
ENDBRANCH  14  16
ENDBRANCH   1  14
TORSDOF 6
ENDMDL
MODEL 4
REMARK VINA RESULT:      -6.6      2.078      2.293
REMARK  Name = 
REMARK  8 active torsions:
REMARK  status: ('A' for Active; 'I' for Inactive)
REMARK    1  A    between atoms: C_1  and  N_2
REMARK    2  A    between atoms: N_2  and  C_3
REMARK    3  A    between atoms: N_2  and  C_4
REMARK    4  A    between atoms: C_4  and  C_5
REMARK    5  A    between atoms: C_5  and  N_6
REMARK    6  A    between atoms: N_6  and  S_7
REMARK    7  A    between atoms: S_7  and  C_10
REMARK    8  A    between atoms: C_15  and  N_16
REMARK                            x       y       z     vdW  Elec       q    Type
REMARK                         _______ _______ _______ _____ _____    ______ ____
ROOT
ATOM      1  S   UNL     1       6.233   4.959  17.682  0.00  0.00    +0.000 S 
ATOM      2  O   UNL     1       7.073   4.672  18.824  0.00  0.00    +0.000 OA
ATOM      3  O   UNL     1       6.132   6.289  17.125  0.00  0.00    +0.000 OA
ENDROOT
BRANCH   1   4
ATOM      4  C   UNL     1       4.596   4.381  18.054  0.00  0.00    +0.000 A 
ATOM      5  C   UNL     1       3.958   3.480  17.192  0.00  0.00    +0.000 A 
ATOM      6  C   UNL     1       2.701   2.966  17.528  0.00  0.00    +0.000 A 
ATOM      7  C   UNL     1       2.076   3.349  18.720  0.00  0.00    +0.000 A 
ATOM      8 CL   UNL     1       0.554   2.626  19.091  0.00  0.00    +0.000 Cl
ATOM      9  C   UNL     1       2.728   4.255  19.559  0.00  0.00    +0.000 A 
ATOM     10  C   UNL     1       3.988   4.782  19.246  0.00  0.00    +0.000 A 
BRANCH   9  11
ATOM     11  N   UNL     1       2.133   4.650  20.817  0.00  0.00    +0.000 N 
ATOM     12  O   UNL     1       1.582   5.755  20.863  0.00  0.00    +0.000 OA
ATOM     13  O   UNL     1       2.265   3.863  21.762  0.00  0.00    +0.000 OA
ENDBRANCH   9  11
ENDBRANCH   1   4
BRANCH   1  14
ATOM     14  N   UNL     1       6.725   3.938  16.422  0.00  0.00    +0.000 NA
ATOM     15  H   UNL     1       7.565   3.442  16.735  0.00  0.00    +0.000 HD
BRANCH  14  16
ATOM     16  C   UNL     1       6.916   4.603  15.111  0.00  0.00    +0.000 C 
BRANCH  16  17
ATOM     17  C   UNL     1       5.824   4.187  14.111  0.00  0.00    +0.000 C 
BRANCH  17  19
ATOM     18  C   UNL     1       5.285   3.203  11.977  0.00  0.00    +0.000 C 
ATOM     19  N   UNL     1       6.375   3.590  12.877  0.00  0.00    +0.000 NA
ATOM     20  C   UNL     1       7.285   4.501  12.174  0.00  0.00    +0.000 C 
ENDBRANCH  17  19
ENDBRANCH  16  17
ENDBRANCH  14  16
ENDBRANCH   1  14
TORSDOF 6
ENDMDL
MODEL 5
REMARK VINA RESULT:      -6.5      1.129      1.543
REMARK  Name = 
REMARK  8 active torsions:
REMARK  status: ('A' for Active; 'I' for Inactive)
REMARK    1  A    between atoms: C_1  and  N_2
REMARK    2  A    between atoms: N_2  and  C_3
REMARK    3  A    between atoms: N_2  and  C_4
REMARK    4  A    between atoms: C_4  and  C_5
REMARK    5  A    between atoms: C_5  and  N_6
REMARK    6  A    between atoms: N_6  and  S_7
REMARK    7  A    between atoms: S_7  and  C_10
REMARK    8  A    between atoms: C_15  and  N_16
REMARK                            x       y       z     vdW  Elec       q    Type
REMARK                         _______ _______ _______ _____ _____    ______ ____
ROOT
ATOM      1  S   UNL     1       6.101   5.690  15.967  0.00  0.00    +0.000 S 
ATOM      2  O   UNL     1       7.401   6.109  16.443  0.00  0.00    +0.000 OA
ATOM      3  O   UNL     1       5.324   6.500  15.058  0.00  0.00    +0.000 OA
ENDROOT
BRANCH   1   4
ATOM      4  C   UNL     1       5.098   5.320  17.386  0.00  0.00    +0.000 A 
ATOM      5  C   UNL     1       4.293   6.315  17.953  0.00  0.00    +0.000 A 
ATOM      6  C   UNL     1       3.445   6.000  19.021  0.00  0.00    +0.000 A 
ATOM      7  C   UNL     1       3.399   4.697  19.527  0.00  0.00    +0.000 A 
ATOM      8 CL   UNL     1       2.286   4.375  20.805  0.00  0.00    +0.000 Cl
ATOM      9  C   UNL     1       4.218   3.723  18.951  0.00  0.00    +0.000 A 
ATOM     10  C   UNL     1       5.074   4.013  17.879  0.00  0.00    +0.000 A 
BRANCH   9  11
ATOM     11  N   UNL     1       4.176   2.357  19.420  0.00  0.00    +0.000 N 
ATOM     12  O   UNL     1       4.937   2.049  20.345  0.00  0.00    +0.000 OA
ATOM     13  O   UNL     1       3.410   1.590  18.823  0.00  0.00    +0.000 OA
ENDBRANCH   9  11
ENDBRANCH   1   4
BRANCH   1  14
ATOM     14  N   UNL     1       6.295   4.176  15.229  0.00  0.00    +0.000 NA
ATOM     15  H   UNL     1       7.299   4.020  15.103  0.00  0.00    +0.000 HD
BRANCH  14  16
ATOM     16  C   UNL     1       5.530   3.986  13.973  0.00  0.00    +0.000 C 
BRANCH  16  17
ATOM     17  C   UNL     1       6.464   3.647  12.799  0.00  0.00    +0.000 C 
BRANCH  17  19
ATOM     18  C   UNL     1       5.952   1.669  11.518  0.00  0.00    +0.000 C 
ATOM     19  N   UNL     1       5.739   3.115  11.626  0.00  0.00    +0.000 NA
ATOM     20  C   UNL     1       4.299   3.390  11.688  0.00  0.00    +0.000 C 
ENDBRANCH  17  19
ENDBRANCH  16  17
ENDBRANCH  14  16
ENDBRANCH   1  14
TORSDOF 6
ENDMDL
MODEL 6
REMARK VINA RESULT:      -6.5      1.346      1.509
REMARK  Name = 
REMARK  8 active torsions:
REMARK  status: ('A' for Active; 'I' for Inactive)
REMARK    1  A    between atoms: C_1  and  N_2
REMARK    2  A    between atoms: N_2  and  C_3
REMARK    3  A    between atoms: N_2  and  C_4
REMARK    4  A    between atoms: C_4  and  C_5
REMARK    5  A    between atoms: C_5  and  N_6
REMARK    6  A    between atoms: N_6  and  S_7
REMARK    7  A    between atoms: S_7  and  C_10
REMARK    8  A    between atoms: C_15  and  N_16
REMARK                            x       y       z     vdW  Elec       q    Type
REMARK                         _______ _______ _______ _____ _____    ______ ____
ROOT
ATOM      1  S   UNL     1       7.279   4.786  17.032  0.00  0.00    +0.000 S 
ATOM      2  O   UNL     1       8.302   4.129  17.816  0.00  0.00    +0.000 OA
ATOM      3  O   UNL     1       7.446   6.134  16.536  0.00  0.00    +0.000 OA
ENDROOT
BRANCH   1   4
ATOM      4  C   UNL     1       5.760   4.711  17.950  0.00  0.00    +0.000 A 
ATOM      5  C   UNL     1       5.549   5.580  19.027  0.00  0.00    +0.000 A 
ATOM      6  C   UNL     1       4.321   5.572  19.698  0.00  0.00    +0.000 A 
ATOM      7  C   UNL     1       3.303   4.699  19.299  0.00  0.00    +0.000 A 
ATOM      8 CL   UNL     1       1.798   4.791  20.137  0.00  0.00    +0.000 Cl
ATOM      9  C   UNL     1       3.540   3.836  18.226  0.00  0.00    +0.000 A 
ATOM     10  C   UNL     1       4.760   3.826  17.538  0.00  0.00    +0.000 A 
BRANCH   9  11
ATOM     11  N   UNL     1       2.503   2.943  17.760  0.00  0.00    +0.000 N 
ATOM     12  O   UNL     1       1.616   3.425  17.046  0.00  0.00    +0.000 OA
ATOM     13  O   UNL     1       2.563   1.772  18.154  0.00  0.00    +0.000 OA
ENDBRANCH   9  11
ENDBRANCH   1   4
BRANCH   1  14
ATOM     14  N   UNL     1       6.964   3.806  15.685  0.00  0.00    +0.000 NA
ATOM     15  H   UNL     1       7.717   3.116  15.622  0.00  0.00    +0.000 HD
BRANCH  14  16
ATOM     16  C   UNL     1       6.755   4.535  14.411  0.00  0.00    +0.000 C 
BRANCH  16  17
ATOM     17  C   UNL     1       5.494   4.037  13.685  0.00  0.00    +0.000 C 
BRANCH  17  19
ATOM     18  C   UNL     1       4.660   3.253  11.563  0.00  0.00    +0.000 C 
ATOM     19  N   UNL     1       5.805   3.244  12.477  0.00  0.00    +0.000 NA
ATOM     20  C   UNL     1       6.992   3.740  11.774  0.00  0.00    +0.000 C 
ENDBRANCH  17  19
ENDBRANCH  16  17
ENDBRANCH  14  16
ENDBRANCH   1  14
TORSDOF 6
ENDMDL
MODEL 7
REMARK VINA RESULT:      -6.5      1.547      1.831
REMARK  Name = 
REMARK  8 active torsions:
REMARK  status: ('A' for Active; 'I' for Inactive)
REMARK    1  A    between atoms: C_1  and  N_2
REMARK    2  A    between atoms: N_2  and  C_3
REMARK    3  A    between atoms: N_2  and  C_4
REMARK    4  A    between atoms: C_4  and  C_5
REMARK    5  A    between atoms: C_5  and  N_6
REMARK    6  A    between atoms: N_6  and  S_7
REMARK    7  A    between atoms: S_7  and  C_10
REMARK    8  A    between atoms: C_15  and  N_16
REMARK                            x       y       z     vdW  Elec       q    Type
REMARK                         _______ _______ _______ _____ _____    ______ ____
ROOT
ATOM      1  S   UNL     1       6.762   5.333  16.286  0.00  0.00    +0.000 S 
ATOM      2  O   UNL     1       7.767   4.310  16.475  0.00  0.00    +0.000 OA
ATOM      3  O   UNL     1       7.091   6.740  16.322  0.00  0.00    +0.000 OA
ENDROOT
BRANCH   1   4
ATOM      4  C   UNL     1       5.456   5.033  17.451  0.00  0.00    +0.000 A 
ATOM      5  C   UNL     1       5.539   5.557  18.747  0.00  0.00    +0.000 A 
ATOM      6  C   UNL     1       4.473   5.386  19.637  0.00  0.00    +0.000 A 
ATOM      7  C   UNL     1       3.325   4.691  19.240  0.00  0.00    +0.000 A 
ATOM      8 CL   UNL     1       2.031   4.573  20.375  0.00  0.00    +0.000 Cl
ATOM      9  C   UNL     1       3.269   4.170  17.945  0.00  0.00    +0.000 A 
ATOM     10  C   UNL     1       4.322   4.331  17.035  0.00  0.00    +0.000 A 
BRANCH   9  11
ATOM     11  N   UNL     1       2.087   3.477  17.484  0.00  0.00    +0.000 N 
ATOM     12  O   UNL     1       2.163   2.250  17.352  0.00  0.00    +0.000 OA
ATOM     13  O   UNL     1       1.105   4.179  17.212  0.00  0.00    +0.000 OA
ENDBRANCH   9  11
ENDBRANCH   1   4
BRANCH   1  14
ATOM     14  N   UNL     1       6.018   5.044  14.791  0.00  0.00    +0.000 NA
ATOM     15  H   UNL     1       5.017   5.225  14.904  0.00  0.00    +0.000 HD
BRANCH  14  16
ATOM     16  C   UNL     1       6.291   3.713  14.198  0.00  0.00    +0.000 C 
BRANCH  16  17
ATOM     17  C   UNL     1       6.210   3.759  12.663  0.00  0.00    +0.000 C 
BRANCH  17  19
ATOM     18  C   UNL     1       4.304   3.219  11.290  0.00  0.00    +0.000 C 
ATOM     19  N   UNL     1       5.392   2.665  12.100  0.00  0.00    +0.000 NA
ATOM     20  C   UNL     1       6.185   1.742  11.280  0.00  0.00    +0.000 C 
ENDBRANCH  17  19
ENDBRANCH  16  17
ENDBRANCH  14  16
ENDBRANCH   1  14
TORSDOF 6
ENDMDL
MODEL 8
REMARK VINA RESULT:      -6.3      0.633      1.189
REMARK  Name = 
REMARK  8 active torsions:
REMARK  status: ('A' for Active; 'I' for Inactive)
REMARK    1  A    between atoms: C_1  and  N_2
REMARK    2  A    between atoms: N_2  and  C_3
REMARK    3  A    between atoms: N_2  and  C_4
REMARK    4  A    between atoms: C_4  and  C_5
REMARK    5  A    between atoms: C_5  and  N_6
REMARK    6  A    between atoms: N_6  and  S_7
REMARK    7  A    between atoms: S_7  and  C_10
REMARK    8  A    between atoms: C_15  and  N_16
REMARK                            x       y       z     vdW  Elec       q    Type
REMARK                         _______ _______ _______ _____ _____    ______ ____
ROOT
ATOM      1  S   UNL     1       7.205   5.542  17.134  0.00  0.00    +0.000 S 
ATOM      2  O   UNL     1       8.043   4.380  17.330  0.00  0.00    +0.000 OA
ATOM      3  O   UNL     1       7.554   6.835  17.679  0.00  0.00    +0.000 OA
ENDROOT
BRANCH   1   4
ATOM      4  C   UNL     1       5.566   5.127  17.681  0.00  0.00    +0.000 A 
ATOM      5  C   UNL     1       4.494   5.979  17.389  0.00  0.00    +0.000 A 
ATOM      6  C   UNL     1       3.194   5.611  17.752  0.00  0.00    +0.000 A 
ATOM      7  C   UNL     1       2.959   4.397  18.408  0.00  0.00    +0.000 A 
ATOM      8 CL   UNL     1       1.323   3.988  18.769  0.00  0.00    +0.000 Cl
ATOM      9  C   UNL     1       4.046   3.568  18.696  0.00  0.00    +0.000 A 
ATOM     10  C   UNL     1       5.357   3.914  18.340  0.00  0.00    +0.000 A 
BRANCH   9  11
ATOM     11  N   UNL     1       3.844   2.290  19.340  0.00  0.00    +0.000 N 
ATOM     12  O   UNL     1       3.999   2.240  20.565  0.00  0.00    +0.000 OA
ATOM     13  O   UNL     1       3.575   1.334  18.601  0.00  0.00    +0.000 OA
ENDBRANCH   9  11
ENDBRANCH   1   4
BRANCH   1  14
ATOM     14  N   UNL     1       7.011   5.752  15.463  0.00  0.00    +0.000 NA
ATOM     15  H   UNL     1       6.121   6.236  15.313  0.00  0.00    +0.000 HD
BRANCH  14  16
ATOM     16  C   UNL     1       7.127   4.515  14.655  0.00  0.00    +0.000 C 
BRANCH  16  17
ATOM     17  C   UNL     1       5.770   4.114  14.053  0.00  0.00    +0.000 C 
BRANCH  17  19
ATOM     18  C   UNL     1       7.140   3.853  12.086  0.00  0.00    +0.000 C 
ATOM     19  N   UNL     1       5.781   4.101  12.575  0.00  0.00    +0.000 NA
ATOM     20  C   UNL     1       4.874   3.091  12.020  0.00  0.00    +0.000 C 
ENDBRANCH  17  19
ENDBRANCH  16  17
ENDBRANCH  14  16
ENDBRANCH   1  14
TORSDOF 6
ENDMDL
MODEL 9
REMARK VINA RESULT:      -6.3      2.174      2.515
REMARK  Name = 
REMARK  8 active torsions:
REMARK  status: ('A' for Active; 'I' for Inactive)
REMARK    1  A    between atoms: C_1  and  N_2
REMARK    2  A    between atoms: N_2  and  C_3
REMARK    3  A    between atoms: N_2  and  C_4
REMARK    4  A    between atoms: C_4  and  C_5
REMARK    5  A    between atoms: C_5  and  N_6
REMARK    6  A    between atoms: N_6  and  S_7
REMARK    7  A    between atoms: S_7  and  C_10
REMARK    8  A    between atoms: C_15  and  N_16
REMARK                            x       y       z     vdW  Elec       q    Type
REMARK                         _______ _______ _______ _____ _____    ______ ____
ROOT
ATOM      1  S   UNL     1       7.183   5.474  17.018  0.00  0.00    +0.000 S 
ATOM      2  O   UNL     1       7.944   4.257  17.194  0.00  0.00    +0.000 OA
ATOM      3  O   UNL     1       7.568   6.713  17.654  0.00  0.00    +0.000 OA
ENDROOT
BRANCH   1   4
ATOM      4  C   UNL     1       5.495   5.124  17.447  0.00  0.00    +0.000 A 
ATOM      5  C   UNL     1       5.030   3.803  17.443  0.00  0.00    +0.000 A 
ATOM      6  C   UNL     1       3.723   3.525  17.858  0.00  0.00    +0.000 A 
ATOM      7  C   UNL     1       2.877   4.559  18.273  0.00  0.00    +0.000 A 
ATOM      8 CL   UNL     1       1.300   4.127  18.825  0.00  0.00    +0.000 Cl
ATOM      9  C   UNL     1       3.360   5.869  18.260  0.00  0.00    +0.000 A 
ATOM     10  C   UNL     1       4.666   6.173  17.852  0.00  0.00    +0.000 A 
BRANCH   9  11
ATOM     11  N   UNL     1       2.531   6.962  18.715  0.00  0.00    +0.000 N 
ATOM     12  O   UNL     1       2.100   7.743  17.859  0.00  0.00    +0.000 OA
ATOM     13  O   UNL     1       2.358   7.053  19.937  0.00  0.00    +0.000 OA
ENDBRANCH   9  11
ENDBRANCH   1   4
BRANCH   1  14
ATOM     14  N   UNL     1       7.100   5.784  15.353  0.00  0.00    +0.000 NA
ATOM     15  H   UNL     1       6.231   6.295  15.177  0.00  0.00    +0.000 HD
BRANCH  14  16
ATOM     16  C   UNL     1       7.246   4.593  14.483  0.00  0.00    +0.000 C 
BRANCH  16  17
ATOM     17  C   UNL     1       5.888   4.152  13.912  0.00  0.00    +0.000 C 
BRANCH  17  19
ATOM     18  C   UNL     1       4.753   3.373  11.932  0.00  0.00    +0.000 C 
ATOM     19  N   UNL     1       6.018   3.359  12.672  0.00  0.00    +0.000 NA
ATOM     20  C   UNL     1       7.093   3.852  11.804  0.00  0.00    +0.000 C 
ENDBRANCH  17  19
ENDBRANCH  16  17
ENDBRANCH  14  16
ENDBRANCH   1  14
TORSDOF 6
ENDMDL
