MODEL 1
REMARK VINA RESULT:      -6.9      0.000      0.000
REMARK  Name = 
REMARK  9 active torsions:
REMARK  status: ('A' for Active; 'I' for Inactive)
REMARK    1  A    between atoms: C_1  and  O_2
REMARK    2  A    between atoms: O_2  and  C_3
REMARK    3  A    between atoms: C_3  and  C_5
REMARK    4  A    between atoms: C_10  and  N_11
REMARK    5  A    between atoms: C_12  and  C_14
REMARK    6  A    between atoms: C_14  and  N_15
REMARK    7  A    between atoms: C_19  and  C_20
REMARK    8  A    between atoms: C_22  and  C_23
REMARK    9  A    between atoms: N_25  and  C_26
REMARK                            x       y       z     vdW  Elec       q    Type
REMARK                         _______ _______ _______ _____ _____    ______ ____
ROOT
ATOM      1  N   UNL     1       0.058  10.858  19.255  0.00  0.00    +0.000 N 
ATOM      2  C   UNL     1      -1.166  10.923  18.606  0.00  0.00    +0.000 C 
ATOM      3  O   UNL     1      -1.687   9.968  18.032  0.00  0.00    +0.000 OA
ATOM      4  H   UNL     1       0.177  11.478  20.055  0.00  0.00    +0.000 HD
ENDROOT
BRANCH   1  10
ATOM      5  C   UNL     1       0.966   8.799  20.310  0.00  0.00    +0.000 A 
ATOM      6  C   UNL     1       1.776   7.651  20.199  0.00  0.00    +0.000 A 
ATOM      7  C   UNL     1       2.529   7.404  19.053  0.00  0.00    +0.000 A 
ATOM      8  C   UNL     1       2.488   8.308  18.002  0.00  0.00    +0.000 A 
ATOM      9  C   UNL     1       1.672   9.441  18.087  0.00  0.00    +0.000 A 
ATOM     10  C   UNL     1       0.886   9.699  19.226  0.00  0.00    +0.000 A 
BRANCH   5  11
ATOM     11  C   UNL     1       0.172   8.901  21.568  0.00  0.00    +0.000 C 
ATOM     12  O   UNL     1      -0.678   8.078  21.884  0.00  0.00    +0.000 OA
BRANCH  11  14
ATOM     13  C   UNL     1      -0.619  10.578  22.988  0.00  0.00    +0.000 C 
ATOM     14  O   UNL     1       0.490  10.005  22.287  0.00  0.00    +0.000 OA
ENDBRANCH  11  14
ENDBRANCH   5  11
ENDBRANCH   1  10
BRANCH   2  15
ATOM     15  C   UNL     1      -1.870  12.288  18.646  0.00  0.00    +0.000 C 
BRANCH  15  16
ATOM     16  N   UNL     1      -2.768  12.532  19.774  0.00  0.00    +0.000 N 
ATOM     17  C   UNL     1      -2.200  13.138  20.899  0.00  0.00    +0.000 A 
ATOM     18  O   UNL     1      -1.026  13.511  20.960  0.00  0.00    +0.000 OA
ATOM     19  C   UNL     1      -3.037  13.316  22.125  0.00  0.00    +0.000 A 
ATOM     20  C   UNL     1      -4.340  13.004  22.132  0.00  0.00    +0.000 A 
ATOM     21  C   UNL     1      -5.154  13.048  23.383  0.00  0.00    +0.000 C 
ATOM     22  C   UNL     1      -4.963  12.564  20.923  0.00  0.00    +0.000 A 
ATOM     23  C   UNL     1      -6.297  12.338  20.520  0.00  0.00    +0.000 A 
ATOM     24  C   UNL     1      -7.594  12.530  21.216  0.00  0.00    +0.000 C 
ATOM     25  N   UNL     1      -6.332  11.934  19.245  0.00  0.00    +0.000 NA
ATOM     26  N   UNL     1      -5.047  11.950  18.828  0.00  0.00    +0.000 N 
ATOM     27  C   UNL     1      -4.831  11.706  17.424  0.00  0.00    +0.000 C 
ATOM     28  C   UNL     1      -4.166  12.331  19.816  0.00  0.00    +0.000 A 
ENDBRANCH  15  16
ENDBRANCH   2  15
TORSDOF 5
ENDMDL
MODEL 2
REMARK VINA RESULT:      -6.6      1.051      1.266
REMARK  Name = 
REMARK  9 active torsions:
REMARK  status: ('A' for Active; 'I' for Inactive)
REMARK    1  A    between atoms: C_1  and  O_2
REMARK    2  A    between atoms: O_2  and  C_3
REMARK    3  A    between atoms: C_3  and  C_5
REMARK    4  A    between atoms: C_10  and  N_11
REMARK    5  A    between atoms: C_12  and  C_14
REMARK    6  A    between atoms: C_14  and  N_15
REMARK    7  A    between atoms: C_19  and  C_20
REMARK    8  A    between atoms: C_22  and  C_23
REMARK    9  A    between atoms: N_25  and  C_26
REMARK                            x       y       z     vdW  Elec       q    Type
REMARK                         _______ _______ _______ _____ _____    ______ ____
ROOT
ATOM      1  N   UNL     1       0.285  10.944  19.423  0.00  0.00    +0.000 N 
ATOM      2  C   UNL     1      -1.046  11.083  19.057  0.00  0.00    +0.000 C 
ATOM      3  O   UNL     1      -1.746  10.154  18.659  0.00  0.00    +0.000 OA
ATOM      4  H   UNL     1       0.622  11.579  20.145  0.00  0.00    +0.000 HD
ENDROOT
BRANCH   1  10
ATOM      5  C   UNL     1       1.343   8.903  20.367  0.00  0.00    +0.000 A 
ATOM      6  C   UNL     1       2.021   7.689  20.141  0.00  0.00    +0.000 A 
ATOM      7  C   UNL     1       2.396   7.297  18.857  0.00  0.00    +0.000 A 
ATOM      8  C   UNL     1       2.103   8.121  17.780  0.00  0.00    +0.000 A 
ATOM      9  C   UNL     1       1.411   9.319  17.985  0.00  0.00    +0.000 A 
ATOM     10  C   UNL     1       1.004   9.724  19.270  0.00  0.00    +0.000 A 
BRANCH   5  11
ATOM     11  C   UNL     1       0.953   9.162  21.783  0.00  0.00    +0.000 C 
ATOM     12  O   UNL     1       1.773   9.319  22.678  0.00  0.00    +0.000 OA
BRANCH  11  14
ATOM     13  C   UNL     1      -0.846  10.145  22.902  0.00  0.00    +0.000 C 
ATOM     14  O   UNL     1      -0.393   9.178  21.949  0.00  0.00    +0.000 OA
ENDBRANCH  11  14
ENDBRANCH   5  11
ENDBRANCH   1  10
BRANCH   2  15
ATOM     15  C   UNL     1      -1.626  12.500  19.182  0.00  0.00    +0.000 C 
BRANCH  15  16
ATOM     16  N   UNL     1      -2.213  12.858  20.473  0.00  0.00    +0.000 N 
ATOM     17  C   UNL     1      -1.366  13.496  21.385  0.00  0.00    +0.000 A 
ATOM     18  O   UNL     1      -0.198  13.806  21.136  0.00  0.00    +0.000 OA
ATOM     19  C   UNL     1      -1.872  13.790  22.760  0.00  0.00    +0.000 A 
ATOM     20  C   UNL     1      -3.146  13.552  23.101  0.00  0.00    +0.000 A 
ATOM     21  C   UNL     1      -3.629  13.712  24.504  0.00  0.00    +0.000 C 
ATOM     22  C   UNL     1      -4.061  13.077  22.110  0.00  0.00    +0.000 A 
ATOM     23  C   UNL     1      -5.460  12.903  22.055  0.00  0.00    +0.000 A 
ATOM     24  C   UNL     1      -6.541  13.206  23.026  0.00  0.00    +0.000 C 
ATOM     25  N   UNL     1      -5.820  12.428  20.856  0.00  0.00    +0.000 NA
ATOM     26  N   UNL     1      -4.675  12.350  20.143  0.00  0.00    +0.000 N 
ATOM     27  C   UNL     1      -4.816  12.014  18.749  0.00  0.00    +0.000 C 
ATOM     28  C   UNL     1      -3.566  12.737  20.862  0.00  0.00    +0.000 A 
ENDBRANCH  15  16
ENDBRANCH   2  15
TORSDOF 5
ENDMDL
MODEL 3
REMARK VINA RESULT:      -6.5      2.973      5.330
REMARK  Name = 
REMARK  9 active torsions:
REMARK  status: ('A' for Active; 'I' for Inactive)
REMARK    1  A    between atoms: C_1  and  O_2
REMARK    2  A    between atoms: O_2  and  C_3
REMARK    3  A    between atoms: C_3  and  C_5
REMARK    4  A    between atoms: C_10  and  N_11
REMARK    5  A    between atoms: C_12  and  C_14
REMARK    6  A    between atoms: C_14  and  N_15
REMARK    7  A    between atoms: C_19  and  C_20
REMARK    8  A    between atoms: C_22  and  C_23
REMARK    9  A    between atoms: N_25  and  C_26
REMARK                            x       y       z     vdW  Elec       q    Type
REMARK                         _______ _______ _______ _____ _____    ______ ____
ROOT
ATOM      1  N   UNL     1       2.120   6.592  20.709  0.00  0.00    +0.000 N 
ATOM      2  C   UNL     1       1.085   7.454  21.040  0.00  0.00    +0.000 C 
ATOM      3  O   UNL     1      -0.104   7.193  20.865  0.00  0.00    +0.000 OA
ATOM      4  H   UNL     1       2.959   6.653  21.286  0.00  0.00    +0.000 HD
ENDROOT
BRANCH   1  10
ATOM      5  C   UNL     1       2.396   5.121  18.726  0.00  0.00    +0.000 A 
ATOM      6  C   UNL     1       2.185   3.863  18.126  0.00  0.00    +0.000 A 
ATOM      7  C   UNL     1       1.475   2.858  18.781  0.00  0.00    +0.000 A 
ATOM      8  C   UNL     1       0.958   3.102  20.045  0.00  0.00    +0.000 A 
ATOM      9  C   UNL     1       1.177   4.337  20.663  0.00  0.00    +0.000 A 
ATOM     10  C   UNL     1       1.909   5.358  20.029  0.00  0.00    +0.000 A 
BRANCH   5  11
ATOM     11  C   UNL     1       3.223   6.075  17.933  0.00  0.00    +0.000 C 
ATOM     12  O   UNL     1       3.096   7.290  18.017  0.00  0.00    +0.000 OA
BRANCH  11  14
ATOM     13  C   UNL     1       5.434   5.941  17.193  0.00  0.00    +0.000 C 
ATOM     14  O   UNL     1       4.095   5.439  17.113  0.00  0.00    +0.000 OA
ENDBRANCH  11  14
ENDBRANCH   5  11
ENDBRANCH   1  10
BRANCH   2  15
ATOM     15  C   UNL     1       1.507   8.793  21.665  0.00  0.00    +0.000 C 
BRANCH  15  16
ATOM     16  N   UNL     1       0.467   9.814  21.796  0.00  0.00    +0.000 N 
ATOM     17  C   UNL     1      -0.039  10.022  23.083  0.00  0.00    +0.000 A 
ATOM     18  O   UNL     1       0.376   9.438  24.087  0.00  0.00    +0.000 OA
ATOM     19  C   UNL     1      -1.179  10.972  23.268  0.00  0.00    +0.000 A 
ATOM     20  C   UNL     1      -1.652  11.701  22.248  0.00  0.00    +0.000 A 
ATOM     21  C   UNL     1      -2.873  12.549  22.386  0.00  0.00    +0.000 C 
ATOM     22  C   UNL     1      -1.007  11.628  20.974  0.00  0.00    +0.000 A 
ATOM     23  C   UNL     1      -1.102  12.360  19.771  0.00  0.00    +0.000 A 
ATOM     24  C   UNL     1      -1.901  13.551  19.390  0.00  0.00    +0.000 C 
ATOM     25  N   UNL     1      -0.243  11.876  18.866  0.00  0.00    +0.000 NA
ATOM     26  N   UNL     1       0.423  10.885  19.499  0.00  0.00    +0.000 N 
ATOM     27  C   UNL     1       1.530  10.303  18.781  0.00  0.00    +0.000 C 
ATOM     28  C   UNL     1      -0.004  10.692  20.794  0.00  0.00    +0.000 A 
ENDBRANCH  15  16
ENDBRANCH   2  15
TORSDOF 5
ENDMDL
MODEL 4
REMARK VINA RESULT:      -6.4      2.300      7.090
REMARK  Name = 
REMARK  9 active torsions:
REMARK  status: ('A' for Active; 'I' for Inactive)
REMARK    1  A    between atoms: C_1  and  O_2
REMARK    2  A    between atoms: O_2  and  C_3
REMARK    3  A    between atoms: C_3  and  C_5
REMARK    4  A    between atoms: C_10  and  N_11
REMARK    5  A    between atoms: C_12  and  C_14
REMARK    6  A    between atoms: C_14  and  N_15
REMARK    7  A    between atoms: C_19  and  C_20
REMARK    8  A    between atoms: C_22  and  C_23
REMARK    9  A    between atoms: N_25  and  C_26
REMARK                            x       y       z     vdW  Elec       q    Type
REMARK                         _______ _______ _______ _____ _____    ______ ____
ROOT
ATOM      1  N   UNL     1      -2.034  11.765  19.677  0.00  0.00    +0.000 N 
ATOM      2  C   UNL     1      -1.050  12.742  19.711  0.00  0.00    +0.000 C 
ATOM      3  O   UNL     1      -1.214  13.891  19.304  0.00  0.00    +0.000 OA
ATOM      4  H   UNL     1      -1.996  11.062  20.414  0.00  0.00    +0.000 HD
ENDROOT
BRANCH   1  10
ATOM      5  C   UNL     1      -3.581  11.551  17.744  0.00  0.00    +0.000 A 
ATOM      6  C   UNL     1      -4.871  11.748  17.212  0.00  0.00    +0.000 A 
ATOM      7  C   UNL     1      -5.870  12.381  17.949  0.00  0.00    +0.000 A 
ATOM      8  C   UNL     1      -5.589  12.832  19.231  0.00  0.00    +0.000 A 
ATOM      9  C   UNL     1      -4.320  12.623  19.782  0.00  0.00    +0.000 A 
ATOM     10  C   UNL     1      -3.303  11.968  19.063  0.00  0.00    +0.000 A 
BRANCH   5  11
ATOM     11  C   UNL     1      -2.634  10.807  16.864  0.00  0.00    +0.000 C 
ATOM     12  O   UNL     1      -1.838   9.983  17.294  0.00  0.00    +0.000 OA
BRANCH  11  14
ATOM     13  C   UNL     1      -2.938  10.066  14.670  0.00  0.00    +0.000 C 
ATOM     14  O   UNL     1      -2.753  11.170  15.562  0.00  0.00    +0.000 OA
ENDBRANCH  11  14
ENDBRANCH   5  11
ENDBRANCH   1  10
BRANCH   2  15
ATOM     15  C   UNL     1       0.298  12.310  20.308  0.00  0.00    +0.000 C 
BRANCH  15  16
ATOM     16  N   UNL     1       0.906  11.101  19.753  0.00  0.00    +0.000 N 
ATOM     17  C   UNL     1       1.683  11.268  18.603  0.00  0.00    +0.000 A 
ATOM     18  O   UNL     1       1.913  12.362  18.082  0.00  0.00    +0.000 OA
ATOM     19  C   UNL     1       2.241  10.059  17.924  0.00  0.00    +0.000 A 
ATOM     20  C   UNL     1       2.101   8.835  18.452  0.00  0.00    +0.000 A 
ATOM     21  C   UNL     1       2.533   7.607  17.721  0.00  0.00    +0.000 C 
ATOM     22  C   UNL     1       1.471   8.688  19.727  0.00  0.00    +0.000 A 
ATOM     23  C   UNL     1       1.322   7.625  20.643  0.00  0.00    +0.000 A 
ATOM     24  C   UNL     1       1.827   6.230  20.640  0.00  0.00    +0.000 C 
ATOM     25  N   UNL     1       0.640   8.034  21.719  0.00  0.00    +0.000 NA
ATOM     26  N   UNL     1       0.402   9.349  21.514  0.00  0.00    +0.000 N 
ATOM     27  C   UNL     1      -0.186  10.067  22.617  0.00  0.00    +0.000 C 
ATOM     28  C   UNL     1       0.891   9.802  20.310  0.00  0.00    +0.000 A 
ENDBRANCH  15  16
ENDBRANCH   2  15
TORSDOF 5
ENDMDL
MODEL 5
REMARK VINA RESULT:      -6.4      3.919      8.466
REMARK  Name = 
REMARK  9 active torsions:
REMARK  status: ('A' for Active; 'I' for Inactive)
REMARK    1  A    between atoms: C_1  and  O_2
REMARK    2  A    between atoms: O_2  and  C_3
REMARK    3  A    between atoms: C_3  and  C_5
REMARK    4  A    between atoms: C_10  and  N_11
REMARK    5  A    between atoms: C_12  and  C_14
REMARK    6  A    between atoms: C_14  and  N_15
REMARK    7  A    between atoms: C_19  and  C_20
REMARK    8  A    between atoms: C_22  and  C_23
REMARK    9  A    between atoms: N_25  and  C_26
REMARK                            x       y       z     vdW  Elec       q    Type
REMARK                         _______ _______ _______ _____ _____    ______ ____
ROOT
ATOM      1  N   UNL     1       1.070   9.525  19.183  0.00  0.00    +0.000 N 
ATOM      2  C   UNL     1       1.998   8.835  18.418  0.00  0.00    +0.000 C 
ATOM      3  O   UNL     1       2.037   8.876  17.190  0.00  0.00    +0.000 OA
ATOM      4  H   UNL     1       1.379   9.819  20.109  0.00  0.00    +0.000 HD
ENDROOT
BRANCH   1  10
ATOM      5  C   UNL     1      -0.126  11.664  18.768  0.00  0.00    +0.000 A 
ATOM      6  C   UNL     1      -1.192  12.341  18.143  0.00  0.00    +0.000 A 
ATOM      7  C   UNL     1      -2.150  11.654  17.400  0.00  0.00    +0.000 A 
ATOM      8  C   UNL     1      -2.058  10.275  17.278  0.00  0.00    +0.000 A 
ATOM      9  C   UNL     1      -0.994   9.590  17.875  0.00  0.00    +0.000 A 
ATOM     10  C   UNL     1      -0.004  10.267  18.611  0.00  0.00    +0.000 A 
BRANCH   5  11
ATOM     11  C   UNL     1       0.854  12.535  19.478  0.00  0.00    +0.000 C 
ATOM     12  O   UNL     1       0.529  13.311  20.368  0.00  0.00    +0.000 OA
BRANCH  11  14
ATOM     13  C   UNL     1       2.575  13.467  18.204  0.00  0.00    +0.000 C 
ATOM     14  O   UNL     1       2.117  12.376  19.008  0.00  0.00    +0.000 OA
ENDBRANCH  11  14
ENDBRANCH   5  11
ENDBRANCH   1  10
BRANCH   2  15
ATOM     15  C   UNL     1       3.017   7.995  19.203  0.00  0.00    +0.000 C 
BRANCH  15  16
ATOM     16  N   UNL     1       2.669   6.593  19.440  0.00  0.00    +0.000 N 
ATOM     17  C   UNL     1       1.690   6.353  20.409  0.00  0.00    +0.000 A 
ATOM     18  O   UNL     1       1.090   7.243  21.015  0.00  0.00    +0.000 OA
ATOM     19  C   UNL     1       1.368   4.940  20.777  0.00  0.00    +0.000 A 
ATOM     20  C   UNL     1       1.918   3.906  20.126  0.00  0.00    +0.000 A 
ATOM     21  C   UNL     1       1.712   2.496  20.569  0.00  0.00    +0.000 C 
ATOM     22  C   UNL     1       2.774   4.156  19.008  0.00  0.00    +0.000 A 
ATOM     23  C   UNL     1       3.357   3.351  18.006  0.00  0.00    +0.000 A 
ATOM     24  C   UNL     1       3.251   1.901  17.706  0.00  0.00    +0.000 C 
ATOM     25  N   UNL     1       4.079   4.105  17.169  0.00  0.00    +0.000 NA
ATOM     26  N   UNL     1       3.918   5.375  17.601  0.00  0.00    +0.000 N 
ATOM     27  C   UNL     1       4.473   6.407  16.762  0.00  0.00    +0.000 C 
ATOM     28  C   UNL     1       3.126   5.464  18.724  0.00  0.00    +0.000 A 
ENDBRANCH  15  16
ENDBRANCH   2  15
TORSDOF 5
ENDMDL
MODEL 6
REMARK VINA RESULT:      -6.3      3.622      8.373
REMARK  Name = 
REMARK  9 active torsions:
REMARK  status: ('A' for Active; 'I' for Inactive)
REMARK    1  A    between atoms: C_1  and  O_2
REMARK    2  A    between atoms: O_2  and  C_3
REMARK    3  A    between atoms: C_3  and  C_5
REMARK    4  A    between atoms: C_10  and  N_11
REMARK    5  A    between atoms: C_12  and  C_14
REMARK    6  A    between atoms: C_14  and  N_15
REMARK    7  A    between atoms: C_19  and  C_20
REMARK    8  A    between atoms: C_22  and  C_23
REMARK    9  A    between atoms: N_25  and  C_26
REMARK                            x       y       z     vdW  Elec       q    Type
REMARK                         _______ _______ _______ _____ _____    ______ ____
ROOT
ATOM      1  N   UNL     1       1.094   9.471  19.235  0.00  0.00    +0.000 N 
ATOM      2  C   UNL     1       2.012   8.795  18.444  0.00  0.00    +0.000 C 
ATOM      3  O   UNL     1       2.036   8.863  17.217  0.00  0.00    +0.000 OA
ATOM      4  H   UNL     1       1.414   9.744  20.164  0.00  0.00    +0.000 HD
ENDROOT
BRANCH   1  10
ATOM      5  C   UNL     1      -0.212  11.576  19.038  0.00  0.00    +0.000 A 
ATOM      6  C   UNL     1      -1.274  12.277  18.434  0.00  0.00    +0.000 A 
ATOM      7  C   UNL     1      -2.129  11.655  17.526  0.00  0.00    +0.000 A 
ATOM      8  C   UNL     1      -1.935  10.316  17.215  0.00  0.00    +0.000 A 
ATOM      9  C   UNL     1      -0.872   9.612  17.789  0.00  0.00    +0.000 A 
ATOM     10  C   UNL     1       0.016  10.227  18.692  0.00  0.00    +0.000 A 
BRANCH   5  11
ATOM     11  C   UNL     1       0.654  12.386  19.943  0.00  0.00    +0.000 C 
ATOM     12  O   UNL     1       1.187  13.431  19.590  0.00  0.00    +0.000 OA
BRANCH  11  14
ATOM     13  C   UNL     1      -0.375  11.941  21.992  0.00  0.00    +0.000 C 
ATOM     14  O   UNL     1       0.789  11.819  21.167  0.00  0.00    +0.000 OA
ENDBRANCH  11  14
ENDBRANCH   5  11
ENDBRANCH   1  10
BRANCH   2  15
ATOM     15  C   UNL     1       3.037   7.936  19.199  0.00  0.00    +0.000 C 
BRANCH  15  16
ATOM     16  N   UNL     1       2.677   6.537  19.434  0.00  0.00    +0.000 N 
ATOM     17  C   UNL     1       1.691   6.304  20.398  0.00  0.00    +0.000 A 
ATOM     18  O   UNL     1       1.095   7.199  21.002  0.00  0.00    +0.000 OA
ATOM     19  C   UNL     1       1.355   4.894  20.763  0.00  0.00    +0.000 A 
ATOM     20  C   UNL     1       1.901   3.856  20.115  0.00  0.00    +0.000 A 
ATOM     21  C   UNL     1       1.680   2.447  20.556  0.00  0.00    +0.000 C 
ATOM     22  C   UNL     1       2.764   4.099  19.001  0.00  0.00    +0.000 A 
ATOM     23  C   UNL     1       3.345   3.290  18.002  0.00  0.00    +0.000 A 
ATOM     24  C   UNL     1       3.228   1.841  17.700  0.00  0.00    +0.000 C 
ATOM     25  N   UNL     1       4.077   4.038  17.169  0.00  0.00    +0.000 NA
ATOM     26  N   UNL     1       3.924   5.310  17.601  0.00  0.00    +0.000 N 
ATOM     27  C   UNL     1       4.492   6.338  16.765  0.00  0.00    +0.000 C 
ATOM     28  C   UNL     1       3.127   5.405  18.719  0.00  0.00    +0.000 A 
ENDBRANCH  15  16
ENDBRANCH   2  15
TORSDOF 5
ENDMDL
MODEL 7
REMARK VINA RESULT:      -6.3      2.955      4.944
REMARK  Name = 
REMARK  9 active torsions:
REMARK  status: ('A' for Active; 'I' for Inactive)
REMARK    1  A    between atoms: C_1  and  O_2
REMARK    2  A    between atoms: O_2  and  C_3
REMARK    3  A    between atoms: C_3  and  C_5
REMARK    4  A    between atoms: C_10  and  N_11
REMARK    5  A    between atoms: C_12  and  C_14
REMARK    6  A    between atoms: C_14  and  N_15
REMARK    7  A    between atoms: C_19  and  C_20
REMARK    8  A    between atoms: C_22  and  C_23
REMARK    9  A    between atoms: N_25  and  C_26
REMARK                            x       y       z     vdW  Elec       q    Type
REMARK                         _______ _______ _______ _____ _____    ______ ____
ROOT
ATOM      1  N   UNL     1       2.174   7.463  20.691  0.00  0.00    +0.000 N 
ATOM      2  C   UNL     1       1.096   8.310  20.902  0.00  0.00    +0.000 C 
ATOM      3  O   UNL     1      -0.065   8.025  20.612  0.00  0.00    +0.000 OA
ATOM      4  H   UNL     1       2.948   7.548  21.348  0.00  0.00    +0.000 HD
ENDROOT
BRANCH   1  10
ATOM      5  C   UNL     1       2.492   6.031  18.685  0.00  0.00    +0.000 A 
ATOM      6  C   UNL     1       2.379   4.760  18.088  0.00  0.00    +0.000 A 
ATOM      7  C   UNL     1       1.809   3.687  18.770  0.00  0.00    +0.000 A 
ATOM      8  C   UNL     1       1.338   3.874  20.062  0.00  0.00    +0.000 A 
ATOM      9  C   UNL     1       1.463   5.124  20.677  0.00  0.00    +0.000 A 
ATOM     10  C   UNL     1       2.053   6.216  20.014  0.00  0.00    +0.000 A 
BRANCH   5  11
ATOM     11  C   UNL     1       3.176   7.066  17.857  0.00  0.00    +0.000 C 
ATOM     12  O   UNL     1       2.912   8.260  17.938  0.00  0.00    +0.000 OA
BRANCH  11  14
ATOM     13  C   UNL     1       5.442   6.865  17.328  0.00  0.00    +0.000 C 
ATOM     14  O   UNL     1       4.088   6.526  17.011  0.00  0.00    +0.000 OA
ENDBRANCH  11  14
ENDBRANCH   5  11
ENDBRANCH   1  10
BRANCH   2  15
ATOM     15  C   UNL     1       1.429   9.666  21.544  0.00  0.00    +0.000 C 
BRANCH  15  16
ATOM     16  N   UNL     1       0.302  10.554  21.827  0.00  0.00    +0.000 N 
ATOM     17  C   UNL     1      -0.367  10.340  23.037  0.00  0.00    +0.000 A 
ATOM     18  O   UNL     1      -0.027   9.498  23.871  0.00  0.00    +0.000 OA
ATOM     19  C   UNL     1      -1.593  11.141  23.336  0.00  0.00    +0.000 A 
ATOM     20  C   UNL     1      -2.001  12.125  22.523  0.00  0.00    +0.000 A 
ATOM     21  C   UNL     1      -3.294  12.839  22.737  0.00  0.00    +0.000 C 
ATOM     22  C   UNL     1      -1.207  12.469  21.384  0.00  0.00    +0.000 A 
ATOM     23  C   UNL     1      -1.219  13.527  20.451  0.00  0.00    +0.000 A 
ATOM     24  C   UNL     1      -2.062  14.743  20.333  0.00  0.00    +0.000 C 
ATOM     25  N   UNL     1      -0.224  13.376  19.569  0.00  0.00    +0.000 NA
ATOM     26  N   UNL     1       0.442  12.269  19.966  0.00  0.00    +0.000 N 
ATOM     27  C   UNL     1       1.668  11.979  19.266  0.00  0.00    +0.000 C 
ATOM     28  C   UNL     1      -0.117  11.674  21.075  0.00  0.00    +0.000 A 
ENDBRANCH  15  16
ENDBRANCH   2  15
TORSDOF 5
ENDMDL
MODEL 8
REMARK VINA RESULT:      -6.3      1.471      2.701
REMARK  Name = 
REMARK  9 active torsions:
REMARK  status: ('A' for Active; 'I' for Inactive)
REMARK    1  A    between atoms: C_1  and  O_2
REMARK    2  A    between atoms: O_2  and  C_3
REMARK    3  A    between atoms: C_3  and  C_5
REMARK    4  A    between atoms: C_10  and  N_11
REMARK    5  A    between atoms: C_12  and  C_14
REMARK    6  A    between atoms: C_14  and  N_15
REMARK    7  A    between atoms: C_19  and  C_20
REMARK    8  A    between atoms: C_22  and  C_23
REMARK    9  A    between atoms: N_25  and  C_26
REMARK                            x       y       z     vdW  Elec       q    Type
REMARK                         _______ _______ _______ _____ _____    ______ ____
ROOT
ATOM      1  N   UNL     1       0.424  10.720  19.136  0.00  0.00    +0.000 N 
ATOM      2  C   UNL     1      -0.944  10.777  18.917  0.00  0.00    +0.000 C 
ATOM      3  O   UNL     1      -1.645   9.789  18.707  0.00  0.00    +0.000 OA
ATOM      4  H   UNL     1       0.814  11.441  19.741  0.00  0.00    +0.000 HD
ENDROOT
BRANCH   1  10
ATOM      5  C   UNL     1       1.490   8.719  20.153  0.00  0.00    +0.000 A 
ATOM      6  C   UNL     1       2.201   7.515  19.972  0.00  0.00    +0.000 A 
ATOM      7  C   UNL     1       2.627   7.108  18.710  0.00  0.00    +0.000 A 
ATOM      8  C   UNL     1       2.354   7.906  17.608  0.00  0.00    +0.000 A 
ATOM      9  C   UNL     1       1.631   9.093  17.767  0.00  0.00    +0.000 A 
ATOM     10  C   UNL     1       1.172   9.512  19.030  0.00  0.00    +0.000 A 
BRANCH   5  11
ATOM     11  C   UNL     1       1.048   8.995  21.550  0.00  0.00    +0.000 C 
ATOM     12  O   UNL     1       1.828   9.292  22.446  0.00  0.00    +0.000 OA
BRANCH  11  14
ATOM     13  C   UNL     1      -0.766   9.195  23.008  0.00  0.00    +0.000 C 
ATOM     14  O   UNL     1      -0.293   8.858  21.699  0.00  0.00    +0.000 OA
ENDBRANCH  11  14
ENDBRANCH   5  11
ENDBRANCH   1  10
BRANCH   2  15
ATOM     15  C   UNL     1      -1.567  12.181  18.958  0.00  0.00    +0.000 C 
BRANCH  15  16
ATOM     16  N   UNL     1      -2.784  12.338  19.755  0.00  0.00    +0.000 N 
ATOM     17  C   UNL     1      -3.993  12.096  19.095  0.00  0.00    +0.000 A 
ATOM     18  O   UNL     1      -4.073  11.720  17.923  0.00  0.00    +0.000 OA
ATOM     19  C   UNL     1      -5.276  12.344  19.821  0.00  0.00    +0.000 A 
ATOM     20  C   UNL     1      -5.290  12.689  21.116  0.00  0.00    +0.000 A 
ATOM     21  C   UNL     1      -6.552  13.072  21.816  0.00  0.00    +0.000 C 
ATOM     22  C   UNL     1      -4.058  12.749  21.840  0.00  0.00    +0.000 A 
ATOM     23  C   UNL     1      -3.714  12.885  23.201  0.00  0.00    +0.000 A 
ATOM     24  C   UNL     1      -4.537  12.968  24.433  0.00  0.00    +0.000 C 
ATOM     25  N   UNL     1      -2.384  12.868  23.346  0.00  0.00    +0.000 NA
ATOM     26  N   UNL     1      -1.890  12.675  22.103  0.00  0.00    +0.000 N 
ATOM     27  C   UNL     1      -0.469  12.456  22.009  0.00  0.00    +0.000 C 
ATOM     28  C   UNL     1      -2.873  12.592  21.142  0.00  0.00    +0.000 A 
ENDBRANCH  15  16
ENDBRANCH   2  15
TORSDOF 5
ENDMDL
MODEL 9
REMARK VINA RESULT:      -6.3      2.229      6.906
REMARK  Name = 
REMARK  9 active torsions:
REMARK  status: ('A' for Active; 'I' for Inactive)
REMARK    1  A    between atoms: C_1  and  O_2
REMARK    2  A    between atoms: O_2  and  C_3
REMARK    3  A    between atoms: C_3  and  C_5
REMARK    4  A    between atoms: C_10  and  N_11
REMARK    5  A    between atoms: C_12  and  C_14
REMARK    6  A    between atoms: C_14  and  N_15
REMARK    7  A    between atoms: C_19  and  C_20
REMARK    8  A    between atoms: C_22  and  C_23
REMARK    9  A    between atoms: N_25  and  C_26
REMARK                            x       y       z     vdW  Elec       q    Type
REMARK                         _______ _______ _______ _____ _____    ______ ____
ROOT
ATOM      1  N   UNL     1      -3.144  12.165  19.984  0.00  0.00    +0.000 N 
ATOM      2  C   UNL     1      -2.603  13.330  20.508  0.00  0.00    +0.000 C 
ATOM      3  O   UNL     1      -3.231  14.380  20.633  0.00  0.00    +0.000 OA
ATOM      4  H   UNL     1      -2.762  11.290  20.342  0.00  0.00    +0.000 HD
ENDROOT
BRANCH   1  10
ATOM      5  C   UNL     1      -4.695  11.797  18.078  0.00  0.00    +0.000 A 
ATOM      6  C   UNL     1      -6.021  11.714  17.609  0.00  0.00    +0.000 A 
ATOM      7  C   UNL     1      -7.104  11.964  18.449  0.00  0.00    +0.000 A 
ATOM      8  C   UNL     1      -6.874  12.307  19.774  0.00  0.00    +0.000 A 
ATOM      9  C   UNL     1      -5.564  12.372  20.261  0.00  0.00    +0.000 A 
ATOM     10  C   UNL     1      -4.457  12.104  19.435  0.00  0.00    +0.000 A 
BRANCH   5  11
ATOM     11  C   UNL     1      -3.642  11.446  17.082  0.00  0.00    +0.000 C 
ATOM     12  O   UNL     1      -2.445  11.569  17.311  0.00  0.00    +0.000 OA
BRANCH  11  14
ATOM     13  C   UNL     1      -3.205  10.431  15.024  0.00  0.00    +0.000 C 
ATOM     14  O   UNL     1      -4.170  11.006  15.912  0.00  0.00    +0.000 OA
ENDBRANCH  11  14
ENDBRANCH   5  11
ENDBRANCH   1  10
BRANCH   2  15
ATOM     15  C   UNL     1      -1.133  13.242  20.949  0.00  0.00    +0.000 C 
BRANCH  15  16
ATOM     16  N   UNL     1      -0.318  12.205  20.317  0.00  0.00    +0.000 N 
ATOM     17  C   UNL     1       0.397  12.587  19.177  0.00  0.00    +0.000 A 
ATOM     18  O   UNL     1       0.409  13.734  18.726  0.00  0.00    +0.000 OA
ATOM     19  C   UNL     1       1.162  11.548  18.422  0.00  0.00    +0.000 A 
ATOM     20  C   UNL     1       1.262  10.290  18.871  0.00  0.00    +0.000 A 
ATOM     21  C   UNL     1       1.905   9.212  18.062  0.00  0.00    +0.000 C 
ATOM     22  C   UNL     1       0.689   9.949  20.137  0.00  0.00    +0.000 A 
ATOM     23  C   UNL     1       0.757   8.822  20.984  0.00  0.00    +0.000 A 
ATOM     24  C   UNL     1       1.515   7.549  20.891  0.00  0.00    +0.000 C 
ATOM     25  N   UNL     1       0.026   9.028  22.086  0.00  0.00    +0.000 NA
ATOM     26  N   UNL     1      -0.457  10.285  21.966  0.00  0.00    +0.000 N 
ATOM     27  C   UNL     1      -1.153  10.811  23.113  0.00  0.00    +0.000 C 
ATOM     28  C   UNL     1      -0.080  10.895  20.791  0.00  0.00    +0.000 A 
ENDBRANCH  15  16
ENDBRANCH   2  15
TORSDOF 5
ENDMDL
