MODEL 1
REMARK VINA RESULT:      -7.9      0.000      0.000
REMARK  Name = 
REMARK  7 active torsions:
REMARK  status: ('A' for Active; 'I' for Inactive)
REMARK    1  A    between atoms: C_1  and  C_2
REMARK    2  A    between atoms: C_2  and  N_3
REMARK    3  A    between atoms: C_4  and  C_5
REMARK    4  A    between atoms: C_8  and  C_9
REMARK    5  A    between atoms: C_14  and  O_15
REMARK    6  A    between atoms: O_15  and  C_16
REMARK    7  A    between atoms: C_20  and  C_22
REMARK                            x       y       z     vdW  Elec       q    Type
REMARK                         _______ _______ _______ _____ _____    ______ ____
ROOT
ATOM      1  N   UNL     1       3.657   3.866  18.032  0.00  0.00    +0.000 N 
ATOM      2  C   UNL     1       4.315   4.972  17.487  0.00  0.00    +0.000 A 
ATOM      3  N   UNL     1       3.895   6.079  18.079  0.00  0.00    +0.000 NA
ATOM      4  C   UNL     1       3.023   5.693  19.062  0.00  0.00    +0.000 A 
ATOM      5  C   UNL     1       2.272   6.400  20.008  0.00  0.00    +0.000 A 
ATOM      6  N   UNL     1       1.487   5.730  20.884  0.00  0.00    +0.000 NA
ATOM      7  C   UNL     1       1.462   4.388  20.792  0.00  0.00    +0.000 A 
ATOM      8  N   UNL     1       2.126   3.604  19.924  0.00  0.00    +0.000 NA
ATOM      9  C   UNL     1       2.887   4.318  19.076  0.00  0.00    +0.000 A 
ENDROOT
BRANCH   2  10
ATOM     10  C   UNL     1       5.290   4.994  16.389  0.00  0.00    +0.000 A 
ATOM     11  C   UNL     1       4.992   4.407  15.169  0.00  0.00    +0.000 A 
ATOM     12  N   UNL     1       5.818   4.394  14.095  0.00  0.00    +0.000 NA
ATOM     13  C   UNL     1       6.999   5.015  14.243  0.00  0.00    +0.000 A 
ATOM     14  C   UNL     1       7.944   5.034  13.085  0.00  0.00    +0.000 C 
ATOM     15  N   UNL     1       7.388   5.641  15.367  0.00  0.00    +0.000 NA
ATOM     16  C   UNL     1       6.514   5.629  16.398  0.00  0.00    +0.000 A 
ENDBRANCH   2  10
BRANCH   1  18
ATOM     17  C   UNL     1       3.705   1.344  18.481  0.00  0.00    +0.000 C 
ATOM     18  C   UNL     1       3.684   2.513  17.505  0.00  0.00    +0.000 C 
ENDBRANCH   1  18
BRANCH   5  19
ATOM     19  O   UNL     1       2.294   7.778  20.013  0.00  0.00    +0.000 OA
BRANCH  19  20
ATOM     20  C   UNL     1       1.083   8.383  20.456  0.00  0.00    +0.000 C 
ATOM     21  C   UNL     1       1.336   8.883  21.886  0.00  0.00    +0.000 C 
ATOM     22  C   UNL     1       0.436  10.091  22.012  0.00  0.00    +0.000 C 
ATOM     23  N   UNL     1       0.550  10.699  20.702  0.00  0.00    +0.000 N 
ATOM     24  C   UNL     1       0.479  12.026  20.348  0.00  0.00    +0.000 C 
ATOM     25  O   UNL     1       0.465  12.362  19.162  0.00  0.00    +0.000 OA
ATOM     26  C   UNL     1       0.714   9.665  19.686  0.00  0.00    +0.000 C 
BRANCH  24  27
ATOM     27  C   UNL     1       0.497  13.066  21.470  0.00  0.00    +0.000 C 
ATOM     28  C   UNL     1      -0.929  13.552  21.773  0.00  0.00    +0.000 C 
ATOM     29  C   UNL     1      -0.935  14.761  22.695  0.00  0.00    +0.000 C 
ATOM     30  O   UNL     1      -0.115  15.805  22.175  0.00  0.00    +0.000 OA
ATOM     31  C   UNL     1       1.246  15.405  22.056  0.00  0.00    +0.000 C 
ATOM     32  C   UNL     1       1.382  14.255  21.068  0.00  0.00    +0.000 C 
ENDBRANCH  24  27
ENDBRANCH  19  20
ENDBRANCH   5  19
TORSDOF 5
ENDMDL
MODEL 2
REMARK VINA RESULT:      -7.9      0.569      1.003
REMARK  Name = 
REMARK  7 active torsions:
REMARK  status: ('A' for Active; 'I' for Inactive)
REMARK    1  A    between atoms: C_1  and  C_2
REMARK    2  A    between atoms: C_2  and  N_3
REMARK    3  A    between atoms: C_4  and  C_5
REMARK    4  A    between atoms: C_8  and  C_9
REMARK    5  A    between atoms: C_14  and  O_15
REMARK    6  A    between atoms: O_15  and  C_16
REMARK    7  A    between atoms: C_20  and  C_22
REMARK                            x       y       z     vdW  Elec       q    Type
REMARK                         _______ _______ _______ _____ _____    ______ ____
ROOT
ATOM      1  N   UNL     1       3.548   3.916  17.955  0.00  0.00    +0.000 N 
ATOM      2  C   UNL     1       4.207   5.014  17.394  0.00  0.00    +0.000 A 
ATOM      3  N   UNL     1       3.821   6.125  18.002  0.00  0.00    +0.000 NA
ATOM      4  C   UNL     1       2.972   5.749  19.009  0.00  0.00    +0.000 A 
ATOM      5  C   UNL     1       2.259   6.464  19.978  0.00  0.00    +0.000 A 
ATOM      6  N   UNL     1       1.490   5.803  20.875  0.00  0.00    +0.000 NA
ATOM      7  C   UNL     1       1.441   4.462  20.779  0.00  0.00    +0.000 A 
ATOM      8  N   UNL     1       2.068   3.670  19.890  0.00  0.00    +0.000 NA
ATOM      9  C   UNL     1       2.815   4.376  19.023  0.00  0.00    +0.000 A 
ENDROOT
BRANCH   2  10
ATOM     10  C   UNL     1       5.150   5.025  16.270  0.00  0.00    +0.000 A 
ATOM     11  C   UNL     1       6.368   5.679  16.376  0.00  0.00    +0.000 A 
ATOM     12  N   UNL     1       7.307   5.727  15.401  0.00  0.00    +0.000 NA
ATOM     13  C   UNL     1       7.023   5.070  14.265  0.00  0.00    +0.000 A 
ATOM     14  C   UNL     1       8.031   5.086  13.161  0.00  0.00    +0.000 C 
ATOM     15  N   UNL     1       5.889   4.378  14.055  0.00  0.00    +0.000 NA
ATOM     16  C   UNL     1       4.998   4.360  15.071  0.00  0.00    +0.000 A 
ENDBRANCH   2  10
BRANCH   1  18
ATOM     17  C   UNL     1       3.733   1.397  18.381  0.00  0.00    +0.000 C 
ATOM     18  C   UNL     1       3.539   2.565  17.423  0.00  0.00    +0.000 C 
ENDBRANCH   1  18
BRANCH   5  19
ATOM     19  O   UNL     1       2.303   7.841  19.987  0.00  0.00    +0.000 OA
BRANCH  19  20
ATOM     20  C   UNL     1       1.079   8.465  20.364  0.00  0.00    +0.000 C 
ATOM     21  C   UNL     1       1.321   9.125  21.729  0.00  0.00    +0.000 C 
ATOM     22  C   UNL     1       0.395  10.320  21.723  0.00  0.00    +0.000 C 
ATOM     23  N   UNL     1       0.494  10.781  20.354  0.00  0.00    +0.000 N 
ATOM     24  C   UNL     1       0.394  12.059  19.855  0.00  0.00    +0.000 C 
ATOM     25  O   UNL     1       0.372  12.262  18.639  0.00  0.00    +0.000 OA
ATOM     26  C   UNL     1       0.681   9.645  19.458  0.00  0.00    +0.000 C 
BRANCH  24  27
ATOM     27  C   UNL     1       0.389  13.217  20.855  0.00  0.00    +0.000 C 
ATOM     28  C   UNL     1      -0.576  14.320  20.392  0.00  0.00    +0.000 C 
ATOM     29  C   UNL     1      -0.424  15.591  21.213  0.00  0.00    +0.000 C 
ATOM     30  O   UNL     1       0.930  16.036  21.222  0.00  0.00    +0.000 OA
ATOM     31  C   UNL     1       1.803  15.077  21.810  0.00  0.00    +0.000 C 
ATOM     32  C   UNL     1       1.807  13.788  21.002  0.00  0.00    +0.000 C 
ENDBRANCH  24  27
ENDBRANCH  19  20
ENDBRANCH   5  19
TORSDOF 5
ENDMDL
MODEL 3
REMARK VINA RESULT:      -7.9      1.063      1.342
REMARK  Name = 
REMARK  7 active torsions:
REMARK  status: ('A' for Active; 'I' for Inactive)
REMARK    1  A    between atoms: C_1  and  C_2
REMARK    2  A    between atoms: C_2  and  N_3
REMARK    3  A    between atoms: C_4  and  C_5
REMARK    4  A    between atoms: C_8  and  C_9
REMARK    5  A    between atoms: C_14  and  O_15
REMARK    6  A    between atoms: O_15  and  C_16
REMARK    7  A    between atoms: C_20  and  C_22
REMARK                            x       y       z     vdW  Elec       q    Type
REMARK                         _______ _______ _______ _____ _____    ______ ____
ROOT
ATOM      1  N   UNL     1       3.508   3.971  17.974  0.00  0.00    +0.000 N 
ATOM      2  C   UNL     1       4.257   5.051  17.497  0.00  0.00    +0.000 A 
ATOM      3  N   UNL     1       3.905   6.156  18.135  0.00  0.00    +0.000 NA
ATOM      4  C   UNL     1       2.985   5.789  19.081  0.00  0.00    +0.000 A 
ATOM      5  C   UNL     1       2.265   6.503  20.046  0.00  0.00    +0.000 A 
ATOM      6  N   UNL     1       1.414   5.851  20.872  0.00  0.00    +0.000 NA
ATOM      7  C   UNL     1       1.294   4.521  20.714  0.00  0.00    +0.000 A 
ATOM      8  N   UNL     1       1.919   3.732  19.821  0.00  0.00    +0.000 NA
ATOM      9  C   UNL     1       2.749   4.429  19.024  0.00  0.00    +0.000 A 
ENDROOT
BRANCH   2  10
ATOM     10  C   UNL     1       5.256   5.053  16.421  0.00  0.00    +0.000 A 
ATOM     11  C   UNL     1       4.960   4.505  15.182  0.00  0.00    +0.000 A 
ATOM     12  N   UNL     1       5.808   4.478  14.127  0.00  0.00    +0.000 NA
ATOM     13  C   UNL     1       7.011   5.045  14.313  0.00  0.00    +0.000 A 
ATOM     14  C   UNL     1       7.981   5.047  13.175  0.00  0.00    +0.000 C 
ATOM     15  N   UNL     1       7.402   5.631  15.458  0.00  0.00    +0.000 NA
ATOM     16  C   UNL     1       6.505   5.635  16.469  0.00  0.00    +0.000 A 
ENDBRANCH   2  10
BRANCH   1  18
ATOM     17  C   UNL     1       3.687   1.433  18.270  0.00  0.00    +0.000 C 
ATOM     18  C   UNL     1       3.449   2.647  17.382  0.00  0.00    +0.000 C 
ENDBRANCH   1  18
BRANCH   5  19
ATOM     19  O   UNL     1       2.387   7.874  20.119  0.00  0.00    +0.000 OA
BRANCH  19  20
ATOM     20  C   UNL     1       1.311   8.592  19.523  0.00  0.00    +0.000 C 
ATOM     21  C   UNL     1       0.540   9.263  20.670  0.00  0.00    +0.000 C 
ATOM     22  C   UNL     1      -0.018  10.520  20.043  0.00  0.00    +0.000 C 
ATOM     23  N   UNL     1       1.065  10.943  19.179  0.00  0.00    +0.000 N 
ATOM     24  C   UNL     1       1.438  12.213  18.807  0.00  0.00    +0.000 C 
ATOM     25  O   UNL     1       2.311  12.390  17.954  0.00  0.00    +0.000 OA
ATOM     26  C   UNL     1       1.764   9.776  18.651  0.00  0.00    +0.000 C 
BRANCH  24  27
ATOM     27  C   UNL     1       0.792  13.391  19.539  0.00  0.00    +0.000 C 
ATOM     28  C   UNL     1       0.974  14.687  18.734  0.00  0.00    +0.000 C 
ATOM     29  C   UNL     1       0.575  15.916  19.536  0.00  0.00    +0.000 C 
ATOM     30  O   UNL     1       1.267  15.961  20.782  0.00  0.00    +0.000 OA
ATOM     31  C   UNL     1       0.963  14.837  21.601  0.00  0.00    +0.000 C 
ATOM     32  C   UNL     1       1.417  13.547  20.934  0.00  0.00    +0.000 C 
ENDBRANCH  24  27
ENDBRANCH  19  20
ENDBRANCH   5  19
TORSDOF 5
ENDMDL
MODEL 4
REMARK VINA RESULT:      -7.8      1.120      1.127
REMARK  Name = 
REMARK  7 active torsions:
REMARK  status: ('A' for Active; 'I' for Inactive)
REMARK    1  A    between atoms: C_1  and  C_2
REMARK    2  A    between atoms: C_2  and  N_3
REMARK    3  A    between atoms: C_4  and  C_5
REMARK    4  A    between atoms: C_8  and  C_9
REMARK    5  A    between atoms: C_14  and  O_15
REMARK    6  A    between atoms: O_15  and  C_16
REMARK    7  A    between atoms: C_20  and  C_22
REMARK                            x       y       z     vdW  Elec       q    Type
REMARK                         _______ _______ _______ _____ _____    ______ ____
ROOT
ATOM      1  N   UNL     1       3.916   4.385  18.390  0.00  0.00    +0.000 N 
ATOM      2  C   UNL     1       4.397   5.413  17.574  0.00  0.00    +0.000 A 
ATOM      3  N   UNL     1       3.816   6.556  17.905  0.00  0.00    +0.000 NA
ATOM      4  C   UNL     1       3.017   6.293  18.986  0.00  0.00    +0.000 A 
ATOM      5  C   UNL     1       2.171   7.088  19.767  0.00  0.00    +0.000 A 
ATOM      6  N   UNL     1       1.500   6.539  20.808  0.00  0.00    +0.000 NA
ATOM      7  C   UNL     1       1.678   5.225  21.035  0.00  0.00    +0.000 A 
ATOM      8  N   UNL     1       2.450   4.362  20.350  0.00  0.00    +0.000 NA
ATOM      9  C   UNL     1       3.090   4.957  19.328  0.00  0.00    +0.000 A 
ENDROOT
BRANCH   2  10
ATOM     10  C   UNL     1       5.353   5.314  16.464  0.00  0.00    +0.000 A 
ATOM     11  C   UNL     1       5.008   4.657  15.292  0.00  0.00    +0.000 A 
ATOM     12  N   UNL     1       5.815   4.532  14.211  0.00  0.00    +0.000 NA
ATOM     13  C   UNL     1       7.025   5.108  14.298  0.00  0.00    +0.000 A 
ATOM     14  C   UNL     1       7.950   5.004  13.128  0.00  0.00    +0.000 C 
ATOM     15  N   UNL     1       7.460   5.793  15.370  0.00  0.00    +0.000 NA
ATOM     16  C   UNL     1       6.603   5.892  16.410  0.00  0.00    +0.000 A 
ENDBRANCH   2  10
BRANCH   1  18
ATOM     17  C   UNL     1       2.987   2.088  17.739  0.00  0.00    +0.000 C 
ATOM     18  C   UNL     1       4.146   2.965  18.196  0.00  0.00    +0.000 C 
ENDBRANCH   1  18
BRANCH   5  19
ATOM     19  O   UNL     1       1.985   8.415  19.447  0.00  0.00    +0.000 OA
BRANCH  19  20
ATOM     20  C   UNL     1       0.807   8.993  20.001  0.00  0.00    +0.000 C 
ATOM     21  C   UNL     1       1.251   9.829  21.210  0.00  0.00    +0.000 C 
ATOM     22  C   UNL     1       0.235  10.946  21.271  0.00  0.00    +0.000 C 
ATOM     23  N   UNL     1       0.019  11.244  19.870  0.00  0.00    +0.000 N 
ATOM     24  C   UNL     1      -0.295  12.442  19.272  0.00  0.00    +0.000 C 
ATOM     25  O   UNL     1      -0.576  12.494  18.073  0.00  0.00    +0.000 OA
ATOM     26  C   UNL     1       0.130  10.023  19.078  0.00  0.00    +0.000 C 
BRANCH  24  27
ATOM     27  C   UNL     1      -0.211  13.710  20.125  0.00  0.00    +0.000 C 
ATOM     28  C   UNL     1      -1.619  14.222  20.466  0.00  0.00    +0.000 C 
ATOM     29  C   UNL     1      -1.586  15.608  21.090  0.00  0.00    +0.000 C 
ATOM     30  O   UNL     1      -0.872  16.524  20.263  0.00  0.00    +0.000 OA
ATOM     31  C   UNL     1       0.487  16.136  20.088  0.00  0.00    +0.000 C 
ATOM     32  C   UNL     1       0.574  14.796  19.373  0.00  0.00    +0.000 C 
ENDBRANCH  24  27
ENDBRANCH  19  20
ENDBRANCH   5  19
TORSDOF 5
ENDMDL
MODEL 5
REMARK VINA RESULT:      -7.7      3.426     11.347
REMARK  Name = 
REMARK  7 active torsions:
REMARK  status: ('A' for Active; 'I' for Inactive)
REMARK    1  A    between atoms: C_1  and  C_2
REMARK    2  A    between atoms: C_2  and  N_3
REMARK    3  A    between atoms: C_4  and  C_5
REMARK    4  A    between atoms: C_8  and  C_9
REMARK    5  A    between atoms: C_14  and  O_15
REMARK    6  A    between atoms: O_15  and  C_16
REMARK    7  A    between atoms: C_20  and  C_22
REMARK                            x       y       z     vdW  Elec       q    Type
REMARK                         _______ _______ _______ _____ _____    ______ ____
ROOT
ATOM      1  N   UNL     1      -1.624  13.919  20.560  0.00  0.00    +0.000 N 
ATOM      2  C   UNL     1      -2.348  12.825  21.042  0.00  0.00    +0.000 A 
ATOM      3  N   UNL     1      -1.772  11.699  20.652  0.00  0.00    +0.000 NA
ATOM      4  C   UNL     1      -0.630  12.052  19.983  0.00  0.00    +0.000 A 
ATOM      5  C   UNL     1       0.378  11.314  19.353  0.00  0.00    +0.000 A 
ATOM      6  N   UNL     1       1.420  11.954  18.771  0.00  0.00    +0.000 NA
ATOM      7  C   UNL     1       1.427  13.298  18.822  0.00  0.00    +0.000 A 
ATOM      8  N   UNL     1       0.515  14.112  19.384  0.00  0.00    +0.000 NA
ATOM      9  C   UNL     1      -0.497  13.427  19.944  0.00  0.00    +0.000 A 
ENDROOT
BRANCH   2  10
ATOM     10  C   UNL     1      -3.594  12.838  21.819  0.00  0.00    +0.000 A 
ATOM     11  C   UNL     1      -3.576  13.116  23.177  0.00  0.00    +0.000 A 
ATOM     12  N   UNL     1      -4.673  13.170  23.969  0.00  0.00    +0.000 NA
ATOM     13  C   UNL     1      -5.855  12.950  23.370  0.00  0.00    +0.000 A 
ATOM     14  C   UNL     1      -7.097  13.005  24.200  0.00  0.00    +0.000 C 
ATOM     15  N   UNL     1      -6.000  12.698  22.057  0.00  0.00    +0.000 NA
ATOM     16  C   UNL     1      -4.868  12.670  21.320  0.00  0.00    +0.000 A 
ENDBRANCH   2  10
BRANCH   1  18
ATOM     17  C   UNL     1      -1.681  16.164  21.792  0.00  0.00    +0.000 C 
ATOM     18  C   UNL     1      -2.052  15.305  20.590  0.00  0.00    +0.000 C 
ENDBRANCH   1  18
BRANCH   5  19
ATOM     19  O   UNL     1       0.284   9.941  19.284  0.00  0.00    +0.000 OA
BRANCH  19  20
ATOM     20  C   UNL     1       1.369   9.246  19.891  0.00  0.00    +0.000 C 
ATOM     21  C   UNL     1       0.753   8.157  20.782  0.00  0.00    +0.000 C 
ATOM     22  C   UNL     1       1.783   7.051  20.765  0.00  0.00    +0.000 C 
ATOM     23  N   UNL     1       2.249   7.082  19.394  0.00  0.00    +0.000 N 
ATOM     24  C   UNL     1       2.705   6.052  18.605  0.00  0.00    +0.000 C 
ATOM     25  O   UNL     1       3.190   6.275  17.494  0.00  0.00    +0.000 OA
ATOM     26  C   UNL     1       2.231   8.452  18.893  0.00  0.00    +0.000 C 
BRANCH  24  27
ATOM     27  C   UNL     1       2.521   4.622  19.120  0.00  0.00    +0.000 C 
ATOM     28  C   UNL     1       3.851   3.855  19.060  0.00  0.00    +0.000 C 
ATOM     29  C   UNL     1       3.664   2.369  19.318  0.00  0.00    +0.000 C 
ATOM     30  O   UNL     1       2.689   1.816  18.437  0.00  0.00    +0.000 OA
ATOM     31  C   UNL     1       1.409   2.413  18.615  0.00  0.00    +0.000 C 
ATOM     32  C   UNL     1       1.458   3.896  18.281  0.00  0.00    +0.000 C 
ENDBRANCH  24  27
ENDBRANCH  19  20
ENDBRANCH   5  19
TORSDOF 5
ENDMDL
MODEL 6
REMARK VINA RESULT:      -7.6      5.148      7.840
REMARK  Name = 
REMARK  7 active torsions:
REMARK  status: ('A' for Active; 'I' for Inactive)
REMARK    1  A    between atoms: C_1  and  C_2
REMARK    2  A    between atoms: C_2  and  N_3
REMARK    3  A    between atoms: C_4  and  C_5
REMARK    4  A    between atoms: C_8  and  C_9
REMARK    5  A    between atoms: C_14  and  O_15
REMARK    6  A    between atoms: O_15  and  C_16
REMARK    7  A    between atoms: C_20  and  C_22
REMARK                            x       y       z     vdW  Elec       q    Type
REMARK                         _______ _______ _______ _____ _____    ______ ____
ROOT
ATOM      1  N   UNL     1       3.413   5.722  17.931  0.00  0.00    +0.000 N 
ATOM      2  C   UNL     1       3.423   7.118  18.011  0.00  0.00    +0.000 A 
ATOM      3  N   UNL     1       4.612   7.579  17.655  0.00  0.00    +0.000 NA
ATOM      4  C   UNL     1       5.354   6.495  17.267  0.00  0.00    +0.000 A 
ATOM      5  C   UNL     1       6.664   6.351  16.795  0.00  0.00    +0.000 A 
ATOM      6  N   UNL     1       7.132   5.123  16.470  0.00  0.00    +0.000 NA
ATOM      7  C   UNL     1       6.299   4.079  16.632  0.00  0.00    +0.000 A 
ATOM      8  N   UNL     1       5.033   4.092  17.086  0.00  0.00    +0.000 NA
ATOM      9  C   UNL     1       4.618   5.333  17.396  0.00  0.00    +0.000 A 
ENDROOT
BRANCH   2  10
ATOM     10  C   UNL     1       2.343   8.004  18.464  0.00  0.00    +0.000 A 
ATOM     11  C   UNL     1       1.963   8.028  19.797  0.00  0.00    +0.000 A 
ATOM     12  N   UNL     1       0.994   8.824  20.309  0.00  0.00    +0.000 NA
ATOM     13  C   UNL     1       0.383   9.653  19.447  0.00  0.00    +0.000 A 
ATOM     14  C   UNL     1      -0.689  10.557  19.965  0.00  0.00    +0.000 C 
ATOM     15  N   UNL     1       0.684   9.739  18.140  0.00  0.00    +0.000 NA
ATOM     16  C   UNL     1       1.668   8.927  17.693  0.00  0.00    +0.000 A 
ENDBRANCH   2  10
BRANCH   1  18
ATOM     17  C   UNL     1       1.480   4.112  17.452  0.00  0.00    +0.000 C 
ATOM     18  C   UNL     1       2.375   4.846  18.441  0.00  0.00    +0.000 C 
ENDBRANCH   1  18
BRANCH   5  19
ATOM     19  O   UNL     1       7.488   7.452  16.708  0.00  0.00    +0.000 OA
BRANCH  19  20
ATOM     20  C   UNL     1       7.446   8.308  17.846  0.00  0.00    +0.000 C 
ATOM     21  C   UNL     1       8.790   8.145  18.571  0.00  0.00    +0.000 C 
ATOM     22  C   UNL     1       9.019   9.494  19.214  0.00  0.00    +0.000 C 
ATOM     23  N   UNL     1       8.529  10.407  18.203  0.00  0.00    +0.000 N 
ATOM     24  C   UNL     1       8.948  11.682  17.902  0.00  0.00    +0.000 C 
ATOM     25  O   UNL     1       8.330  12.374  17.090  0.00  0.00    +0.000 OA
ATOM     26  C   UNL     1       7.405   9.806  17.492  0.00  0.00    +0.000 C 
BRANCH  24  27
ATOM     27  C   UNL     1      10.243  12.178  18.548  0.00  0.00    +0.000 C 
ATOM     28  C   UNL     1       9.930  13.110  19.729  0.00  0.00    +0.000 C 
ATOM     29  C   UNL     1      11.173  13.824  20.237  0.00  0.00    +0.000 C 
ATOM     30  O   UNL     1      11.837  14.510  19.178  0.00  0.00    +0.000 OA
ATOM     31  C   UNL     1      12.280  13.618  18.161  0.00  0.00    +0.000 C 
ATOM     32  C   UNL     1      11.097  12.919  17.508  0.00  0.00    +0.000 C 
ENDBRANCH  24  27
ENDBRANCH  19  20
ENDBRANCH   5  19
TORSDOF 5
ENDMDL
MODEL 7
REMARK VINA RESULT:      -7.6      3.628      9.701
REMARK  Name = 
REMARK  7 active torsions:
REMARK  status: ('A' for Active; 'I' for Inactive)
REMARK    1  A    between atoms: C_1  and  C_2
REMARK    2  A    between atoms: C_2  and  N_3
REMARK    3  A    between atoms: C_4  and  C_5
REMARK    4  A    between atoms: C_8  and  C_9
REMARK    5  A    between atoms: C_14  and  O_15
REMARK    6  A    between atoms: O_15  and  C_16
REMARK    7  A    between atoms: C_20  and  C_22
REMARK                            x       y       z     vdW  Elec       q    Type
REMARK                         _______ _______ _______ _____ _____    ______ ____
ROOT
ATOM      1  N   UNL     1       0.192  14.291  19.701  0.00  0.00    +0.000 N 
ATOM      2  C   UNL     1       1.428  13.998  19.115  0.00  0.00    +0.000 A 
ATOM      3  N   UNL     1       1.421  12.758  18.652  0.00  0.00    +0.000 NA
ATOM      4  C   UNL     1       0.160  12.265  18.864  0.00  0.00    +0.000 A 
ATOM      5  C   UNL     1      -0.445  11.033  18.590  0.00  0.00    +0.000 A 
ATOM      6  N   UNL     1      -1.746  10.835  18.910  0.00  0.00    +0.000 NA
ATOM      7  C   UNL     1      -2.402  11.853  19.496  0.00  0.00    +0.000 A 
ATOM      8  N   UNL     1      -1.927  13.070  19.818  0.00  0.00    +0.000 NA
ATOM      9  C   UNL     1      -0.632  13.213  19.482  0.00  0.00    +0.000 A 
ENDROOT
BRANCH   2  10
ATOM     10  C   UNL     1       2.616  14.857  19.034  0.00  0.00    +0.000 A 
ATOM     11  C   UNL     1       3.736  14.585  19.805  0.00  0.00    +0.000 A 
ATOM     12  N   UNL     1       4.882  15.307  19.784  0.00  0.00    +0.000 NA
ATOM     13  C   UNL     1       4.917  16.347  18.935  0.00  0.00    +0.000 A 
ATOM     14  C   UNL     1       6.162  17.172  18.870  0.00  0.00    +0.000 C 
ATOM     15  N   UNL     1       3.905  16.692  18.120  0.00  0.00    +0.000 NA
ATOM     16  C   UNL     1       2.794  15.924  18.181  0.00  0.00    +0.000 A 
ENDBRANCH   2  10
BRANCH   1  18
ATOM     17  C   UNL     1       0.204  15.434  21.993  0.00  0.00    +0.000 C 
ATOM     18  C   UNL     1      -0.114  15.460  20.504  0.00  0.00    +0.000 C 
ENDBRANCH   1  18
BRANCH   5  19
ATOM     19  O   UNL     1       0.296  10.010  18.042  0.00  0.00    +0.000 OA
BRANCH  19  20
ATOM     20  C   UNL     1       1.406   9.599  18.835  0.00  0.00    +0.000 C 
ATOM     21  C   UNL     1       0.829   8.953  20.103  0.00  0.00    +0.000 C 
ATOM     22  C   UNL     1       1.864   7.920  20.486  0.00  0.00    +0.000 C 
ATOM     23  N   UNL     1       2.280   7.406  19.198  0.00  0.00    +0.000 N 
ATOM     24  C   UNL     1       2.713   6.145  18.861  0.00  0.00    +0.000 C 
ATOM     25  O   UNL     1       3.157   5.910  17.735  0.00  0.00    +0.000 OA
ATOM     26  C   UNL     1       2.237   8.470  18.200  0.00  0.00    +0.000 C 
BRANCH  24  27
ATOM     27  C   UNL     1       2.555   5.034  19.902  0.00  0.00    +0.000 C 
ATOM     28  C   UNL     1       3.619   3.945  19.689  0.00  0.00    +0.000 C 
ATOM     29  C   UNL     1       3.344   2.709  20.530  0.00  0.00    +0.000 C 
ATOM     30  O   UNL     1       2.025   2.218  20.302  0.00  0.00    +0.000 OA
ATOM     31  C   UNL     1       1.032   3.171  20.664  0.00  0.00    +0.000 C 
ATOM     32  C   UNL     1       1.150   4.421  19.804  0.00  0.00    +0.000 C 
ENDBRANCH  24  27
ENDBRANCH  19  20
ENDBRANCH   5  19
TORSDOF 5
ENDMDL
MODEL 8
REMARK VINA RESULT:      -7.6      2.705     10.049
REMARK  Name = 
REMARK  7 active torsions:
REMARK  status: ('A' for Active; 'I' for Inactive)
REMARK    1  A    between atoms: C_1  and  C_2
REMARK    2  A    between atoms: C_2  and  N_3
REMARK    3  A    between atoms: C_4  and  C_5
REMARK    4  A    between atoms: C_8  and  C_9
REMARK    5  A    between atoms: C_14  and  O_15
REMARK    6  A    between atoms: O_15  and  C_16
REMARK    7  A    between atoms: C_20  and  C_22
REMARK                            x       y       z     vdW  Elec       q    Type
REMARK                         _______ _______ _______ _____ _____    ______ ____
ROOT
ATOM      1  N   UNL     1      -0.506  12.991  21.790  0.00  0.00    +0.000 N 
ATOM      2  C   UNL     1       0.383  13.173  20.727  0.00  0.00    +0.000 A 
ATOM      3  N   UNL     1       1.074  12.063  20.525  0.00  0.00    +0.000 NA
ATOM      4  C   UNL     1       0.585  11.130  21.402  0.00  0.00    +0.000 A 
ATOM      5  C   UNL     1       0.908   9.792  21.655  0.00  0.00    +0.000 A 
ATOM      6  N   UNL     1       0.226   9.101  22.599  0.00  0.00    +0.000 NA
ATOM      7  C   UNL     1      -0.743   9.754  23.266  0.00  0.00    +0.000 A 
ATOM      8  N   UNL     1      -1.132  11.033  23.120  0.00  0.00    +0.000 NA
ATOM      9  C   UNL     1      -0.423  11.674  22.175  0.00  0.00    +0.000 A 
ENDROOT
BRANCH   2  10
ATOM     10  C   UNL     1       0.614  14.392  19.941  0.00  0.00    +0.000 A 
ATOM     11  C   UNL     1      -0.404  14.943  19.178  0.00  0.00    +0.000 A 
ATOM     12  N   UNL     1      -0.291  16.072  18.439  0.00  0.00    +0.000 NA
ATOM     13  C   UNL     1       0.899  16.695  18.477  0.00  0.00    +0.000 A 
ATOM     14  C   UNL     1       1.073  17.949  17.683  0.00  0.00    +0.000 C 
ATOM     15  N   UNL     1       1.950  16.272  19.200  0.00  0.00    +0.000 NA
ATOM     16  C   UNL     1       1.768  15.146  19.926  0.00  0.00    +0.000 A 
ENDBRANCH   2  10
BRANCH   1  18
ATOM     17  C   UNL     1      -0.531  15.125  23.207  0.00  0.00    +0.000 C 
ATOM     18  C   UNL     1      -1.273  14.033  22.449  0.00  0.00    +0.000 C 
ENDBRANCH   1  18
BRANCH   5  19
ATOM     19  O   UNL     1       1.950   9.197  20.979  0.00  0.00    +0.000 OA
BRANCH  19  20
ATOM     20  C   UNL     1       1.546   8.316  19.935  0.00  0.00    +0.000 C 
ATOM     21  C   UNL     1       2.176   8.849  18.639  0.00  0.00    +0.000 C 
ATOM     22  C   UNL     1       2.392   7.608  17.805  0.00  0.00    +0.000 C 
ATOM     23  N   UNL     1       2.807   6.637  18.797  0.00  0.00    +0.000 N 
ATOM     24  C   UNL     1       3.662   5.568  18.666  0.00  0.00    +0.000 C 
ATOM     25  O   UNL     1       3.805   4.758  19.584  0.00  0.00    +0.000 OA
ATOM     26  C   UNL     1       2.128   6.897  20.062  0.00  0.00    +0.000 C 
BRANCH  24  27
ATOM     27  C   UNL     1       4.482   5.463  17.378  0.00  0.00    +0.000 C 
ATOM     28  C   UNL     1       4.600   3.996  16.935  0.00  0.00    +0.000 C 
ATOM     29  C   UNL     1       5.610   3.819  15.814  0.00  0.00    +0.000 C 
ATOM     30  O   UNL     1       6.875   4.370  16.172  0.00  0.00    +0.000 OA
ATOM     31  C   UNL     1       6.796   5.770  16.417  0.00  0.00    +0.000 C 
ATOM     32  C   UNL     1       5.881   6.058  17.598  0.00  0.00    +0.000 C 
ENDBRANCH  24  27
ENDBRANCH  19  20
ENDBRANCH   5  19
TORSDOF 5
ENDMDL
MODEL 9
REMARK VINA RESULT:      -7.5      3.692      9.543
REMARK  Name = 
REMARK  7 active torsions:
REMARK  status: ('A' for Active; 'I' for Inactive)
REMARK    1  A    between atoms: C_1  and  C_2
REMARK    2  A    between atoms: C_2  and  N_3
REMARK    3  A    between atoms: C_4  and  C_5
REMARK    4  A    between atoms: C_8  and  C_9
REMARK    5  A    between atoms: C_14  and  O_15
REMARK    6  A    between atoms: O_15  and  C_16
REMARK    7  A    between atoms: C_20  and  C_22
REMARK                            x       y       z     vdW  Elec       q    Type
REMARK                         _______ _______ _______ _____ _____    ______ ____
ROOT
ATOM      1  N   UNL     1       0.665  14.465  19.885  0.00  0.00    +0.000 N 
ATOM      2  C   UNL     1       1.805  13.826  19.389  0.00  0.00    +0.000 A 
ATOM      3  N   UNL     1       1.525  12.562  19.110  0.00  0.00    +0.000 NA
ATOM      4  C   UNL     1       0.186  12.394  19.348  0.00  0.00    +0.000 A 
ATOM      5  C   UNL     1      -0.676  11.298  19.234  0.00  0.00    +0.000 A 
ATOM      6  N   UNL     1      -1.989  11.438  19.535  0.00  0.00    +0.000 NA
ATOM      7  C   UNL     1      -2.404  12.650  19.946  0.00  0.00    +0.000 A 
ATOM      8  N   UNL     1      -1.672  13.767  20.105  0.00  0.00    +0.000 NA
ATOM      9  C   UNL     1      -0.378  13.573  19.796  0.00  0.00    +0.000 A 
ENDROOT
BRANCH   2  10
ATOM     10  C   UNL     1       3.154  14.383  19.226  0.00  0.00    +0.000 A 
ATOM     11  C   UNL     1       3.613  14.762  17.974  0.00  0.00    +0.000 A 
ATOM     12  N   UNL     1       4.832  15.301  17.729  0.00  0.00    +0.000 NA
ATOM     13  C   UNL     1       5.627  15.488  18.795  0.00  0.00    +0.000 A 
ATOM     14  C   UNL     1       6.980  16.087  18.578  0.00  0.00    +0.000 C 
ATOM     15  N   UNL     1       5.282  15.185  20.058  0.00  0.00    +0.000 NA
ATOM     16  C   UNL     1       4.049  14.662  20.237  0.00  0.00    +0.000 A 
ENDBRANCH   2  10
BRANCH   1  18
ATOM     17  C   UNL     1       0.489  17.005  19.609  0.00  0.00    +0.000 C 
ATOM     18  C   UNL     1       0.623  15.779  20.501  0.00  0.00    +0.000 C 
ENDBRANCH   1  18
BRANCH   5  19
ATOM     19  O   UNL     1      -0.179  10.068  18.865  0.00  0.00    +0.000 OA
BRANCH  19  20
ATOM     20  C   UNL     1       0.987   9.667  19.579  0.00  0.00    +0.000 C 
ATOM     21  C   UNL     1       0.506   8.859  20.793  0.00  0.00    +0.000 C 
ATOM     22  C   UNL     1       1.626   7.875  21.040  0.00  0.00    +0.000 C 
ATOM     23  N   UNL     1       2.029   7.521  19.695  0.00  0.00    +0.000 N 
ATOM     24  C   UNL     1       2.539   6.335  19.222  0.00  0.00    +0.000 C 
ATOM     25  O   UNL     1       2.955   6.243  18.065  0.00  0.00    +0.000 OA
ATOM     26  C   UNL     1       1.872   8.670  18.809  0.00  0.00    +0.000 C 
BRANCH  24  27
ATOM     27  C   UNL     1       2.501   5.119  20.152  0.00  0.00    +0.000 C 
ATOM     28  C   UNL     1       3.557   4.086  19.727  0.00  0.00    +0.000 C 
ATOM     29  C   UNL     1       3.385   2.764  20.457  0.00  0.00    +0.000 C 
ATOM     30  O   UNL     1       2.059   2.264  20.306  0.00  0.00    +0.000 OA
ATOM     31  C   UNL     1       1.089   3.149  20.856  0.00  0.00    +0.000 C 
ATOM     32  C   UNL     1       1.103   4.483  20.124  0.00  0.00    +0.000 C 
ENDBRANCH  24  27
ENDBRANCH  19  20
ENDBRANCH   5  19
TORSDOF 5
ENDMDL
