MODEL 1
REMARK VINA RESULT:      -8.4      0.000      0.000
REMARK  Name = 
REMARK  10 active torsions:
REMARK  status: ('A' for Active; 'I' for Inactive)
REMARK    1  A    between atoms: C_1  and  O_2
REMARK    2  A    between atoms: O_2  and  C_3
REMARK    3  A    between atoms: C_6  and  C_7
REMARK    4  A    between atoms: C_10  and  C_11
REMARK    5  A    between atoms: C_13  and  C_14
REMARK    6  A    between atoms: C_17  and  C_18
REMARK    7  A    between atoms: C_18  and  C_19
REMARK    8  A    between atoms: N_21  and  C_22
REMARK    9  A    between atoms: N_21  and  C_23
REMARK   10  A    between atoms: C_23  and  C_24
REMARK                            x       y       z     vdW  Elec       q    Type
REMARK                         _______ _______ _______ _____ _____    ______ ____
ROOT
ATOM      1  C   UNL     1       2.119   6.595  19.962  0.00  0.00    +0.000 A 
ATOM      2  N   UNL     1       1.739   5.579  20.749  0.00  0.00    +0.000 NA
ATOM      3  N   UNL     1       2.185   4.456  20.147  0.00  0.00    +0.000 N 
ATOM      4  C   UNL     1       2.004   3.129  20.566  0.00  0.00    +0.000 A 
ATOM      5  C   UNL     1       1.281   2.855  21.849  0.00  0.00    +0.000 C 
ATOM      6  C   UNL     1       2.496   2.134  19.807  0.00  0.00    +0.000 A 
ATOM      7  C   UNL     1       3.217   2.539  18.561  0.00  0.00    +0.000 A 
ATOM      8  C   UNL     1       3.721   1.430  17.669  0.00  0.00    +0.000 C 
ATOM      9  N   UNL     1       3.436   3.769  18.197  0.00  0.00    +0.000 NA
ATOM     10  C   UNL     1       2.902   4.750  18.986  0.00  0.00    +0.000 A 
ATOM     11  C   UNL     1       2.920   6.130  18.867  0.00  0.00    +0.000 A 
ENDROOT
BRANCH   1  15
ATOM     12  C   UNL     1       0.649  10.516  20.916  0.00  0.00    +0.000 A 
ATOM     13  C   UNL     1       0.881   9.582  21.927  0.00  0.00    +0.000 A 
ATOM     14  C   UNL     1       1.405   8.316  21.628  0.00  0.00    +0.000 A 
ATOM     15  C   UNL     1       1.671   7.949  20.304  0.00  0.00    +0.000 A 
ATOM     16  C   UNL     1       1.378   8.873  19.301  0.00  0.00    +0.000 A 
ATOM     17  C   UNL     1       0.908  10.159  19.597  0.00  0.00    +0.000 A 
BRANCH  12  19
ATOM     18  C   UNL     1      -0.774  11.650  22.439  0.00  0.00    +0.000 C 
ATOM     19  O   UNL     1       0.107  11.703  21.323  0.00  0.00    +0.000 OA
ENDBRANCH  12  19
ENDBRANCH   1  15
BRANCH  11  20
ATOM     20  C   UNL     1       3.670   6.904  17.821  0.00  0.00    +0.000 C 
BRANCH  20  21
ATOM     21  C   UNL     1       5.100   6.403  17.619  0.00  0.00    +0.000 C 
ATOM     22  O   UNL     1       5.762   6.002  18.582  0.00  0.00    +0.000 OA
ATOM     23  N   UNL     1       5.628   6.356  16.326  0.00  0.00    +0.000 N 
ATOM     24  C   UNL     1       5.002   6.930  15.140  0.00  0.00    +0.000 C 
BRANCH  23  25
ATOM     25  C   UNL     1       6.713   5.396  16.095  0.00  0.00    +0.000 C 
BRANCH  25  26
ATOM     26  C   UNL     1       6.776   4.808  14.709  0.00  0.00    +0.000 A 
ATOM     27  C   UNL     1       5.842   3.849  14.297  0.00  0.00    +0.000 A 
ATOM     28  C   UNL     1       5.824   3.402  12.974  0.00  0.00    +0.000 A 
ATOM     29  C   UNL     1       6.741   3.905  12.052  0.00  0.00    +0.000 A 
ATOM     30  C   UNL     1       7.684   4.849  12.453  0.00  0.00    +0.000 A 
ATOM     31  C   UNL     1       7.703   5.298  13.774  0.00  0.00    +0.000 A 
ENDBRANCH  25  26
ENDBRANCH  23  25
ENDBRANCH  20  21
ENDBRANCH  11  20
TORSDOF 6
ENDMDL
MODEL 2
REMARK VINA RESULT:      -8.3      1.336      1.604
REMARK  Name = 
REMARK  10 active torsions:
REMARK  status: ('A' for Active; 'I' for Inactive)
REMARK    1  A    between atoms: C_1  and  O_2
REMARK    2  A    between atoms: O_2  and  C_3
REMARK    3  A    between atoms: C_6  and  C_7
REMARK    4  A    between atoms: C_10  and  C_11
REMARK    5  A    between atoms: C_13  and  C_14
REMARK    6  A    between atoms: C_17  and  C_18
REMARK    7  A    between atoms: C_18  and  C_19
REMARK    8  A    between atoms: N_21  and  C_22
REMARK    9  A    between atoms: N_21  and  C_23
REMARK   10  A    between atoms: C_23  and  C_24
REMARK                            x       y       z     vdW  Elec       q    Type
REMARK                         _______ _______ _______ _____ _____    ______ ____
ROOT
ATOM      1  C   UNL     1       2.527   6.364  19.132  0.00  0.00    +0.000 A 
ATOM      2  N   UNL     1       1.599   5.473  19.505  0.00  0.00    +0.000 NA
ATOM      3  N   UNL     1       2.164   4.258  19.341  0.00  0.00    +0.000 N 
ATOM      4  C   UNL     1       1.578   3.003  19.562  0.00  0.00    +0.000 A 
ATOM      5  C   UNL     1       0.177   2.928  20.088  0.00  0.00    +0.000 C 
ATOM      6  C   UNL     1       2.295   1.894  19.307  0.00  0.00    +0.000 A 
ATOM      7  C   UNL     1       3.689   2.103  18.806  0.00  0.00    +0.000 A 
ATOM      8  C   UNL     1       4.484   0.868  18.457  0.00  0.00    +0.000 C 
ATOM      9  N   UNL     1       4.257   3.264  18.653  0.00  0.00    +0.000 NA
ATOM     10  C   UNL     1       3.487   4.365  18.905  0.00  0.00    +0.000 A 
ATOM     11  C   UNL     1       3.766   5.718  18.810  0.00  0.00    +0.000 A 
ENDROOT
BRANCH   1  15
ATOM     12  C   UNL     1       1.307  10.477  18.920  0.00  0.00    +0.000 A 
ATOM     13  C   UNL     1       1.063   9.725  20.070  0.00  0.00    +0.000 A 
ATOM     14  C   UNL     1       1.500   8.395  20.164  0.00  0.00    +0.000 A 
ATOM     15  C   UNL     1       2.157   7.783  19.091  0.00  0.00    +0.000 A 
ATOM     16  C   UNL     1       2.341   8.531  17.929  0.00  0.00    +0.000 A 
ATOM     17  C   UNL     1       1.957   9.876  17.848  0.00  0.00    +0.000 A 
BRANCH  12  19
ATOM     18  C   UNL     1      -0.377  11.960  19.692  0.00  0.00    +0.000 C 
ATOM     19  O   UNL     1       0.806  11.749  18.930  0.00  0.00    +0.000 OA
ENDBRANCH  12  19
ENDBRANCH   1  15
BRANCH  11  20
ATOM     20  C   UNL     1       5.107   6.309  18.478  0.00  0.00    +0.000 C 
BRANCH  20  21
ATOM     21  C   UNL     1       5.457   6.197  16.994  0.00  0.00    +0.000 C 
ATOM     22  O   UNL     1       4.790   6.803  16.148  0.00  0.00    +0.000 OA
ATOM     23  N   UNL     1       6.571   5.444  16.612  0.00  0.00    +0.000 N 
ATOM     24  C   UNL     1       7.343   4.576  17.496  0.00  0.00    +0.000 C 
BRANCH  23  25
ATOM     25  C   UNL     1       7.194   5.796  15.332  0.00  0.00    +0.000 C 
BRANCH  25  26
ATOM     26  C   UNL     1       6.863   4.887  14.177  0.00  0.00    +0.000 A 
ATOM     27  C   UNL     1       5.708   4.095  14.199  0.00  0.00    +0.000 A 
ATOM     28  C   UNL     1       5.338   3.353  13.074  0.00  0.00    +0.000 A 
ATOM     29  C   UNL     1       6.119   3.394  11.920  0.00  0.00    +0.000 A 
ATOM     30  C   UNL     1       7.277   4.167  11.891  0.00  0.00    +0.000 A 
ATOM     31  C   UNL     1       7.649   4.909  13.012  0.00  0.00    +0.000 A 
ENDBRANCH  25  26
ENDBRANCH  23  25
ENDBRANCH  20  21
ENDBRANCH  11  20
TORSDOF 6
ENDMDL
MODEL 3
REMARK VINA RESULT:      -8.2      0.476      1.035
REMARK  Name = 
REMARK  10 active torsions:
REMARK  status: ('A' for Active; 'I' for Inactive)
REMARK    1  A    between atoms: C_1  and  O_2
REMARK    2  A    between atoms: O_2  and  C_3
REMARK    3  A    between atoms: C_6  and  C_7
REMARK    4  A    between atoms: C_10  and  C_11
REMARK    5  A    between atoms: C_13  and  C_14
REMARK    6  A    between atoms: C_17  and  C_18
REMARK    7  A    between atoms: C_18  and  C_19
REMARK    8  A    between atoms: N_21  and  C_22
REMARK    9  A    between atoms: N_21  and  C_23
REMARK   10  A    between atoms: C_23  and  C_24
REMARK                            x       y       z     vdW  Elec       q    Type
REMARK                         _______ _______ _______ _____ _____    ______ ____
ROOT
ATOM      1  C   UNL     1       2.100   6.617  19.977  0.00  0.00    +0.000 A 
ATOM      2  N   UNL     1       1.702   5.583  20.730  0.00  0.00    +0.000 NA
ATOM      3  N   UNL     1       2.183   4.476  20.125  0.00  0.00    +0.000 N 
ATOM      4  C   UNL     1       2.002   3.140  20.511  0.00  0.00    +0.000 A 
ATOM      5  C   UNL     1       1.234   2.833  21.761  0.00  0.00    +0.000 C 
ATOM      6  C   UNL     1       2.535   2.164  19.754  0.00  0.00    +0.000 A 
ATOM      7  C   UNL     1       3.297   2.601  18.543  0.00  0.00    +0.000 A 
ATOM      8  C   UNL     1       3.848   1.515  17.651  0.00  0.00    +0.000 C 
ATOM      9  N   UNL     1       3.515   3.840  18.211  0.00  0.00    +0.000 NA
ATOM     10  C   UNL     1       2.941   4.800  18.997  0.00  0.00    +0.000 A 
ATOM     11  C   UNL     1       2.947   6.182  18.906  0.00  0.00    +0.000 A 
ENDROOT
BRANCH   1  15
ATOM     12  C   UNL     1       0.859  10.587  21.049  0.00  0.00    +0.000 A 
ATOM     13  C   UNL     1       1.074  10.249  19.711  0.00  0.00    +0.000 A 
ATOM     14  C   UNL     1       1.434   8.943  19.350  0.00  0.00    +0.000 A 
ATOM     15  C   UNL     1       1.622   7.959  20.327  0.00  0.00    +0.000 A 
ATOM     16  C   UNL     1       1.459   8.329  21.662  0.00  0.00    +0.000 A 
ATOM     17  C   UNL     1       1.046   9.616  22.026  0.00  0.00    +0.000 A 
BRANCH  12  19
ATOM     18  C   UNL     1       1.249  12.866  20.515  0.00  0.00    +0.000 C 
ATOM     19  O   UNL     1       0.545  11.897  21.283  0.00  0.00    +0.000 OA
ENDBRANCH  12  19
ENDBRANCH   1  15
BRANCH  11  20
ATOM     20  C   UNL     1       3.727   6.984  17.903  0.00  0.00    +0.000 C 
BRANCH  20  21
ATOM     21  C   UNL     1       5.128   6.426  17.653  0.00  0.00    +0.000 C 
ATOM     22  O   UNL     1       5.847   6.097  18.602  0.00  0.00    +0.000 OA
ATOM     23  N   UNL     1       5.562   6.244  16.337  0.00  0.00    +0.000 N 
ATOM     24  C   UNL     1       4.867   6.723  15.147  0.00  0.00    +0.000 C 
BRANCH  23  25
ATOM     25  C   UNL     1       6.607   5.237  16.124  0.00  0.00    +0.000 C 
BRANCH  25  26
ATOM     26  C   UNL     1       6.790   4.781  14.700  0.00  0.00    +0.000 A 
ATOM     27  C   UNL     1       5.968   3.784  14.158  0.00  0.00    +0.000 A 
ATOM     28  C   UNL     1       6.056   3.457  12.802  0.00  0.00    +0.000 A 
ATOM     29  C   UNL     1       6.966   4.118  11.979  0.00  0.00    +0.000 A 
ATOM     30  C   UNL     1       7.798   5.101  12.510  0.00  0.00    +0.000 A 
ATOM     31  C   UNL     1       7.713   5.431  13.863  0.00  0.00    +0.000 A 
ENDBRANCH  25  26
ENDBRANCH  23  25
ENDBRANCH  20  21
ENDBRANCH  11  20
TORSDOF 6
ENDMDL
MODEL 4
REMARK VINA RESULT:      -8.0      1.416      1.976
REMARK  Name = 
REMARK  10 active torsions:
REMARK  status: ('A' for Active; 'I' for Inactive)
REMARK    1  A    between atoms: C_1  and  O_2
REMARK    2  A    between atoms: O_2  and  C_3
REMARK    3  A    between atoms: C_6  and  C_7
REMARK    4  A    between atoms: C_10  and  C_11
REMARK    5  A    between atoms: C_13  and  C_14
REMARK    6  A    between atoms: C_17  and  C_18
REMARK    7  A    between atoms: C_18  and  C_19
REMARK    8  A    between atoms: N_21  and  C_22
REMARK    9  A    between atoms: N_21  and  C_23
REMARK   10  A    between atoms: C_23  and  C_24
REMARK                            x       y       z     vdW  Elec       q    Type
REMARK                         _______ _______ _______ _____ _____    ______ ____
ROOT
ATOM      1  C   UNL     1       2.463   6.395  19.064  0.00  0.00    +0.000 A 
ATOM      2  N   UNL     1       1.549   5.491  19.441  0.00  0.00    +0.000 NA
ATOM      3  N   UNL     1       2.143   4.286  19.317  0.00  0.00    +0.000 N 
ATOM      4  C   UNL     1       1.581   3.023  19.557  0.00  0.00    +0.000 A 
ATOM      5  C   UNL     1       0.173   2.929  20.059  0.00  0.00    +0.000 C 
ATOM      6  C   UNL     1       2.327   1.926  19.340  0.00  0.00    +0.000 A 
ATOM      7  C   UNL     1       3.726   2.154  18.860  0.00  0.00    +0.000 A 
ATOM      8  C   UNL     1       4.554   0.930  18.554  0.00  0.00    +0.000 C 
ATOM      9  N   UNL     1       4.270   3.324  18.689  0.00  0.00    +0.000 NA
ATOM     10  C   UNL     1       3.471   4.412  18.902  0.00  0.00    +0.000 A 
ATOM     11  C   UNL     1       3.722   5.769  18.779  0.00  0.00    +0.000 A 
ENDROOT
BRANCH   1  15
ATOM     12  C   UNL     1       1.421  10.559  18.923  0.00  0.00    +0.000 A 
ATOM     13  C   UNL     1       2.056   9.951  17.839  0.00  0.00    +0.000 A 
ATOM     14  C   UNL     1       2.357   8.581  17.859  0.00  0.00    +0.000 A 
ATOM     15  C   UNL     1       2.062   7.803  18.983  0.00  0.00    +0.000 A 
ATOM     16  C   UNL     1       1.480   8.439  20.080  0.00  0.00    +0.000 A 
ATOM     17  C   UNL     1       1.126   9.794  20.046  0.00  0.00    +0.000 A 
BRANCH  12  19
ATOM     18  C   UNL     1       2.362  12.718  18.629  0.00  0.00    +0.000 C 
ATOM     19  O   UNL     1       1.208  11.904  18.803  0.00  0.00    +0.000 OA
ENDBRANCH  12  19
ENDBRANCH   1  15
BRANCH  11  20
ATOM     20  C   UNL     1       5.055   6.382  18.457  0.00  0.00    +0.000 C 
BRANCH  20  21
ATOM     21  C   UNL     1       5.441   6.232  16.986  0.00  0.00    +0.000 C 
ATOM     22  O   UNL     1       4.794   6.814  16.109  0.00  0.00    +0.000 OA
ATOM     23  N   UNL     1       6.565   5.472  16.651  0.00  0.00    +0.000 N 
ATOM     24  C   UNL     1       7.316   4.629  17.575  0.00  0.00    +0.000 C 
BRANCH  23  25
ATOM     25  C   UNL     1       7.217   5.791  15.377  0.00  0.00    +0.000 C 
BRANCH  25  26
ATOM     26  C   UNL     1       6.877   4.881  14.226  0.00  0.00    +0.000 A 
ATOM     27  C   UNL     1       5.753   4.046  14.284  0.00  0.00    +0.000 A 
ATOM     28  C   UNL     1       5.369   3.301  13.166  0.00  0.00    +0.000 A 
ATOM     29  C   UNL     1       6.103   3.380  11.984  0.00  0.00    +0.000 A 
ATOM     30  C   UNL     1       7.230   4.197  11.919  0.00  0.00    +0.000 A 
ATOM     31  C   UNL     1       7.616   4.943  13.033  0.00  0.00    +0.000 A 
ENDBRANCH  25  26
ENDBRANCH  23  25
ENDBRANCH  20  21
ENDBRANCH  11  20
TORSDOF 6
ENDMDL
MODEL 5
REMARK VINA RESULT:      -7.8      1.526      1.916
REMARK  Name = 
REMARK  10 active torsions:
REMARK  status: ('A' for Active; 'I' for Inactive)
REMARK    1  A    between atoms: C_1  and  O_2
REMARK    2  A    between atoms: O_2  and  C_3
REMARK    3  A    between atoms: C_6  and  C_7
REMARK    4  A    between atoms: C_10  and  C_11
REMARK    5  A    between atoms: C_13  and  C_14
REMARK    6  A    between atoms: C_17  and  C_18
REMARK    7  A    between atoms: C_18  and  C_19
REMARK    8  A    between atoms: N_21  and  C_22
REMARK    9  A    between atoms: N_21  and  C_23
REMARK   10  A    between atoms: C_23  and  C_24
REMARK                            x       y       z     vdW  Elec       q    Type
REMARK                         _______ _______ _______ _____ _____    ______ ____
ROOT
ATOM      1  C   UNL     1       2.871   6.085  19.686  0.00  0.00    +0.000 A 
ATOM      2  N   UNL     1       2.048   5.225  20.301  0.00  0.00    +0.000 NA
ATOM      3  N   UNL     1       2.721   4.057  20.378  0.00  0.00    +0.000 N 
ATOM      4  C   UNL     1       2.267   2.839  20.905  0.00  0.00    +0.000 A 
ATOM      5  C   UNL     1       0.901   2.765  21.516  0.00  0.00    +0.000 C 
ATOM      6  C   UNL     1       3.077   1.767  20.860  0.00  0.00    +0.000 A 
ATOM      7  C   UNL     1       4.425   1.975  20.245  0.00  0.00    +0.000 A 
ATOM      8  C   UNL     1       5.321   0.766  20.132  0.00  0.00    +0.000 C 
ATOM      9  N   UNL     1       4.871   3.115  19.805  0.00  0.00    +0.000 NA
ATOM     10  C   UNL     1       4.009   4.175  19.852  0.00  0.00    +0.000 A 
ATOM     11  C   UNL     1       4.153   5.490  19.443  0.00  0.00    +0.000 A 
ENDROOT
BRANCH   1  15
ATOM     12  C   UNL     1       1.258   9.923  18.631  0.00  0.00    +0.000 A 
ATOM     13  C   UNL     1       1.067   9.403  19.912  0.00  0.00    +0.000 A 
ATOM     14  C   UNL     1       1.630   8.172  20.278  0.00  0.00    +0.000 A 
ATOM     15  C   UNL     1       2.364   7.420  19.354  0.00  0.00    +0.000 A 
ATOM     16  C   UNL     1       2.497   7.929  18.061  0.00  0.00    +0.000 A 
ATOM     17  C   UNL     1       1.985   9.183  17.705  0.00  0.00    +0.000 A 
BRANCH  12  19
ATOM     18  C   UNL     1      -0.708  11.237  18.833  0.00  0.00    +0.000 C 
ATOM     19  O   UNL     1       0.635  11.114  18.379  0.00  0.00    +0.000 OA
ENDBRANCH  12  19
ENDBRANCH   1  15
BRANCH  11  20
ATOM     20  C   UNL     1       5.417   6.103  18.910  0.00  0.00    +0.000 C 
BRANCH  20  21
ATOM     21  C   UNL     1       6.151   5.194  17.924  0.00  0.00    +0.000 C 
ATOM     22  O   UNL     1       7.039   4.432  18.321  0.00  0.00    +0.000 OA
ATOM     23  N   UNL     1       5.768   5.196  16.580  0.00  0.00    +0.000 N 
ATOM     24  C   UNL     1       4.840   6.145  15.972  0.00  0.00    +0.000 C 
BRANCH  23  25
ATOM     25  C   UNL     1       6.064   3.984  15.810  0.00  0.00    +0.000 C 
BRANCH  25  26
ATOM     26  C   UNL     1       6.415   4.203  14.362  0.00  0.00    +0.000 A 
ATOM     27  C   UNL     1       7.449   5.078  14.002  0.00  0.00    +0.000 A 
ATOM     28  C   UNL     1       7.857   5.179  12.670  0.00  0.00    +0.000 A 
ATOM     29  C   UNL     1       7.235   4.411  11.686  0.00  0.00    +0.000 A 
ATOM     30  C   UNL     1       6.198   3.548  12.030  0.00  0.00    +0.000 A 
ATOM     31  C   UNL     1       5.788   3.444  13.360  0.00  0.00    +0.000 A 
ENDBRANCH  25  26
ENDBRANCH  23  25
ENDBRANCH  20  21
ENDBRANCH  11  20
TORSDOF 6
ENDMDL
MODEL 6
REMARK VINA RESULT:      -7.7      5.173     10.990
REMARK  Name = 
REMARK  10 active torsions:
REMARK  status: ('A' for Active; 'I' for Inactive)
REMARK    1  A    between atoms: C_1  and  O_2
REMARK    2  A    between atoms: O_2  and  C_3
REMARK    3  A    between atoms: C_6  and  C_7
REMARK    4  A    between atoms: C_10  and  C_11
REMARK    5  A    between atoms: C_13  and  C_14
REMARK    6  A    between atoms: C_17  and  C_18
REMARK    7  A    between atoms: C_18  and  C_19
REMARK    8  A    between atoms: N_21  and  C_22
REMARK    9  A    between atoms: N_21  and  C_23
REMARK   10  A    between atoms: C_23  and  C_24
REMARK                            x       y       z     vdW  Elec       q    Type
REMARK                         _______ _______ _______ _____ _____    ______ ____
ROOT
ATOM      1  C   UNL     1       0.893  11.302  19.373  0.00  0.00    +0.000 A 
ATOM      2  N   UNL     1       1.659  12.146  20.077  0.00  0.00    +0.000 NA
ATOM      3  N   UNL     1       1.189  13.384  19.813  0.00  0.00    +0.000 N 
ATOM      4  C   UNL     1       1.684  14.608  20.286  0.00  0.00    +0.000 A 
ATOM      5  C   UNL     1       2.840  14.616  21.238  0.00  0.00    +0.000 C 
ATOM      6  C   UNL     1       1.098  15.748  19.880  0.00  0.00    +0.000 A 
ATOM      7  C   UNL     1      -0.062  15.606  18.946  0.00  0.00    +0.000 A 
ATOM      8  C   UNL     1      -0.690  16.880  18.434  0.00  0.00    +0.000 C 
ATOM      9  N   UNL     1      -0.560  14.472  18.549  0.00  0.00    +0.000 NA
ATOM     10  C   UNL     1       0.077  13.338  18.969  0.00  0.00    +0.000 A 
ATOM     11  C   UNL     1      -0.169  12.000  18.708  0.00  0.00    +0.000 A 
ENDROOT
BRANCH   1  15
ATOM     12  C   UNL     1       2.083   7.176  19.376  0.00  0.00    +0.000 A 
ATOM     13  C   UNL     1       1.551   7.760  20.527  0.00  0.00    +0.000 A 
ATOM     14  C   UNL     1       1.117   9.093  20.520  0.00  0.00    +0.000 A 
ATOM     15  C   UNL     1       1.244   9.878  19.369  0.00  0.00    +0.000 A 
ATOM     16  C   UNL     1       1.831   9.295  18.245  0.00  0.00    +0.000 A 
ATOM     17  C   UNL     1       2.215   7.949  18.229  0.00  0.00    +0.000 A 
BRANCH  12  19
ATOM     18  C   UNL     1       2.028   5.176  20.654  0.00  0.00    +0.000 C 
ATOM     19  O   UNL     1       2.502   5.881  19.512  0.00  0.00    +0.000 OA
ENDBRANCH  12  19
ENDBRANCH   1  15
BRANCH  11  20
ATOM     20  C   UNL     1      -1.336  11.466  17.927  0.00  0.00    +0.000 C 
BRANCH  20  21
ATOM     21  C   UNL     1      -2.677  11.704  18.621  0.00  0.00    +0.000 C 
ATOM     22  O   UNL     1      -2.716  11.984  19.823  0.00  0.00    +0.000 OA
ATOM     23  N   UNL     1      -3.853  11.653  17.866  0.00  0.00    +0.000 N 
ATOM     24  C   UNL     1      -3.945  11.195  16.483  0.00  0.00    +0.000 C 
BRANCH  23  25
ATOM     25  C   UNL     1      -5.000  12.403  18.386  0.00  0.00    +0.000 C 
BRANCH  25  26
ATOM     26  C   UNL     1      -6.012  11.594  19.153  0.00  0.00    +0.000 A 
ATOM     27  C   UNL     1      -6.281  10.266  18.800  0.00  0.00    +0.000 A 
ATOM     28  C   UNL     1      -7.123   9.480  19.591  0.00  0.00    +0.000 A 
ATOM     29  C   UNL     1      -7.705  10.015  20.740  0.00  0.00    +0.000 A 
ATOM     30  C   UNL     1      -7.456  11.339  21.095  0.00  0.00    +0.000 A 
ATOM     31  C   UNL     1      -6.615  12.125  20.306  0.00  0.00    +0.000 A 
ENDBRANCH  25  26
ENDBRANCH  23  25
ENDBRANCH  20  21
ENDBRANCH  11  20
TORSDOF 6
ENDMDL
MODEL 7
REMARK VINA RESULT:      -7.6      7.159     11.698
REMARK  Name = 
REMARK  10 active torsions:
REMARK  status: ('A' for Active; 'I' for Inactive)
REMARK    1  A    between atoms: C_1  and  O_2
REMARK    2  A    between atoms: O_2  and  C_3
REMARK    3  A    between atoms: C_6  and  C_7
REMARK    4  A    between atoms: C_10  and  C_11
REMARK    5  A    between atoms: C_13  and  C_14
REMARK    6  A    between atoms: C_17  and  C_18
REMARK    7  A    between atoms: C_18  and  C_19
REMARK    8  A    between atoms: N_21  and  C_22
REMARK    9  A    between atoms: N_21  and  C_23
REMARK   10  A    between atoms: C_23  and  C_24
REMARK                            x       y       z     vdW  Elec       q    Type
REMARK                         _______ _______ _______ _____ _____    ______ ____
ROOT
ATOM      1  C   UNL     1      -1.778  13.205  23.292  0.00  0.00    +0.000 A 
ATOM      2  N   UNL     1      -1.098  14.024  24.106  0.00  0.00    +0.000 NA
ATOM      3  N   UNL     1      -1.970  14.985  24.479  0.00  0.00    +0.000 N 
ATOM      4  C   UNL     1      -1.722  16.095  25.300  0.00  0.00    +0.000 A 
ATOM      5  C   UNL     1      -0.365  16.272  25.909  0.00  0.00    +0.000 C 
ATOM      6  C   UNL     1      -2.717  16.970  25.531  0.00  0.00    +0.000 A 
ATOM      7  C   UNL     1      -4.032  16.670  24.883  0.00  0.00    +0.000 A 
ATOM      8  C   UNL     1      -5.140  17.675  25.083  0.00  0.00    +0.000 C 
ATOM      9  N   UNL     1      -4.282  15.613  24.166  0.00  0.00    +0.000 NA
ATOM     10  C   UNL     1      -3.239  14.760  23.941  0.00  0.00    +0.000 A 
ATOM     11  C   UNL     1      -3.158  13.587  23.209  0.00  0.00    +0.000 A 
ENDROOT
BRANCH   1  15
ATOM     12  C   UNL     1       0.204   9.960  21.295  0.00  0.00    +0.000 A 
ATOM     13  C   UNL     1       0.199  11.239  20.734  0.00  0.00    +0.000 A 
ATOM     14  C   UNL     1      -0.406  12.313  21.403  0.00  0.00    +0.000 A 
ATOM     15  C   UNL     1      -1.051  12.117  22.629  0.00  0.00    +0.000 A 
ATOM     16  C   UNL     1      -1.085  10.823  23.147  0.00  0.00    +0.000 A 
ATOM     17  C   UNL     1      -0.436   9.757  22.512  0.00  0.00    +0.000 A 
BRANCH  12  19
ATOM     18  C   UNL     1       1.223   9.368  19.235  0.00  0.00    +0.000 C 
ATOM     19  O   UNL     1       0.794   8.987  20.537  0.00  0.00    +0.000 OA
ENDBRANCH  12  19
ENDBRANCH   1  15
BRANCH  11  20
ATOM     20  C   UNL     1      -4.312  12.898  22.537  0.00  0.00    +0.000 C 
BRANCH  20  21
ATOM     21  C   UNL     1      -4.464  13.287  21.067  0.00  0.00    +0.000 C 
ATOM     22  O   UNL     1      -3.777  14.195  20.587  0.00  0.00    +0.000 OA
ATOM     23  N   UNL     1      -5.351  12.567  20.261  0.00  0.00    +0.000 N 
ATOM     24  C   UNL     1      -6.311  11.579  20.741  0.00  0.00    +0.000 C 
BRANCH  23  25
ATOM     25  C   UNL     1      -5.079  12.570  18.820  0.00  0.00    +0.000 C 
BRANCH  25  26
ATOM     26  C   UNL     1      -4.007  11.617  18.359  0.00  0.00    +0.000 A 
ATOM     27  C   UNL     1      -4.343  10.360  17.840  0.00  0.00    +0.000 A 
ATOM     28  C   UNL     1      -3.357   9.533  17.295  0.00  0.00    +0.000 A 
ATOM     29  C   UNL     1      -2.028   9.953  17.267  0.00  0.00    +0.000 A 
ATOM     30  C   UNL     1      -1.679  11.195  17.792  0.00  0.00    +0.000 A 
ATOM     31  C   UNL     1      -2.662  12.023  18.337  0.00  0.00    +0.000 A 
ENDBRANCH  25  26
ENDBRANCH  23  25
ENDBRANCH  20  21
ENDBRANCH  11  20
TORSDOF 6
ENDMDL
MODEL 8
REMARK VINA RESULT:      -7.5      4.504      8.098
REMARK  Name = 
REMARK  10 active torsions:
REMARK  status: ('A' for Active; 'I' for Inactive)
REMARK    1  A    between atoms: C_1  and  O_2
REMARK    2  A    between atoms: O_2  and  C_3
REMARK    3  A    between atoms: C_6  and  C_7
REMARK    4  A    between atoms: C_10  and  C_11
REMARK    5  A    between atoms: C_13  and  C_14
REMARK    6  A    between atoms: C_17  and  C_18
REMARK    7  A    between atoms: C_18  and  C_19
REMARK    8  A    between atoms: N_21  and  C_22
REMARK    9  A    between atoms: N_21  and  C_23
REMARK   10  A    between atoms: C_23  and  C_24
REMARK                            x       y       z     vdW  Elec       q    Type
REMARK                         _______ _______ _______ _____ _____    ______ ____
ROOT
ATOM      1  C   UNL     1      -0.968  12.666  19.552  0.00  0.00    +0.000 A 
ATOM      2  N   UNL     1      -0.690  13.959  19.336  0.00  0.00    +0.000 NA
ATOM      3  N   UNL     1       0.547  14.162  19.838  0.00  0.00    +0.000 N 
ATOM      4  C   UNL     1       1.266  15.365  19.885  0.00  0.00    +0.000 A 
ATOM      5  C   UNL     1       0.672  16.602  19.284  0.00  0.00    +0.000 C 
ATOM      6  C   UNL     1       2.481  15.376  20.461  0.00  0.00    +0.000 A 
ATOM      7  C   UNL     1       2.973  14.072  21.005  0.00  0.00    +0.000 A 
ATOM      8  C   UNL     1       4.308  14.083  21.709  0.00  0.00    +0.000 C 
ATOM      9  N   UNL     1       2.334  12.942  20.914  0.00  0.00    +0.000 NA
ATOM     10  C   UNL     1       1.095  12.979  20.338  0.00  0.00    +0.000 A 
ATOM     11  C   UNL     1       0.157  11.983  20.121  0.00  0.00    +0.000 A 
ENDROOT
BRANCH   1  15
ATOM     12  C   UNL     1      -4.925  11.376  18.494  0.00  0.00    +0.000 A 
ATOM     13  C   UNL     1      -3.826  10.997  17.720  0.00  0.00    +0.000 A 
ATOM     14  C   UNL     1      -2.527  11.376  18.086  0.00  0.00    +0.000 A 
ATOM     15  C   UNL     1      -2.307  12.174  19.213  0.00  0.00    +0.000 A 
ATOM     16  C   UNL     1      -3.421  12.591  19.942  0.00  0.00    +0.000 A 
ATOM     17  C   UNL     1      -4.716  12.171  19.615  0.00  0.00    +0.000 A 
BRANCH  12  19
ATOM     18  C   UNL     1      -6.927  10.165  18.890  0.00  0.00    +0.000 C 
ATOM     19  O   UNL     1      -6.144  10.976  18.022  0.00  0.00    +0.000 OA
ENDBRANCH  12  19
ENDBRANCH   1  15
BRANCH  11  20
ATOM     20  C   UNL     1       0.358  10.521  20.404  0.00  0.00    +0.000 C 
BRANCH  20  21
ATOM     21  C   UNL     1       0.871   9.744  19.192  0.00  0.00    +0.000 C 
ATOM     22  O   UNL     1       0.716  10.193  18.052  0.00  0.00    +0.000 OA
ATOM     23  N   UNL     1       1.565   8.547  19.395  0.00  0.00    +0.000 N 
ATOM     24  C   UNL     1       1.685   7.851  20.671  0.00  0.00    +0.000 C 
BRANCH  23  25
ATOM     25  C   UNL     1       2.492   8.138  18.336  0.00  0.00    +0.000 C 
BRANCH  25  26
ATOM     26  C   UNL     1       2.748   6.657  18.231  0.00  0.00    +0.000 A 
ATOM     27  C   UNL     1       1.703   5.770  17.942  0.00  0.00    +0.000 A 
ATOM     28  C   UNL     1       1.967   4.416  17.719  0.00  0.00    +0.000 A 
ATOM     29  C   UNL     1       3.274   3.936  17.786  0.00  0.00    +0.000 A 
ATOM     30  C   UNL     1       4.320   4.807  18.087  0.00  0.00    +0.000 A 
ATOM     31  C   UNL     1       4.060   6.159  18.310  0.00  0.00    +0.000 A 
ENDBRANCH  25  26
ENDBRANCH  23  25
ENDBRANCH  20  21
ENDBRANCH  11  20
TORSDOF 6
ENDMDL
MODEL 9
REMARK VINA RESULT:      -7.5      4.609      9.717
REMARK  Name = 
REMARK  10 active torsions:
REMARK  status: ('A' for Active; 'I' for Inactive)
REMARK    1  A    between atoms: C_1  and  O_2
REMARK    2  A    between atoms: O_2  and  C_3
REMARK    3  A    between atoms: C_6  and  C_7
REMARK    4  A    between atoms: C_10  and  C_11
REMARK    5  A    between atoms: C_13  and  C_14
REMARK    6  A    between atoms: C_17  and  C_18
REMARK    7  A    between atoms: C_18  and  C_19
REMARK    8  A    between atoms: N_21  and  C_22
REMARK    9  A    between atoms: N_21  and  C_23
REMARK   10  A    between atoms: C_23  and  C_24
REMARK                            x       y       z     vdW  Elec       q    Type
REMARK                         _______ _______ _______ _____ _____    ______ ____
ROOT
ATOM      1  C   UNL     1      -2.196  13.107  20.782  0.00  0.00    +0.000 A 
ATOM      2  N   UNL     1      -2.329  14.437  20.683  0.00  0.00    +0.000 NA
ATOM      3  N   UNL     1      -1.986  14.935  21.890  0.00  0.00    +0.000 N 
ATOM      4  C   UNL     1      -1.998  16.277  22.298  0.00  0.00    +0.000 A 
ATOM      5  C   UNL     1      -2.381  17.342  21.316  0.00  0.00    +0.000 C 
ATOM      6  C   UNL     1      -1.654  16.576  23.563  0.00  0.00    +0.000 A 
ATOM      7  C   UNL     1      -1.271  15.426  24.440  0.00  0.00    +0.000 A 
ATOM      8  C   UNL     1      -0.942  15.741  25.879  0.00  0.00    +0.000 C 
ATOM      9  N   UNL     1      -1.204  14.187  24.051  0.00  0.00    +0.000 NA
ATOM     10  C   UNL     1      -1.581  13.924  22.763  0.00  0.00    +0.000 A 
ATOM     11  C   UNL     1      -1.658  12.734  22.057  0.00  0.00    +0.000 A 
ENDROOT
BRANCH   1  15
ATOM     12  C   UNL     1      -3.453  10.819  17.372  0.00  0.00    +0.000 A 
ATOM     13  C   UNL     1      -2.096  10.989  17.648  0.00  0.00    +0.000 A 
ATOM     14  C   UNL     1      -1.678  11.695  18.786  0.00  0.00    +0.000 A 
ATOM     15  C   UNL     1      -2.614  12.278  19.647  0.00  0.00    +0.000 A 
ATOM     16  C   UNL     1      -3.965  12.147  19.324  0.00  0.00    +0.000 A 
ATOM     17  C   UNL     1      -4.390  11.396  18.221  0.00  0.00    +0.000 A 
BRANCH  12  19
ATOM     18  C   UNL     1      -2.898  10.403  15.102  0.00  0.00    +0.000 C 
ATOM     19  O   UNL     1      -3.740  10.141  16.219  0.00  0.00    +0.000 OA
ENDBRANCH  12  19
ENDBRANCH   1  15
BRANCH  11  20
ATOM     20  C   UNL     1      -1.216  11.391  22.564  0.00  0.00    +0.000 C 
BRANCH  20  21
ATOM     21  C   UNL     1       0.032  10.866  21.855  0.00  0.00    +0.000 C 
ATOM     22  O   UNL     1       0.931  11.643  21.519  0.00  0.00    +0.000 OA
ATOM     23  N   UNL     1       0.165   9.491  21.641  0.00  0.00    +0.000 N 
ATOM     24  C   UNL     1      -0.882   8.500  21.862  0.00  0.00    +0.000 C 
BRANCH  23  25
ATOM     25  C   UNL     1       1.531   8.979  21.494  0.00  0.00    +0.000 C 
BRANCH  25  26
ATOM     26  C   UNL     1       1.790   8.163  20.255  0.00  0.00    +0.000 A 
ATOM     27  C   UNL     1       1.849   8.774  18.996  0.00  0.00    +0.000 A 
ATOM     28  C   UNL     1       2.216   8.036  17.868  0.00  0.00    +0.000 A 
ATOM     29  C   UNL     1       2.525   6.681  17.987  0.00  0.00    +0.000 A 
ATOM     30  C   UNL     1       2.457   6.059  19.231  0.00  0.00    +0.000 A 
ATOM     31  C   UNL     1       2.091   6.794  20.359  0.00  0.00    +0.000 A 
ENDBRANCH  25  26
ENDBRANCH  23  25
ENDBRANCH  20  21
ENDBRANCH  11  20
TORSDOF 6
ENDMDL
