MODEL 1
REMARK VINA RESULT:      -6.2      0.000      0.000
REMARK  Name = 
REMARK  1 active torsions:
REMARK  status: ('A' for Active; 'I' for Inactive)
REMARK    1  A    between atoms: C_5  and  C_6
REMARK                            x       y       z     vdW  Elec       q    Type
REMARK                         _______ _______ _______ _____ _____    ______ ____
ROOT
ATOM      1  C   UNL     1       5.204   4.276  18.992  0.00  0.00    +0.000 C 
ATOM      2  C   UNL     1       4.281   5.480  19.362  0.00  0.00    +0.000 C 
ATOM      3  N   UNL     1       3.001   4.823  19.498  0.00  0.00    +0.000 N 
ATOM      4  C   UNL     1       1.944   5.316  20.352  0.00  0.00    +0.000 C 
ATOM      5  C   UNL     1       0.976   4.142  20.572  0.00  0.00    +0.000 C 
ATOM      6  S   UNL     1       1.937   2.606  20.297  0.00  0.00    +0.000 S 
ATOM      7  C   UNL     1       3.253   3.491  19.617  0.00  0.00    +0.000 C 
ATOM      8  N   UNL     1       4.426   3.025  19.320  0.00  0.00    +0.000 NA
ENDROOT
BRANCH   1  13
ATOM      9 BR   UNL     1       7.280   4.824  13.164  0.00  0.00    +0.000 Br
ATOM     10  C   UNL     1       6.644   4.625  14.933  0.00  0.00    +0.000 A 
ATOM     11  C   UNL     1       7.516   4.805  16.004  0.00  0.00    +0.000 A 
ATOM     12  C   UNL     1       7.043   4.669  17.311  0.00  0.00    +0.000 A 
ATOM     13  C   UNL     1       5.696   4.351  17.560  0.00  0.00    +0.000 A 
ATOM     14  C   UNL     1       4.835   4.170  16.467  0.00  0.00    +0.000 A 
ATOM     15  C   UNL     1       5.307   4.307  15.159  0.00  0.00    +0.000 A 
ENDBRANCH   1  13
TORSDOF 1
ENDMDL
MODEL 2
REMARK VINA RESULT:      -6.2      2.372      2.690
REMARK  Name = 
REMARK  1 active torsions:
REMARK  status: ('A' for Active; 'I' for Inactive)
REMARK    1  A    between atoms: C_5  and  C_6
REMARK                            x       y       z     vdW  Elec       q    Type
REMARK                         _______ _______ _______ _____ _____    ______ ____
ROOT
ATOM      1  C   UNL     1       4.283   3.690  18.185  0.00  0.00    +0.000 C 
ATOM      2  C   UNL     1       4.559   2.922  19.517  0.00  0.00    +0.000 C 
ATOM      3  N   UNL     1       3.375   3.245  20.279  0.00  0.00    +0.000 N 
ATOM      4  C   UNL     1       2.839   2.387  21.311  0.00  0.00    +0.000 C 
ATOM      5  C   UNL     1       1.385   2.835  21.541  0.00  0.00    +0.000 C 
ATOM      6  S   UNL     1       0.838   3.665  20.001  0.00  0.00    +0.000 S 
ATOM      7  C   UNL     1       2.453   3.716  19.395  0.00  0.00    +0.000 C 
ATOM      8  N   UNL     1       2.819   4.055  18.199  0.00  0.00    +0.000 NA
ENDROOT
BRANCH   1  13
ATOM      9 BR   UNL     1       8.094   8.567  17.661  0.00  0.00    +0.000 Br
ATOM     10  C   UNL     1       6.942   7.073  17.791  0.00  0.00    +0.000 A 
ATOM     11  C   UNL     1       7.260   6.029  18.656  0.00  0.00    +0.000 A 
ATOM     12  C   UNL     1       6.402   4.932  18.759  0.00  0.00    +0.000 A 
ATOM     13  C   UNL     1       5.221   4.867  17.998  0.00  0.00    +0.000 A 
ATOM     14  C   UNL     1       4.921   5.926  17.130  0.00  0.00    +0.000 A 
ATOM     15  C   UNL     1       5.778   7.026  17.027  0.00  0.00    +0.000 A 
ENDBRANCH   1  13
TORSDOF 1
ENDMDL
MODEL 3
REMARK VINA RESULT:      -6.2      0.097      1.250
REMARK  Name = 
REMARK  1 active torsions:
REMARK  status: ('A' for Active; 'I' for Inactive)
REMARK    1  A    between atoms: C_5  and  C_6
REMARK                            x       y       z     vdW  Elec       q    Type
REMARK                         _______ _______ _______ _____ _____    ______ ____
ROOT
ATOM      1  C   UNL     1       5.243   4.346  19.009  0.00  0.00    +0.000 C 
ATOM      2  C   UNL     1       4.299   5.522  19.417  0.00  0.00    +0.000 C 
ATOM      3  N   UNL     1       3.031   4.839  19.530  0.00  0.00    +0.000 N 
ATOM      4  C   UNL     1       1.965   5.286  20.398  0.00  0.00    +0.000 C 
ATOM      5  C   UNL     1       1.017   4.088  20.579  0.00  0.00    +0.000 C 
ATOM      6  S   UNL     1       2.004   2.579  20.256  0.00  0.00    +0.000 S 
ATOM      7  C   UNL     1       3.305   3.508  19.606  0.00  0.00    +0.000 C 
ATOM      8  N   UNL     1       4.486   3.072  19.296  0.00  0.00    +0.000 NA
ENDROOT
BRANCH   1  13
ATOM      9 BR   UNL     1       7.183   4.641  13.116  0.00  0.00    +0.000 Br
ATOM     10  C   UNL     1       6.598   4.583  14.913  0.00  0.00    +0.000 A 
ATOM     11  C   UNL     1       5.253   4.358  15.194  0.00  0.00    +0.000 A 
ATOM     12  C   UNL     1       4.824   4.303  16.522  0.00  0.00    +0.000 A 
ATOM     13  C   UNL     1       5.734   4.476  17.580  0.00  0.00    +0.000 A 
ATOM     14  C   UNL     1       7.083   4.705  17.276  0.00  0.00    +0.000 A 
ATOM     15  C   UNL     1       7.514   4.758  15.947  0.00  0.00    +0.000 A 
ENDBRANCH   1  13
TORSDOF 1
ENDMDL
MODEL 4
REMARK VINA RESULT:      -6.1      4.462      5.810
REMARK  Name = 
REMARK  1 active torsions:
REMARK  status: ('A' for Active; 'I' for Inactive)
REMARK    1  A    between atoms: C_5  and  C_6
REMARK                            x       y       z     vdW  Elec       q    Type
REMARK                         _______ _______ _______ _____ _____    ______ ____
ROOT
ATOM      1  C   UNL     1       2.799   6.226  19.671  0.00  0.00    +0.000 C 
ATOM      2  C   UNL     1       1.920   5.296  20.566  0.00  0.00    +0.000 C 
ATOM      3  N   UNL     1       1.505   4.295  19.610  0.00  0.00    +0.000 N 
ATOM      4  C   UNL     1       1.172   2.938  19.979  0.00  0.00    +0.000 C 
ATOM      5  C   UNL     1       1.238   2.106  18.687  0.00  0.00    +0.000 C 
ATOM      6  S   UNL     1       2.350   3.000  17.537  0.00  0.00    +0.000 S 
ATOM      7  C   UNL     1       2.337   4.406  18.538  0.00  0.00    +0.000 C 
ATOM      8  N   UNL     1       3.086   5.455  18.407  0.00  0.00    +0.000 NA
ENDROOT
BRANCH   1  13
ATOM      9 BR   UNL     1      -0.065  11.670  18.808  0.00  0.00    +0.000 Br
ATOM     10  C   UNL     1       0.836  10.028  19.068  0.00  0.00    +0.000 A 
ATOM     11  C   UNL     1       0.799   9.411  20.316  0.00  0.00    +0.000 A 
ATOM     12  C   UNL     1       1.455   8.192  20.503  0.00  0.00    +0.000 A 
ATOM     13  C   UNL     1       2.154   7.580  19.447  0.00  0.00    +0.000 A 
ATOM     14  C   UNL     1       2.182   8.220  18.200  0.00  0.00    +0.000 A 
ATOM     15  C   UNL     1       1.525   9.439  18.010  0.00  0.00    +0.000 A 
ENDBRANCH   1  13
TORSDOF 1
ENDMDL
MODEL 5
REMARK VINA RESULT:      -6.1      3.948      5.930
REMARK  Name = 
REMARK  1 active torsions:
REMARK  status: ('A' for Active; 'I' for Inactive)
REMARK    1  A    between atoms: C_5  and  C_6
REMARK                            x       y       z     vdW  Elec       q    Type
REMARK                         _______ _______ _______ _____ _____    ______ ____
ROOT
ATOM      1  C   UNL     1       3.570   5.292  18.907  0.00  0.00    +0.000 C 
ATOM      2  C   UNL     1       3.483   4.705  17.462  0.00  0.00    +0.000 C 
ATOM      3  N   UNL     1       4.832   4.917  16.990  0.00  0.00    +0.000 N 
ATOM      4  C   UNL     1       5.458   4.089  15.983  0.00  0.00    +0.000 C 
ATOM      5  C   UNL     1       6.972   4.332  16.098  0.00  0.00    +0.000 C 
ATOM      6  S   UNL     1       7.286   4.919  17.805  0.00  0.00    +0.000 S 
ATOM      7  C   UNL     1       5.601   5.155  18.088  0.00  0.00    +0.000 C 
ATOM      8  N   UNL     1       5.039   5.430  19.223  0.00  0.00    +0.000 NA
ENDROOT
BRANCH   1  13
ATOM      9 BR   UNL     1       0.514  10.671  19.461  0.00  0.00    +0.000 Br
ATOM     10  C   UNL     1       1.416   9.018  19.294  0.00  0.00    +0.000 A 
ATOM     11  C   UNL     1       2.032   8.686  18.089  0.00  0.00    +0.000 A 
ATOM     12  C   UNL     1       2.708   7.469  17.971  0.00  0.00    +0.000 A 
ATOM     13  C   UNL     1       2.773   6.573  19.053  0.00  0.00    +0.000 A 
ATOM     14  C   UNL     1       2.143   6.925  20.255  0.00  0.00    +0.000 A 
ATOM     15  C   UNL     1       1.467   8.142  20.376  0.00  0.00    +0.000 A 
ENDBRANCH   1  13
TORSDOF 1
ENDMDL
MODEL 6
REMARK VINA RESULT:      -6.1      3.998      5.981
REMARK  Name = 
REMARK  1 active torsions:
REMARK  status: ('A' for Active; 'I' for Inactive)
REMARK    1  A    between atoms: C_5  and  C_6
REMARK                            x       y       z     vdW  Elec       q    Type
REMARK                         _______ _______ _______ _____ _____    ______ ____
ROOT
ATOM      1  C   UNL     1       3.556   5.389  18.895  0.00  0.00    +0.000 C 
ATOM      2  C   UNL     1       3.467   4.840  17.435  0.00  0.00    +0.000 C 
ATOM      3  N   UNL     1       4.831   5.005  16.988  0.00  0.00    +0.000 N 
ATOM      4  C   UNL     1       5.437   4.175  15.971  0.00  0.00    +0.000 C 
ATOM      5  C   UNL     1       6.958   4.350  16.114  0.00  0.00    +0.000 C 
ATOM      6  S   UNL     1       7.270   4.884  17.839  0.00  0.00    +0.000 S 
ATOM      7  C   UNL     1       5.592   5.185  18.102  0.00  0.00    +0.000 C 
ATOM      8  N   UNL     1       5.024   5.458  19.235  0.00  0.00    +0.000 NA
ENDROOT
BRANCH   1  13
ATOM      9 BR   UNL     1       0.296  10.628  19.609  0.00  0.00    +0.000 Br
ATOM     10  C   UNL     1       1.316   9.051  19.390  0.00  0.00    +0.000 A 
ATOM     11  C   UNL     1       1.423   8.147  20.445  0.00  0.00    +0.000 A 
ATOM     12  C   UNL     1       2.168   6.977  20.278  0.00  0.00    +0.000 A 
ATOM     13  C   UNL     1       2.812   6.700  19.059  0.00  0.00    +0.000 A 
ATOM     14  C   UNL     1       2.694   7.625  18.011  0.00  0.00    +0.000 A 
ATOM     15  C   UNL     1       1.948   8.796  18.176  0.00  0.00    +0.000 A 
ENDBRANCH   1  13
TORSDOF 1
ENDMDL
MODEL 7
REMARK VINA RESULT:      -6.0      4.451      5.803
REMARK  Name = 
REMARK  1 active torsions:
REMARK  status: ('A' for Active; 'I' for Inactive)
REMARK    1  A    between atoms: C_5  and  C_6
REMARK                            x       y       z     vdW  Elec       q    Type
REMARK                         _______ _______ _______ _____ _____    ______ ____
ROOT
ATOM      1  C   UNL     1       2.792   6.220  19.716  0.00  0.00    +0.000 C 
ATOM      2  C   UNL     1       1.960   5.265  20.630  0.00  0.00    +0.000 C 
ATOM      3  N   UNL     1       1.547   4.256  19.681  0.00  0.00    +0.000 N 
ATOM      4  C   UNL     1       1.258   2.889  20.053  0.00  0.00    +0.000 C 
ATOM      5  C   UNL     1       1.312   2.063  18.758  0.00  0.00    +0.000 C 
ATOM      6  S   UNL     1       2.372   2.989  17.584  0.00  0.00    +0.000 S 
ATOM      7  C   UNL     1       2.348   4.391  18.589  0.00  0.00    +0.000 C 
ATOM      8  N   UNL     1       3.067   5.459  18.443  0.00  0.00    +0.000 NA
ENDROOT
BRANCH   1  13
ATOM      9 BR   UNL     1       0.212  11.800  18.835  0.00  0.00    +0.000 Br
ATOM     10  C   UNL     1       0.967  10.089  19.105  0.00  0.00    +0.000 A 
ATOM     11  C   UNL     1       1.643   9.460  18.062  0.00  0.00    +0.000 A 
ATOM     12  C   UNL     1       2.211   8.201  18.267  0.00  0.00    +0.000 A 
ATOM     13  C   UNL     1       2.107   7.557  19.513  0.00  0.00    +0.000 A 
ATOM     14  C   UNL     1       1.420   8.205  20.549  0.00  0.00    +0.000 A 
ATOM     15  C   UNL     1       0.852   9.466  20.347  0.00  0.00    +0.000 A 
ENDBRANCH   1  13
TORSDOF 1
ENDMDL
MODEL 8
REMARK VINA RESULT:      -6.0      4.082      5.664
REMARK  Name = 
REMARK  1 active torsions:
REMARK  status: ('A' for Active; 'I' for Inactive)
REMARK    1  A    between atoms: C_5  and  C_6
REMARK                            x       y       z     vdW  Elec       q    Type
REMARK                         _______ _______ _______ _____ _____    ______ ____
ROOT
ATOM      1  C   UNL     1       3.456   6.093  18.162  0.00  0.00    +0.000 C 
ATOM      2  C   UNL     1       4.342   5.406  19.249  0.00  0.00    +0.000 C 
ATOM      3  N   UNL     1       3.744   4.092  19.310  0.00  0.00    +0.000 N 
ATOM      4  C   UNL     1       4.473   2.906  19.700  0.00  0.00    +0.000 C 
ATOM      5  C   UNL     1       3.651   1.705  19.205  0.00  0.00    +0.000 C 
ATOM      6  S   UNL     1       2.619   2.306  17.816  0.00  0.00    +0.000 S 
ATOM      7  C   UNL     1       2.988   3.950  18.188  0.00  0.00    +0.000 C 
ATOM      8  N   UNL     1       2.699   4.989  17.467  0.00  0.00    +0.000 NA
ENDROOT
BRANCH   1  13
ATOM      9 BR   UNL     1       0.052  10.729  20.508  0.00  0.00    +0.000 Br
ATOM     10  C   UNL     1       1.062   9.298  19.796  0.00  0.00    +0.000 A 
ATOM     11  C   UNL     1       1.467   9.335  18.464  0.00  0.00    +0.000 A 
ATOM     12  C   UNL     1       2.224   8.283  17.942  0.00  0.00    +0.000 A 
ATOM     13  C   UNL     1       2.580   7.185  18.745  0.00  0.00    +0.000 A 
ATOM     14  C   UNL     1       2.159   7.165  20.082  0.00  0.00    +0.000 A 
ATOM     15  C   UNL     1       1.403   8.218  20.607  0.00  0.00    +0.000 A 
ENDBRANCH   1  13
TORSDOF 1
ENDMDL
MODEL 9
REMARK VINA RESULT:      -6.0      2.398      2.920
REMARK  Name = 
REMARK  1 active torsions:
REMARK  status: ('A' for Active; 'I' for Inactive)
REMARK    1  A    between atoms: C_5  and  C_6
REMARK                            x       y       z     vdW  Elec       q    Type
REMARK                         _______ _______ _______ _____ _____    ______ ____
ROOT
ATOM      1  C   UNL     1       4.284   3.776  18.289  0.00  0.00    +0.000 C 
ATOM      2  C   UNL     1       4.548   2.946  19.585  0.00  0.00    +0.000 C 
ATOM      3  N   UNL     1       3.353   3.227  20.347  0.00  0.00    +0.000 N 
ATOM      4  C   UNL     1       2.809   2.317  21.330  0.00  0.00    +0.000 C 
ATOM      5  C   UNL     1       1.350   2.747  21.563  0.00  0.00    +0.000 C 
ATOM      6  S   UNL     1       0.818   3.648  20.059  0.00  0.00    +0.000 S 
ATOM      7  C   UNL     1       2.440   3.735  19.476  0.00  0.00    +0.000 C 
ATOM      8  N   UNL     1       2.818   4.134  18.302  0.00  0.00    +0.000 NA
ENDROOT
BRANCH   1  13
ATOM      9 BR   UNL     1       8.147   8.586  17.562  0.00  0.00    +0.000 Br
ATOM     10  C   UNL     1       6.964   7.133  17.813  0.00  0.00    +0.000 A 
ATOM     11  C   UNL     1       5.779   7.073  17.084  0.00  0.00    +0.000 A 
ATOM     12  C   UNL     1       4.912   5.993  17.261  0.00  0.00    +0.000 A 
ATOM     13  C   UNL     1       5.219   4.964  18.170  0.00  0.00    +0.000 A 
ATOM     14  C   UNL     1       6.414   5.045  18.898  0.00  0.00    +0.000 A 
ATOM     15  C   UNL     1       7.284   6.125  18.721  0.00  0.00    +0.000 A 
ENDBRANCH   1  13
TORSDOF 1
ENDMDL
