MODEL 1
REMARK VINA RESULT:      -8.0      0.000      0.000
REMARK  Name = 
REMARK  8 active torsions:
REMARK  status: ('A' for Active; 'I' for Inactive)
REMARK    1  A    between atoms: C_1  and  O_2
REMARK    2  A    between atoms: O_2  and  C_3
REMARK    3  A    between atoms: C_5  and  C_6
REMARK    4  A    between atoms: C_6  and  N_7
REMARK    5  A    between atoms: N_7  and  C_8
REMARK    6  A    between atoms: C_14  and  C_15
REMARK    7  A    between atoms: C_22  and  O_23
REMARK    8  A    between atoms: O_23  and  C_24
REMARK                            x       y       z     vdW  Elec       q    Type
REMARK                         _______ _______ _______ _____ _____    ______ ____
ROOT
ATOM      1  C   UNL     1       2.897   5.442  20.015  0.00  0.00    +0.000 A 
ATOM      2  C   UNL     1       2.075   4.355  20.418  0.00  0.00    +0.000 A 
ATOM      3  C   UNL     1       2.453   3.016  20.286  0.00  0.00    +0.000 A 
ATOM      4  C   UNL     1       3.679   2.677  19.727  0.00  0.00    +0.000 A 
ATOM      5  C   UNL     1       4.490   3.736  19.324  0.00  0.00    +0.000 A 
ATOM      6  N   UNL     1       5.737   3.718  18.760  0.00  0.00    +0.000 N 
ATOM      7  C   UNL     1       6.154   5.016  18.581  0.00  0.00    +0.000 A 
ATOM      8  N   UNL     1       5.206   5.862  18.960  0.00  0.00    +0.000 NA
ATOM      9  C   UNL     1       4.153   5.087  19.442  0.00  0.00    +0.000 A 
ATOM     10  H   UNL     1       6.279   2.896  18.544  0.00  0.00    +0.000 HD
ENDROOT
BRANCH   7  11
ATOM     11  C   UNL     1       7.528   5.252  18.040  0.00  0.00    +0.000 C 
ATOM     12  F   UNL     1       8.286   5.950  18.941  0.00  0.00    +0.000 F 
ATOM     13  F   UNL     1       8.206   4.105  17.789  0.00  0.00    +0.000 F 
ATOM     14  F   UNL     1       7.529   5.989  16.900  0.00  0.00    +0.000 F 
ENDBRANCH   7  11
BRANCH   1  15
ATOM     15  N   UNL     1       2.316   6.721  20.215  0.00  0.00    +0.000 N 
ATOM     16  H   UNL     1       2.705   7.150  21.052  0.00  0.00    +0.000 HD
BRANCH  15  17
ATOM     17  C   UNL     1       2.223   7.684  19.126  0.00  0.00    +0.000 C 
BRANCH  17  20
ATOM     18  C   UNL     1      -0.316  10.570  18.966  0.00  0.00    +0.000 A 
ATOM     19  C   UNL     1       0.565   9.545  18.592  0.00  0.00    +0.000 A 
ATOM     20  C   UNL     1       1.301   8.828  19.550  0.00  0.00    +0.000 A 
ATOM     21  C   UNL     1       1.141   9.185  20.901  0.00  0.00    +0.000 A 
ATOM     22  C   UNL     1       0.260  10.207  21.288  0.00  0.00    +0.000 A 
ATOM     23  C   UNL     1      -0.464  10.900  20.315  0.00  0.00    +0.000 A 
BRANCH  18  25
ATOM     24  C   UNL     1      -2.082  10.454  17.367  0.00  0.00    +0.000 C 
ATOM     25  O   UNL     1      -0.983  11.166  17.927  0.00  0.00    +0.000 OA
ENDBRANCH  18  25
BRANCH  22  26
ATOM     26  O   UNL     1       0.177  10.433  22.639  0.00  0.00    +0.000 OA
ATOM     27  C   UNL     1      -1.117  10.694  23.178  0.00  0.00    +0.000 C 
ENDBRANCH  22  26
ENDBRANCH  17  20
ENDBRANCH  15  17
ENDBRANCH   1  15
TORSDOF 6
ENDMDL
MODEL 2
REMARK VINA RESULT:      -8.0      1.147      1.562
REMARK  Name = 
REMARK  8 active torsions:
REMARK  status: ('A' for Active; 'I' for Inactive)
REMARK    1  A    between atoms: C_1  and  O_2
REMARK    2  A    between atoms: O_2  and  C_3
REMARK    3  A    between atoms: C_5  and  C_6
REMARK    4  A    between atoms: C_6  and  N_7
REMARK    5  A    between atoms: N_7  and  C_8
REMARK    6  A    between atoms: C_14  and  C_15
REMARK    7  A    between atoms: C_22  and  O_23
REMARK    8  A    between atoms: O_23  and  C_24
REMARK                            x       y       z     vdW  Elec       q    Type
REMARK                         _______ _______ _______ _____ _____    ______ ____
ROOT
ATOM      1  C   UNL     1       2.901   5.519  19.947  0.00  0.00    +0.000 A 
ATOM      2  C   UNL     1       2.144   4.446  20.492  0.00  0.00    +0.000 A 
ATOM      3  C   UNL     1       2.565   3.115  20.460  0.00  0.00    +0.000 A 
ATOM      4  C   UNL     1       3.772   2.767  19.865  0.00  0.00    +0.000 A 
ATOM      5  C   UNL     1       4.519   3.811  19.323  0.00  0.00    +0.000 A 
ATOM      6  N   UNL     1       5.734   3.782  18.694  0.00  0.00    +0.000 N 
ATOM      7  C   UNL     1       6.091   5.071  18.376  0.00  0.00    +0.000 A 
ATOM      8  N   UNL     1       5.133   5.916  18.730  0.00  0.00    +0.000 NA
ATOM      9  C   UNL     1       4.137   5.154  19.339  0.00  0.00    +0.000 A 
ATOM     10  H   UNL     1       6.295   2.963  18.523  0.00  0.00    +0.000 HD
ENDROOT
BRANCH   7  11
ATOM     11  C   UNL     1       7.424   5.303  17.740  0.00  0.00    +0.000 C 
ATOM     12  F   UNL     1       7.281   5.571  16.405  0.00  0.00    +0.000 F 
ATOM     13  F   UNL     1       8.089   6.361  18.266  0.00  0.00    +0.000 F 
ATOM     14  F   UNL     1       8.243   4.223  17.819  0.00  0.00    +0.000 F 
ENDBRANCH   7  11
BRANCH   1  15
ATOM     15  N   UNL     1       2.283   6.790  20.063  0.00  0.00    +0.000 N 
ATOM     16  H   UNL     1       1.975   7.110  19.148  0.00  0.00    +0.000 HD
BRANCH  15  17
ATOM     17  C   UNL     1       1.268   7.045  21.077  0.00  0.00    +0.000 C 
BRANCH  17  20
ATOM     18  C   UNL     1       0.686  10.631  19.811  0.00  0.00    +0.000 A 
ATOM     19  C   UNL     1       1.066   9.283  19.873  0.00  0.00    +0.000 A 
ATOM     20  C   UNL     1       0.888   8.526  21.042  0.00  0.00    +0.000 A 
ATOM     21  C   UNL     1       0.331   9.170  22.162  0.00  0.00    +0.000 A 
ATOM     22  C   UNL     1      -0.056  10.518  22.112  0.00  0.00    +0.000 A 
ATOM     23  C   UNL     1       0.127  11.246  20.934  0.00  0.00    +0.000 A 
BRANCH  18  25
ATOM     24  C   UNL     1       2.128  11.931  18.427  0.00  0.00    +0.000 C 
ATOM     25  O   UNL     1       0.898  11.237  18.600  0.00  0.00    +0.000 OA
ENDBRANCH  18  25
BRANCH  22  26
ATOM     26  O   UNL     1      -0.612  11.014  23.264  0.00  0.00    +0.000 OA
ATOM     27  C   UNL     1      -1.841  11.728  23.140  0.00  0.00    +0.000 C 
ENDBRANCH  22  26
ENDBRANCH  17  20
ENDBRANCH  15  17
ENDBRANCH   1  15
TORSDOF 6
ENDMDL
MODEL 3
REMARK VINA RESULT:      -7.9      1.169      2.517
REMARK  Name = 
REMARK  8 active torsions:
REMARK  status: ('A' for Active; 'I' for Inactive)
REMARK    1  A    between atoms: C_1  and  O_2
REMARK    2  A    between atoms: O_2  and  C_3
REMARK    3  A    between atoms: C_5  and  C_6
REMARK    4  A    between atoms: C_6  and  N_7
REMARK    5  A    between atoms: N_7  and  C_8
REMARK    6  A    between atoms: C_14  and  C_15
REMARK    7  A    between atoms: C_22  and  O_23
REMARK    8  A    between atoms: O_23  and  C_24
REMARK                            x       y       z     vdW  Elec       q    Type
REMARK                         _______ _______ _______ _____ _____    ______ ____
ROOT
ATOM      1  C   UNL     1       2.895   5.488  20.009  0.00  0.00    +0.000 A 
ATOM      2  C   UNL     1       2.132   4.403  20.521  0.00  0.00    +0.000 A 
ATOM      3  C   UNL     1       2.571   3.078  20.499  0.00  0.00    +0.000 A 
ATOM      4  C   UNL     1       3.804   2.748  19.947  0.00  0.00    +0.000 A 
ATOM      5  C   UNL     1       4.556   3.804  19.437  0.00  0.00    +0.000 A 
ATOM      6  N   UNL     1       5.794   3.794  18.853  0.00  0.00    +0.000 N 
ATOM      7  C   UNL     1       6.145   5.089  18.553  0.00  0.00    +0.000 A 
ATOM      8  N   UNL     1       5.164   5.920  18.875  0.00  0.00    +0.000 NA
ATOM      9  C   UNL     1       4.157   5.142  19.444  0.00  0.00    +0.000 A 
ATOM     10  H   UNL     1       6.372   2.982  18.698  0.00  0.00    +0.000 HD
ENDROOT
BRANCH   7  11
ATOM     11  C   UNL     1       7.498   5.340  17.967  0.00  0.00    +0.000 C 
ATOM     12  F   UNL     1       8.160   4.160  17.760  0.00  0.00    +0.000 F 
ATOM     13  F   UNL     1       7.450   5.959  16.761  0.00  0.00    +0.000 F 
ATOM     14  F   UNL     1       8.296   6.080  18.777  0.00  0.00    +0.000 F 
ENDBRANCH   7  11
BRANCH   1  15
ATOM     15  N   UNL     1       2.256   6.751  20.108  0.00  0.00    +0.000 N 
ATOM     16  H   UNL     1       1.940   7.051  19.188  0.00  0.00    +0.000 HD
BRANCH  15  17
ATOM     17  C   UNL     1       1.242   7.005  21.121  0.00  0.00    +0.000 C 
BRANCH  17  20
ATOM     18  C   UNL     1      -0.148  10.449  22.128  0.00  0.00    +0.000 A 
ATOM     19  C   UNL     1       0.200   9.091  22.153  0.00  0.00    +0.000 A 
ATOM     20  C   UNL     1       0.830   8.477  21.058  0.00  0.00    +0.000 A 
ATOM     21  C   UNL     1       1.085   9.266  19.921  0.00  0.00    +0.000 A 
ATOM     22  C   UNL     1       0.745  10.627  19.885  0.00  0.00    +0.000 A 
ATOM     23  C   UNL     1       0.124  11.213  20.991  0.00  0.00    +0.000 A 
BRANCH  18  25
ATOM     24  C   UNL     1      -1.826  11.819  23.125  0.00  0.00    +0.000 C 
ATOM     25  O   UNL     1      -0.735  10.916  23.275  0.00  0.00    +0.000 OA
ENDBRANCH  18  25
BRANCH  22  26
ATOM     26  O   UNL     1       1.076  11.286  18.728  0.00  0.00    +0.000 OA
ATOM     27  C   UNL     1       1.101  12.711  18.776  0.00  0.00    +0.000 C 
ENDBRANCH  22  26
ENDBRANCH  17  20
ENDBRANCH  15  17
ENDBRANCH   1  15
TORSDOF 6
ENDMDL
MODEL 4
REMARK VINA RESULT:      -7.9      3.631      5.880
REMARK  Name = 
REMARK  8 active torsions:
REMARK  status: ('A' for Active; 'I' for Inactive)
REMARK    1  A    between atoms: C_1  and  O_2
REMARK    2  A    between atoms: O_2  and  C_3
REMARK    3  A    between atoms: C_5  and  C_6
REMARK    4  A    between atoms: C_6  and  N_7
REMARK    5  A    between atoms: N_7  and  C_8
REMARK    6  A    between atoms: C_14  and  C_15
REMARK    7  A    between atoms: C_22  and  O_23
REMARK    8  A    between atoms: O_23  and  C_24
REMARK                            x       y       z     vdW  Elec       q    Type
REMARK                         _______ _______ _______ _____ _____    ______ ____
ROOT
ATOM      1  C   UNL     1       5.400   3.980  16.950  0.00  0.00    +0.000 A 
ATOM      2  C   UNL     1       5.883   4.815  17.994  0.00  0.00    +0.000 A 
ATOM      3  C   UNL     1       6.881   5.774  17.811  0.00  0.00    +0.000 A 
ATOM      4  C   UNL     1       7.473   5.952  16.566  0.00  0.00    +0.000 A 
ATOM      5  C   UNL     1       7.010   5.135  15.537  0.00  0.00    +0.000 A 
ATOM      6  N   UNL     1       7.384   5.087  14.221  0.00  0.00    +0.000 N 
ATOM      7  C   UNL     1       6.610   4.149  13.581  0.00  0.00    +0.000 A 
ATOM      8  N   UNL     1       5.791   3.561  14.441  0.00  0.00    +0.000 NA
ATOM      9  C   UNL     1       6.012   4.168  15.677  0.00  0.00    +0.000 A 
ATOM     10  H   UNL     1       8.084   5.665  13.781  0.00  0.00    +0.000 HD
ENDROOT
BRANCH   7  11
ATOM     11  C   UNL     1       6.788   3.967  12.107  0.00  0.00    +0.000 C 
ATOM     12  F   UNL     1       7.474   2.813  11.844  0.00  0.00    +0.000 F 
ATOM     13  F   UNL     1       5.614   3.865  11.437  0.00  0.00    +0.000 F 
ATOM     14  F   UNL     1       7.503   4.968  11.533  0.00  0.00    +0.000 F 
ENDBRANCH   7  11
BRANCH   1  15
ATOM     15  N   UNL     1       4.401   3.057  17.353  0.00  0.00    +0.000 N 
ATOM     16  H   UNL     1       4.645   2.656  18.256  0.00  0.00    +0.000 HD
BRANCH  15  17
ATOM     17  C   UNL     1       2.988   3.404  17.298  0.00  0.00    +0.000 C 
BRANCH  17  20
ATOM     18  C   UNL     1       2.203   4.272  20.963  0.00  0.00    +0.000 A 
ATOM     19  C   UNL     1       2.501   3.555  19.795  0.00  0.00    +0.000 A 
ATOM     20  C   UNL     1       2.618   4.197  18.552  0.00  0.00    +0.000 A 
ATOM     21  C   UNL     1       2.407   5.588  18.510  0.00  0.00    +0.000 A 
ATOM     22  C   UNL     1       2.111   6.317  19.672  0.00  0.00    +0.000 A 
ATOM     23  C   UNL     1       2.006   5.653  20.896  0.00  0.00    +0.000 A 
BRANCH  18  25
ATOM     24  C   UNL     1       1.379   2.317  22.052  0.00  0.00    +0.000 C 
ATOM     25  O   UNL     1       2.143   3.517  22.106  0.00  0.00    +0.000 OA
ENDBRANCH  18  25
BRANCH  22  26
ATOM     26  O   UNL     1       1.958   7.669  19.496  0.00  0.00    +0.000 OA
ATOM     27  C   UNL     1       1.455   8.417  20.600  0.00  0.00    +0.000 C 
ENDBRANCH  22  26
ENDBRANCH  17  20
ENDBRANCH  15  17
ENDBRANCH   1  15
TORSDOF 6
ENDMDL
MODEL 5
REMARK VINA RESULT:      -7.9      1.575      2.685
REMARK  Name = 
REMARK  8 active torsions:
REMARK  status: ('A' for Active; 'I' for Inactive)
REMARK    1  A    between atoms: C_1  and  O_2
REMARK    2  A    between atoms: O_2  and  C_3
REMARK    3  A    between atoms: C_5  and  C_6
REMARK    4  A    between atoms: C_6  and  N_7
REMARK    5  A    between atoms: N_7  and  C_8
REMARK    6  A    between atoms: C_14  and  C_15
REMARK    7  A    between atoms: C_22  and  O_23
REMARK    8  A    between atoms: O_23  and  C_24
REMARK                            x       y       z     vdW  Elec       q    Type
REMARK                         _______ _______ _______ _____ _____    ______ ____
ROOT
ATOM      1  C   UNL     1       2.806   5.427  19.224  0.00  0.00    +0.000 A 
ATOM      2  C   UNL     1       1.645   4.615  19.111  0.00  0.00    +0.000 A 
ATOM      3  C   UNL     1       1.570   3.494  18.281  0.00  0.00    +0.000 A 
ATOM      4  C   UNL     1       2.654   3.119  17.496  0.00  0.00    +0.000 A 
ATOM      5  C   UNL     1       3.795   3.912  17.596  0.00  0.00    +0.000 A 
ATOM      6  N   UNL     1       5.004   3.789  16.966  0.00  0.00    +0.000 N 
ATOM      7  C   UNL     1       5.836   4.784  17.422  0.00  0.00    +0.000 A 
ATOM      8  N   UNL     1       5.195   5.567  18.278  0.00  0.00    +0.000 NA
ATOM      9  C   UNL     1       3.913   5.037  18.416  0.00  0.00    +0.000 A 
ATOM     10  H   UNL     1       5.261   3.071  16.307  0.00  0.00    +0.000 HD
ENDROOT
BRANCH   7  11
ATOM     11  C   UNL     1       7.248   4.812  16.928  0.00  0.00    +0.000 C 
ATOM     12  F   UNL     1       7.689   6.101  16.803  0.00  0.00    +0.000 F 
ATOM     13  F   UNL     1       8.118   4.197  17.766  0.00  0.00    +0.000 F 
ATOM     14  F   UNL     1       7.390   4.248  15.701  0.00  0.00    +0.000 F 
ENDBRANCH   7  11
BRANCH   1  15
ATOM     15  N   UNL     1       2.665   6.530  20.104  0.00  0.00    +0.000 N 
ATOM     16  H   UNL     1       2.943   7.388  19.631  0.00  0.00    +0.000 HD
BRANCH  15  17
ATOM     17  C   UNL     1       1.446   6.728  20.876  0.00  0.00    +0.000 C 
BRANCH  17  20
ATOM     18  C   UNL     1       0.220  10.189  22.024  0.00  0.00    +0.000 A 
ATOM     19  C   UNL     1       0.521   8.820  22.001  0.00  0.00    +0.000 A 
ATOM     20  C   UNL     1       1.084   8.214  20.866  0.00  0.00    +0.000 A 
ATOM     21  C   UNL     1       1.320   9.023  19.740  0.00  0.00    +0.000 A 
ATOM     22  C   UNL     1       1.027  10.396  19.752  0.00  0.00    +0.000 A 
ATOM     23  C   UNL     1       0.472  10.973  20.897  0.00  0.00    +0.000 A 
BRANCH  18  25
ATOM     24  C   UNL     1      -1.552  11.328  23.143  0.00  0.00    +0.000 C 
ATOM     25  O   UNL     1      -0.303  10.646  23.206  0.00  0.00    +0.000 OA
ENDBRANCH  18  25
BRANCH  22  26
ATOM     26  O   UNL     1       1.333  11.074  18.599  0.00  0.00    +0.000 OA
ATOM     27  C   UNL     1       1.241  12.496  18.636  0.00  0.00    +0.000 C 
ENDBRANCH  22  26
ENDBRANCH  17  20
ENDBRANCH  15  17
ENDBRANCH   1  15
TORSDOF 6
ENDMDL
MODEL 6
REMARK VINA RESULT:      -7.9      0.675      2.553
REMARK  Name = 
REMARK  8 active torsions:
REMARK  status: ('A' for Active; 'I' for Inactive)
REMARK    1  A    between atoms: C_1  and  O_2
REMARK    2  A    between atoms: O_2  and  C_3
REMARK    3  A    between atoms: C_5  and  C_6
REMARK    4  A    between atoms: C_6  and  N_7
REMARK    5  A    between atoms: N_7  and  C_8
REMARK    6  A    between atoms: C_14  and  C_15
REMARK    7  A    between atoms: C_22  and  O_23
REMARK    8  A    between atoms: O_23  and  C_24
REMARK                            x       y       z     vdW  Elec       q    Type
REMARK                         _______ _______ _______ _____ _____    ______ ____
ROOT
ATOM      1  C   UNL     1       2.940   5.783  19.762  0.00  0.00    +0.000 A 
ATOM      2  C   UNL     1       2.065   4.854  20.387  0.00  0.00    +0.000 A 
ATOM      3  C   UNL     1       2.245   3.470  20.330  0.00  0.00    +0.000 A 
ATOM      4  C   UNL     1       3.312   2.923  19.627  0.00  0.00    +0.000 A 
ATOM      5  C   UNL     1       4.173   3.825  19.006  0.00  0.00    +0.000 A 
ATOM      6  N   UNL     1       5.300   3.590  18.265  0.00  0.00    +0.000 N 
ATOM      7  C   UNL     1       5.841   4.800  17.901  0.00  0.00    +0.000 A 
ATOM      8  N   UNL     1       5.082   5.796  18.335  0.00  0.00    +0.000 NA
ATOM      9  C   UNL     1       4.032   5.214  19.043  0.00  0.00    +0.000 A 
ATOM     10  H   UNL     1       5.692   2.687  18.050  0.00  0.00    +0.000 HD
ENDROOT
BRANCH   7  11
ATOM     11  C   UNL     1       7.129   4.801  17.139  0.00  0.00    +0.000 C 
ATOM     12  F   UNL     1       7.501   6.080  16.825  0.00  0.00    +0.000 F 
ATOM     13  F   UNL     1       8.162   4.272  17.839  0.00  0.00    +0.000 F 
ATOM     14  F   UNL     1       7.046   4.135  15.960  0.00  0.00    +0.000 F 
ENDBRANCH   7  11
BRANCH   1  15
ATOM     15  N   UNL     1       2.565   7.141  19.922  0.00  0.00    +0.000 N 
ATOM     16  H   UNL     1       3.232   7.615  20.528  0.00  0.00    +0.000 HD
BRANCH  15  17
ATOM     17  C   UNL     1       2.219   7.968  18.774  0.00  0.00    +0.000 C 
BRANCH  17  20
ATOM     18  C   UNL     1       0.193  10.419  20.940  0.00  0.00    +0.000 A 
ATOM     19  C   UNL     1       1.109   9.437  20.538  0.00  0.00    +0.000 A 
ATOM     20  C   UNL     1       1.183   9.009  19.202  0.00  0.00    +0.000 A 
ATOM     21  C   UNL     1       0.292   9.585  18.279  0.00  0.00    +0.000 A 
ATOM     22  C   UNL     1      -0.627  10.572  18.668  0.00  0.00    +0.000 A 
ATOM     23  C   UNL     1      -0.675  10.983  20.002  0.00  0.00    +0.000 A 
BRANCH  18  25
ATOM     24  C   UNL     1      -0.751  10.204  23.119  0.00  0.00    +0.000 C 
ATOM     25  O   UNL     1       0.249  10.753  22.268  0.00  0.00    +0.000 OA
ENDBRANCH  18  25
BRANCH  22  26
ATOM     26  O   UNL     1      -1.416  11.071  17.663  0.00  0.00    +0.000 OA
ATOM     27  C   UNL     1      -2.100  10.127  16.842  0.00  0.00    +0.000 C 
ENDBRANCH  22  26
ENDBRANCH  17  20
ENDBRANCH  15  17
ENDBRANCH   1  15
TORSDOF 6
ENDMDL
MODEL 7
REMARK VINA RESULT:      -7.9      1.042      1.134
REMARK  Name = 
REMARK  8 active torsions:
REMARK  status: ('A' for Active; 'I' for Inactive)
REMARK    1  A    between atoms: C_1  and  O_2
REMARK    2  A    between atoms: O_2  and  C_3
REMARK    3  A    between atoms: C_5  and  C_6
REMARK    4  A    between atoms: C_6  and  N_7
REMARK    5  A    between atoms: N_7  and  C_8
REMARK    6  A    between atoms: C_14  and  C_15
REMARK    7  A    between atoms: C_22  and  O_23
REMARK    8  A    between atoms: O_23  and  C_24
REMARK                            x       y       z     vdW  Elec       q    Type
REMARK                         _______ _______ _______ _____ _____    ______ ____
ROOT
ATOM      1  C   UNL     1       2.935   5.287  20.240  0.00  0.00    +0.000 A 
ATOM      2  C   UNL     1       2.183   4.256  20.866  0.00  0.00    +0.000 A 
ATOM      3  C   UNL     1       2.521   2.903  20.788  0.00  0.00    +0.000 A 
ATOM      4  C   UNL     1       3.632   2.490  20.062  0.00  0.00    +0.000 A 
ATOM      5  C   UNL     1       4.373   3.493  19.441  0.00  0.00    +0.000 A 
ATOM      6  N   UNL     1       5.507   3.399  18.680  0.00  0.00    +0.000 N 
ATOM      7  C   UNL     1       5.900   4.668  18.324  0.00  0.00    +0.000 A 
ATOM      8  N   UNL     1       5.038   5.564  18.782  0.00  0.00    +0.000 NA
ATOM      9  C   UNL     1       4.073   4.856  19.498  0.00  0.00    +0.000 A 
ATOM     10  H   UNL     1       5.998   2.550  18.447  0.00  0.00    +0.000 HD
ENDROOT
BRANCH   7  11
ATOM     11  C   UNL     1       7.166   4.826  17.544  0.00  0.00    +0.000 C 
ATOM     12  F   UNL     1       7.442   6.151  17.337  0.00  0.00    +0.000 F 
ATOM     13  F   UNL     1       8.249   4.313  18.176  0.00  0.00    +0.000 F 
ATOM     14  F   UNL     1       7.102   4.261  16.311  0.00  0.00    +0.000 F 
ENDBRANCH   7  11
BRANCH   1  15
ATOM     15  N   UNL     1       2.409   6.591  20.425  0.00  0.00    +0.000 N 
ATOM     16  H   UNL     1       2.988   7.108  21.082  0.00  0.00    +0.000 HD
BRANCH  15  17
ATOM     17  C   UNL     1       2.036   7.421  19.287  0.00  0.00    +0.000 C 
BRANCH  17  20
ATOM     18  C   UNL     1       0.839  11.076  19.361  0.00  0.00    +0.000 A 
ATOM     19  C   UNL     1       1.349   9.848  18.918  0.00  0.00    +0.000 A 
ATOM     20  C   UNL     1       1.521   8.767  19.798  0.00  0.00    +0.000 A 
ATOM     21  C   UNL     1       1.182   8.962  21.150  0.00  0.00    +0.000 A 
ATOM     22  C   UNL     1       0.668  10.186  21.605  0.00  0.00    +0.000 A 
ATOM     23  C   UNL     1       0.502  11.242  20.706  0.00  0.00    +0.000 A 
BRANCH  18  25
ATOM     24  C   UNL     1       0.090  13.260  18.762  0.00  0.00    +0.000 C 
ATOM     25  O   UNL     1       0.705  12.032  18.387  0.00  0.00    +0.000 OA
ENDBRANCH  18  25
BRANCH  22  26
ATOM     26  O   UNL     1       0.351  10.232  22.939  0.00  0.00    +0.000 OA
ATOM     27  C   UNL     1      -1.030  10.334  23.278  0.00  0.00    +0.000 C 
ENDBRANCH  22  26
ENDBRANCH  17  20
ENDBRANCH  15  17
ENDBRANCH   1  15
TORSDOF 6
ENDMDL
MODEL 8
REMARK VINA RESULT:      -7.9      1.287      2.513
REMARK  Name = 
REMARK  8 active torsions:
REMARK  status: ('A' for Active; 'I' for Inactive)
REMARK    1  A    between atoms: C_1  and  O_2
REMARK    2  A    between atoms: O_2  and  C_3
REMARK    3  A    between atoms: C_5  and  C_6
REMARK    4  A    between atoms: C_6  and  N_7
REMARK    5  A    between atoms: N_7  and  C_8
REMARK    6  A    between atoms: C_14  and  C_15
REMARK    7  A    between atoms: C_22  and  O_23
REMARK    8  A    between atoms: O_23  and  C_24
REMARK                            x       y       z     vdW  Elec       q    Type
REMARK                         _______ _______ _______ _____ _____    ______ ____
ROOT
ATOM      1  C   UNL     1       2.977   5.311  20.107  0.00  0.00    +0.000 A 
ATOM      2  C   UNL     1       2.302   4.263  20.790  0.00  0.00    +0.000 A 
ATOM      3  C   UNL     1       2.739   2.937  20.784  0.00  0.00    +0.000 A 
ATOM      4  C   UNL     1       3.880   2.568  20.081  0.00  0.00    +0.000 A 
ATOM      5  C   UNL     1       4.546   3.588  19.404  0.00  0.00    +0.000 A 
ATOM      6  N   UNL     1       5.686   3.537  18.648  0.00  0.00    +0.000 N 
ATOM      7  C   UNL     1       5.984   4.809  18.222  0.00  0.00    +0.000 A 
ATOM      8  N   UNL     1       5.057   5.663  18.632  0.00  0.00    +0.000 NA
ATOM      9  C   UNL     1       4.146   4.926  19.387  0.00  0.00    +0.000 A 
ATOM     10  H   UNL     1       6.238   2.714  18.461  0.00  0.00    +0.000 HD
ENDROOT
BRANCH   7  11
ATOM     11  C   UNL     1       7.237   5.018  17.432  0.00  0.00    +0.000 C 
ATOM     12  F   UNL     1       7.707   6.292  17.604  0.00  0.00    +0.000 F 
ATOM     13  F   UNL     1       8.245   4.193  17.804  0.00  0.00    +0.000 F 
ATOM     14  F   UNL     1       7.052   4.864  16.096  0.00  0.00    +0.000 F 
ENDBRANCH   7  11
BRANCH   1  15
ATOM     15  N   UNL     1       2.355   6.581  20.220  0.00  0.00    +0.000 N 
ATOM     16  H   UNL     1       2.146   6.948  19.294  0.00  0.00    +0.000 HD
BRANCH  15  17
ATOM     17  C   UNL     1       1.241   6.795  21.133  0.00  0.00    +0.000 C 
BRANCH  17  20
ATOM     18  C   UNL     1      -0.300  10.187  22.093  0.00  0.00    +0.000 A 
ATOM     19  C   UNL     1       0.058   8.831  22.109  0.00  0.00    +0.000 A 
ATOM     20  C   UNL     1       0.823   8.265  21.077  0.00  0.00    +0.000 A 
ATOM     21  C   UNL     1       1.206   9.100  20.011  0.00  0.00    +0.000 A 
ATOM     22  C   UNL     1       0.858  10.459  19.986  0.00  0.00    +0.000 A 
ATOM     23  C   UNL     1       0.100  10.997  21.029  0.00  0.00    +0.000 A 
BRANCH  18  25
ATOM     24  C   UNL     1      -1.661  11.877  23.083  0.00  0.00    +0.000 C 
ATOM     25  O   UNL     1      -1.028  10.605  23.177  0.00  0.00    +0.000 OA
ENDBRANCH  18  25
BRANCH  22  26
ATOM     26  O   UNL     1       1.320  11.165  18.904  0.00  0.00    +0.000 OA
ATOM     27  C   UNL     1       2.030  10.436  17.905  0.00  0.00    +0.000 C 
ENDBRANCH  22  26
ENDBRANCH  17  20
ENDBRANCH  15  17
ENDBRANCH   1  15
TORSDOF 6
ENDMDL
MODEL 9
REMARK VINA RESULT:      -7.8      3.863      5.697
REMARK  Name = 
REMARK  8 active torsions:
REMARK  status: ('A' for Active; 'I' for Inactive)
REMARK    1  A    between atoms: C_1  and  O_2
REMARK    2  A    between atoms: O_2  and  C_3
REMARK    3  A    between atoms: C_5  and  C_6
REMARK    4  A    between atoms: C_6  and  N_7
REMARK    5  A    between atoms: N_7  and  C_8
REMARK    6  A    between atoms: C_14  and  C_15
REMARK    7  A    between atoms: C_22  and  O_23
REMARK    8  A    between atoms: O_23  and  C_24
REMARK                            x       y       z     vdW  Elec       q    Type
REMARK                         _______ _______ _______ _____ _____    ______ ____
ROOT
ATOM      1  C   UNL     1       5.384   3.960  16.864  0.00  0.00    +0.000 A 
ATOM      2  C   UNL     1       5.886   4.767  17.921  0.00  0.00    +0.000 A 
ATOM      3  C   UNL     1       6.915   5.697  17.756  0.00  0.00    +0.000 A 
ATOM      4  C   UNL     1       7.521   5.871  16.518  0.00  0.00    +0.000 A 
ATOM      5  C   UNL     1       7.040   5.081  15.476  0.00  0.00    +0.000 A 
ATOM      6  N   UNL     1       7.423   5.037  14.162  0.00  0.00    +0.000 N 
ATOM      7  C   UNL     1       6.624   4.132  13.506  0.00  0.00    +0.000 A 
ATOM      8  N   UNL     1       5.781   3.559  14.353  0.00  0.00    +0.000 NA
ATOM      9  C   UNL     1       6.011   4.144  15.597  0.00  0.00    +0.000 A 
ATOM     10  H   UNL     1       8.143   5.598  13.734  0.00  0.00    +0.000 HD
ENDROOT
BRANCH   7  11
ATOM     11  C   UNL     1       6.807   3.961  12.031  0.00  0.00    +0.000 C 
ATOM     12  F   UNL     1       5.595   3.882  11.401  0.00  0.00    +0.000 F 
ATOM     13  F   UNL     1       7.463   4.998  11.453  0.00  0.00    +0.000 F 
ATOM     14  F   UNL     1       7.472   2.823  11.708  0.00  0.00    +0.000 F 
ENDBRANCH   7  11
BRANCH   1  15
ATOM     15  N   UNL     1       4.354   3.064  17.248  0.00  0.00    +0.000 N 
ATOM     16  H   UNL     1       4.565   2.666  18.161  0.00  0.00    +0.000 HD
BRANCH  15  17
ATOM     17  C   UNL     1       2.951   3.444  17.153  0.00  0.00    +0.000 C 
BRANCH  17  20
ATOM     18  C   UNL     1       2.131   6.410  19.462  0.00  0.00    +0.000 A 
ATOM     19  C   UNL     1       2.521   5.654  18.347  0.00  0.00    +0.000 A 
ATOM     20  C   UNL     1       2.567   4.252  18.393  0.00  0.00    +0.000 A 
ATOM     21  C   UNL     1       2.227   3.624  19.606  0.00  0.00    +0.000 A 
ATOM     22  C   UNL     1       1.832   4.369  20.728  0.00  0.00    +0.000 A 
ATOM     23  C   UNL     1       1.790   5.763  20.652  0.00  0.00    +0.000 A 
BRANCH  18  25
ATOM     24  C   UNL     1       2.444   8.237  17.962  0.00  0.00    +0.000 C 
ATOM     25  O   UNL     1       2.111   7.766  19.264  0.00  0.00    +0.000 OA
ENDBRANCH  18  25
BRANCH  22  26
ATOM     26  O   UNL     1       1.499   3.631  21.836  0.00  0.00    +0.000 OA
ATOM     27  C   UNL     1       1.948   2.278  21.877  0.00  0.00    +0.000 C 
ENDBRANCH  22  26
ENDBRANCH  17  20
ENDBRANCH  15  17
ENDBRANCH   1  15
TORSDOF 6
ENDMDL
