MODEL 1
REMARK VINA RESULT:      -7.1      0.000      0.000
REMARK  Name = 
REMARK  9 active torsions:
REMARK  status: ('A' for Active; 'I' for Inactive)
REMARK    1  A    between atoms: C_1  and  O_2
REMARK    2  A    between atoms: O_2  and  C_3
REMARK    3  A    between atoms: C_5  and  O_6
REMARK    4  A    between atoms: O_6  and  C_7
REMARK    5  A    between atoms: C_8  and  O_9
REMARK    6  A    between atoms: O_9  and  C_10
REMARK    7  A    between atoms: C_12  and  C_13
REMARK    8  A    between atoms: C_13  and  N_14
REMARK    9  A    between atoms: N_14  and  C_15
REMARK                            x       y       z     vdW  Elec       q    Type
REMARK                         _______ _______ _______ _____ _____    ______ ____
ROOT
ATOM      1  C   UNL     1       3.735   6.701  17.895  0.00  0.00    +0.000 A 
ATOM      2  C   UNL     1       5.033   7.084  17.538  0.00  0.00    +0.000 A 
ATOM      3  C   UNL     1       5.888   6.217  16.843  0.00  0.00    +0.000 A 
ATOM      4  C   UNL     1       5.463   4.919  16.528  0.00  0.00    +0.000 A 
ATOM      5  C   UNL     1       4.155   4.549  16.856  0.00  0.00    +0.000 A 
ATOM      6  C   UNL     1       3.276   5.425  17.530  0.00  0.00    +0.000 A 
ENDROOT
BRANCH   1   8
ATOM      7  C   UNL     1       2.368   8.643  17.848  0.00  0.00    +0.000 C 
ATOM      8  O   UNL     1       2.866   7.518  18.568  0.00  0.00    +0.000 OA
ENDBRANCH   1   8
BRANCH   3   9
ATOM      9  O   UNL     1       7.124   6.757  16.595  0.00  0.00    +0.000 OA
ATOM     10  C   UNL     1       7.680   7.537  17.647  0.00  0.00    +0.000 C 
ENDBRANCH   3   9
BRANCH   4  11
ATOM     11  O   UNL     1       6.367   4.076  15.933  0.00  0.00    +0.000 OA
ATOM     12  C   UNL     1       6.506   4.149  14.523  0.00  0.00    +0.000 C 
ENDBRANCH   4  11
BRANCH   6  13
ATOM     13  C   UNL     1       1.870   4.936  17.829  0.00  0.00    +0.000 C 
BRANCH  13  14
ATOM     14  N   UNL     1       1.725   3.523  17.457  0.00  0.00    +0.000 NA
ATOM     15  H   UNL     1       2.602   3.223  17.030  0.00  0.00    +0.000 HD
BRANCH  14  16
ATOM     16  C   UNL     1       1.364   2.616  18.563  0.00  0.00    +0.000 C 
ATOM     17  C   UNL     1       2.565   1.693  18.845  0.00  0.00    +0.000 C 
ATOM     18  C   UNL     1       3.732   2.351  19.583  0.00  0.00    +0.000 C 
ATOM     19  C   UNL     1       3.608   2.268  21.101  0.00  0.00    +0.000 C 
ATOM     20  C   UNL     1       2.455   3.059  21.711  0.00  0.00    +0.000 C 
ATOM     21  C   UNL     1       1.072   2.723  21.155  0.00  0.00    +0.000 C 
ATOM     22  C   UNL     1       0.829   3.372  19.793  0.00  0.00    +0.000 C 
ENDBRANCH  14  16
ENDBRANCH  13  14
ENDBRANCH   6  13
TORSDOF 6
ENDMDL
MODEL 2
REMARK VINA RESULT:      -7.0      1.434      1.845
REMARK  Name = 
REMARK  9 active torsions:
REMARK  status: ('A' for Active; 'I' for Inactive)
REMARK    1  A    between atoms: C_1  and  O_2
REMARK    2  A    between atoms: O_2  and  C_3
REMARK    3  A    between atoms: C_5  and  O_6
REMARK    4  A    between atoms: O_6  and  C_7
REMARK    5  A    between atoms: C_8  and  O_9
REMARK    6  A    between atoms: O_9  and  C_10
REMARK    7  A    between atoms: C_12  and  C_13
REMARK    8  A    between atoms: C_13  and  N_14
REMARK    9  A    between atoms: N_14  and  C_15
REMARK                            x       y       z     vdW  Elec       q    Type
REMARK                         _______ _______ _______ _____ _____    ______ ____
ROOT
ATOM      1  C   UNL     1       5.016   5.502  17.795  0.00  0.00    +0.000 A 
ATOM      2  C   UNL     1       6.054   6.434  17.671  0.00  0.00    +0.000 A 
ATOM      3  C   UNL     1       6.952   6.393  16.596  0.00  0.00    +0.000 A 
ATOM      4  C   UNL     1       6.847   5.377  15.636  0.00  0.00    +0.000 A 
ATOM      5  C   UNL     1       5.792   4.466  15.742  0.00  0.00    +0.000 A 
ATOM      6  C   UNL     1       4.864   4.516  16.805  0.00  0.00    +0.000 A 
ENDROOT
BRANCH   1   8
ATOM      7  C   UNL     1       3.130   6.540  18.798  0.00  0.00    +0.000 C 
ATOM      8  O   UNL     1       4.114   5.509  18.825  0.00  0.00    +0.000 OA
ENDBRANCH   1   8
BRANCH   3   9
ATOM      9  O   UNL     1       7.909   7.373  16.651  0.00  0.00    +0.000 OA
ATOM     10  C   UNL     1       7.828   8.255  17.764  0.00  0.00    +0.000 C 
ENDBRANCH   3   9
BRANCH   4  11
ATOM     11  O   UNL     1       7.806   5.322  14.656  0.00  0.00    +0.000 OA
ATOM     12  C   UNL     1       7.395   4.943  13.352  0.00  0.00    +0.000 C 
ENDBRANCH   4  11
BRANCH   6  13
ATOM     13  C   UNL     1       3.744   3.492  16.825  0.00  0.00    +0.000 C 
BRANCH  13  14
ATOM     14  N   UNL     1       4.011   2.455  17.830  0.00  0.00    +0.000 NA
ATOM     15  H   UNL     1       4.674   2.839  18.503  0.00  0.00    +0.000 HD
BRANCH  14  16
ATOM     16  C   UNL     1       2.819   1.938  18.531  0.00  0.00    +0.000 C 
ATOM     17  C   UNL     1       3.197   1.678  20.001  0.00  0.00    +0.000 C 
ATOM     18  C   UNL     1       3.333   2.930  20.869  0.00  0.00    +0.000 C 
ATOM     19  C   UNL     1       2.022   3.355  21.523  0.00  0.00    +0.000 C 
ATOM     20  C   UNL     1       0.936   3.838  20.566  0.00  0.00    +0.000 C 
ATOM     21  C   UNL     1       0.558   2.850  19.463  0.00  0.00    +0.000 C 
ATOM     22  C   UNL     1       1.584   2.836  18.330  0.00  0.00    +0.000 C 
ENDBRANCH  14  16
ENDBRANCH  13  14
ENDBRANCH   6  13
TORSDOF 6
ENDMDL
MODEL 3
REMARK VINA RESULT:      -6.6      1.067      3.300
REMARK  Name = 
REMARK  9 active torsions:
REMARK  status: ('A' for Active; 'I' for Inactive)
REMARK    1  A    between atoms: C_1  and  O_2
REMARK    2  A    between atoms: O_2  and  C_3
REMARK    3  A    between atoms: C_5  and  O_6
REMARK    4  A    between atoms: O_6  and  C_7
REMARK    5  A    between atoms: C_8  and  O_9
REMARK    6  A    between atoms: O_9  and  C_10
REMARK    7  A    between atoms: C_12  and  C_13
REMARK    8  A    between atoms: C_13  and  N_14
REMARK    9  A    between atoms: N_14  and  C_15
REMARK                            x       y       z     vdW  Elec       q    Type
REMARK                         _______ _______ _______ _____ _____    ______ ____
ROOT
ATOM      1  C   UNL     1       5.535   4.637  16.267  0.00  0.00    +0.000 A 
ATOM      2  C   UNL     1       6.211   5.856  16.401  0.00  0.00    +0.000 A 
ATOM      3  C   UNL     1       5.623   6.952  17.047  0.00  0.00    +0.000 A 
ATOM      4  C   UNL     1       4.314   6.855  17.538  0.00  0.00    +0.000 A 
ATOM      5  C   UNL     1       3.652   5.629  17.432  0.00  0.00    +0.000 A 
ATOM      6  C   UNL     1       4.246   4.509  16.810  0.00  0.00    +0.000 A 
ENDROOT
BRANCH   1   8
ATOM      7  C   UNL     1       6.257   3.634  14.239  0.00  0.00    +0.000 C 
ATOM      8  O   UNL     1       6.074   3.540  15.649  0.00  0.00    +0.000 OA
ENDBRANCH   1   8
BRANCH   3   9
ATOM      9  O   UNL     1       6.427   8.064  17.068  0.00  0.00    +0.000 OA
ATOM     10  C   UNL     1       7.735   7.872  17.592  0.00  0.00    +0.000 C 
ENDBRANCH   3   9
BRANCH   4  11
ATOM     11  O   UNL     1       3.748   7.983  18.076  0.00  0.00    +0.000 OA
ATOM     12  C   UNL     1       2.351   7.965  18.325  0.00  0.00    +0.000 C 
ENDBRANCH   4  11
BRANCH   6  13
ATOM     13  C   UNL     1       3.453   3.216  16.757  0.00  0.00    +0.000 C 
BRANCH  13  14
ATOM     14  N   UNL     1       3.953   2.262  17.754  0.00  0.00    +0.000 NA
ATOM     15  H   UNL     1       4.802   2.655  18.161  0.00  0.00    +0.000 HD
BRANCH  14  16
ATOM     16  C   UNL     1       2.997   1.909  18.822  0.00  0.00    +0.000 C 
ATOM     17  C   UNL     1       3.575   2.386  20.168  0.00  0.00    +0.000 C 
ATOM     18  C   UNL     1       3.500   3.895  20.410  0.00  0.00    +0.000 C 
ATOM     19  C   UNL     1       2.199   4.333  21.077  0.00  0.00    +0.000 C 
ATOM     20  C   UNL     1       0.937   4.157  20.238  0.00  0.00    +0.000 C 
ATOM     21  C   UNL     1       0.692   2.737  19.725  0.00  0.00    +0.000 C 
ATOM     22  C   UNL     1       1.571   2.404  18.520  0.00  0.00    +0.000 C 
ENDBRANCH  14  16
ENDBRANCH  13  14
ENDBRANCH   6  13
TORSDOF 6
ENDMDL
MODEL 4
REMARK VINA RESULT:      -6.5      1.582      2.349
REMARK  Name = 
REMARK  9 active torsions:
REMARK  status: ('A' for Active; 'I' for Inactive)
REMARK    1  A    between atoms: C_1  and  O_2
REMARK    2  A    between atoms: O_2  and  C_3
REMARK    3  A    between atoms: C_5  and  O_6
REMARK    4  A    between atoms: O_6  and  C_7
REMARK    5  A    between atoms: C_8  and  O_9
REMARK    6  A    between atoms: O_9  and  C_10
REMARK    7  A    between atoms: C_12  and  C_13
REMARK    8  A    between atoms: C_13  and  N_14
REMARK    9  A    between atoms: N_14  and  C_15
REMARK                            x       y       z     vdW  Elec       q    Type
REMARK                         _______ _______ _______ _____ _____    ______ ____
ROOT
ATOM      1  C   UNL     1       3.176   6.995  17.984  0.00  0.00    +0.000 A 
ATOM      2  C   UNL     1       4.193   6.937  17.022  0.00  0.00    +0.000 A 
ATOM      3  C   UNL     1       5.369   6.207  17.242  0.00  0.00    +0.000 A 
ATOM      4  C   UNL     1       5.565   5.549  18.464  0.00  0.00    +0.000 A 
ATOM      5  C   UNL     1       4.537   5.581  19.410  0.00  0.00    +0.000 A 
ATOM      6  C   UNL     1       3.336   6.289  19.187  0.00  0.00    +0.000 A 
ENDROOT
BRANCH   1   8
ATOM      7  C   UNL     1       2.108   9.112  17.854  0.00  0.00    +0.000 C 
ATOM      8  O   UNL     1       2.010   7.691  17.807  0.00  0.00    +0.000 OA
ENDBRANCH   1   8
BRANCH   3   9
ATOM      9  O   UNL     1       6.255   6.279  16.198  0.00  0.00    +0.000 OA
ATOM     10  C   UNL     1       6.143   5.253  15.219  0.00  0.00    +0.000 C 
ENDBRANCH   3   9
BRANCH   4  11
ATOM     11  O   UNL     1       6.772   4.929  18.669  0.00  0.00    +0.000 OA
ATOM     12  C   UNL     1       7.798   5.676  19.304  0.00  0.00    +0.000 C 
ENDBRANCH   4  11
BRANCH   6  13
ATOM     13  C   UNL     1       2.273   6.251  20.270  0.00  0.00    +0.000 C 
BRANCH  13  14
ATOM     14  N   UNL     1       1.121   5.451  19.835  0.00  0.00    +0.000 NA
ATOM     15  H   UNL     1       1.112   5.450  18.815  0.00  0.00    +0.000 HD
BRANCH  14  16
ATOM     16  C   UNL     1       1.092   4.066  20.343  0.00  0.00    +0.000 C 
ATOM     17  C   UNL     1       1.090   3.107  19.137  0.00  0.00    +0.000 C 
ATOM     18  C   UNL     1       2.434   2.961  18.421  0.00  0.00    +0.000 C 
ATOM     19  C   UNL     1       3.310   1.856  19.004  0.00  0.00    +0.000 C 
ATOM     20  C   UNL     1       3.815   2.097  20.424  0.00  0.00    +0.000 C 
ATOM     21  C   UNL     1       2.725   2.365  21.462  0.00  0.00    +0.000 C 
ATOM     22  C   UNL     1       2.197   3.797  21.381  0.00  0.00    +0.000 C 
ENDBRANCH  14  16
ENDBRANCH  13  14
ENDBRANCH   6  13
TORSDOF 6
ENDMDL
MODEL 5
REMARK VINA RESULT:      -6.4      2.353      4.749
REMARK  Name = 
REMARK  9 active torsions:
REMARK  status: ('A' for Active; 'I' for Inactive)
REMARK    1  A    between atoms: C_1  and  O_2
REMARK    2  A    between atoms: O_2  and  C_3
REMARK    3  A    between atoms: C_5  and  O_6
REMARK    4  A    between atoms: O_6  and  C_7
REMARK    5  A    between atoms: C_8  and  O_9
REMARK    6  A    between atoms: O_9  and  C_10
REMARK    7  A    between atoms: C_12  and  C_13
REMARK    8  A    between atoms: C_13  and  N_14
REMARK    9  A    between atoms: N_14  and  C_15
REMARK                            x       y       z     vdW  Elec       q    Type
REMARK                         _______ _______ _______ _____ _____    ______ ____
ROOT
ATOM      1  C   UNL     1       4.474   3.890  17.171  0.00  0.00    +0.000 A 
ATOM      2  C   UNL     1       5.246   3.915  16.003  0.00  0.00    +0.000 A 
ATOM      3  C   UNL     1       6.324   4.800  15.855  0.00  0.00    +0.000 A 
ATOM      4  C   UNL     1       6.621   5.715  16.874  0.00  0.00    +0.000 A 
ATOM      5  C   UNL     1       5.872   5.667  18.053  0.00  0.00    +0.000 A 
ATOM      6  C   UNL     1       4.803   4.759  18.224  0.00  0.00    +0.000 A 
ENDROOT
BRANCH   1   8
ATOM      7  C   UNL     1       3.701   1.821  18.043  0.00  0.00    +0.000 C 
ATOM      8  O   UNL     1       3.418   3.038  17.358  0.00  0.00    +0.000 OA
ENDBRANCH   1   8
BRANCH   3   9
ATOM      9  O   UNL     1       6.951   4.693  14.640  0.00  0.00    +0.000 OA
ATOM     10  C   UNL     1       6.305   3.864  13.681  0.00  0.00    +0.000 C 
ENDBRANCH   3   9
BRANCH   4  11
ATOM     11  O   UNL     1       7.623   6.624  16.645  0.00  0.00    +0.000 OA
ATOM     12  C   UNL     1       7.724   7.730  17.527  0.00  0.00    +0.000 C 
ENDBRANCH   4  11
BRANCH   6  13
ATOM     13  C   UNL     1       4.057   4.774  19.546  0.00  0.00    +0.000 C 
BRANCH  13  14
ATOM     14  N   UNL     1       3.603   6.133  19.867  0.00  0.00    +0.000 NA
ATOM     15  H   UNL     1       4.373   6.772  19.668  0.00  0.00    +0.000 HD
BRANCH  14  16
ATOM     16  C   UNL     1       2.385   6.572  19.159  0.00  0.00    +0.000 C 
ATOM     17  C   UNL     1       1.300   6.882  20.208  0.00  0.00    +0.000 C 
ATOM     18  C   UNL     1       1.492   8.192  20.974  0.00  0.00    +0.000 C 
ATOM     19  C   UNL     1       0.845   9.391  20.288  0.00  0.00    +0.000 C 
ATOM     20  C   UNL     1       1.460   9.797  18.953  0.00  0.00    +0.000 C 
ATOM     21  C   UNL     1       1.517   8.688  17.902  0.00  0.00    +0.000 C 
ATOM     22  C   UNL     1       2.663   7.711  18.161  0.00  0.00    +0.000 C 
ENDBRANCH  14  16
ENDBRANCH  13  14
ENDBRANCH   6  13
TORSDOF 6
ENDMDL
MODEL 6
REMARK VINA RESULT:      -6.4      2.192      4.900
REMARK  Name = 
REMARK  9 active torsions:
REMARK  status: ('A' for Active; 'I' for Inactive)
REMARK    1  A    between atoms: C_1  and  O_2
REMARK    2  A    between atoms: O_2  and  C_3
REMARK    3  A    between atoms: C_5  and  O_6
REMARK    4  A    between atoms: O_6  and  C_7
REMARK    5  A    between atoms: C_8  and  O_9
REMARK    6  A    between atoms: O_9  and  C_10
REMARK    7  A    between atoms: C_12  and  C_13
REMARK    8  A    between atoms: C_13  and  N_14
REMARK    9  A    between atoms: N_14  and  C_15
REMARK                            x       y       z     vdW  Elec       q    Type
REMARK                         _______ _______ _______ _____ _____    ______ ____
ROOT
ATOM      1  C   UNL     1       4.078   4.172  17.145  0.00  0.00    +0.000 A 
ATOM      2  C   UNL     1       4.968   4.012  16.075  0.00  0.00    +0.000 A 
ATOM      3  C   UNL     1       6.109   4.815  15.945  0.00  0.00    +0.000 A 
ATOM      4  C   UNL     1       6.358   5.833  16.876  0.00  0.00    +0.000 A 
ATOM      5  C   UNL     1       5.488   5.971  17.961  0.00  0.00    +0.000 A 
ATOM      6  C   UNL     1       4.350   5.148  18.118  0.00  0.00    +0.000 A 
ENDROOT
BRANCH   1   8
ATOM      7  C   UNL     1       3.147   2.121  17.899  0.00  0.00    +0.000 C 
ATOM      8  O   UNL     1       2.955   3.406  17.312  0.00  0.00    +0.000 OA
ENDBRANCH   1   8
BRANCH   3   9
ATOM      9  O   UNL     1       6.852   4.526  14.829  0.00  0.00    +0.000 OA
ATOM     10  C   UNL     1       6.161   3.850  13.785  0.00  0.00    +0.000 C 
ENDBRANCH   3   9
BRANCH   4  11
ATOM     11  O   UNL     1       7.435   6.653  16.654  0.00  0.00    +0.000 OA
ATOM     12  C   UNL     1       7.669   7.700  17.583  0.00  0.00    +0.000 C 
ENDBRANCH   4  11
BRANCH   6  13
ATOM     13  C   UNL     1       3.473   5.365  19.337  0.00  0.00    +0.000 C 
BRANCH  13  14
ATOM     14  N   UNL     1       2.354   6.258  19.015  0.00  0.00    +0.000 NA
ATOM     15  H   UNL     1       1.497   5.811  19.342  0.00  0.00    +0.000 HD
BRANCH  14  16
ATOM     16  C   UNL     1       2.458   7.621  19.571  0.00  0.00    +0.000 C 
ATOM     17  C   UNL     1       2.501   8.621  18.399  0.00  0.00    +0.000 C 
ATOM     18  C   UNL     1       1.162   8.860  17.699  0.00  0.00    +0.000 C 
ATOM     19  C   UNL     1       0.347   9.987  18.328  0.00  0.00    +0.000 C 
ATOM     20  C   UNL     1      -0.160   9.723  19.742  0.00  0.00    +0.000 C 
ATOM     21  C   UNL     1       0.920   9.363  20.761  0.00  0.00    +0.000 C 
ATOM     22  C   UNL     1       1.374   7.910  20.626  0.00  0.00    +0.000 C 
ENDBRANCH  14  16
ENDBRANCH  13  14
ENDBRANCH   6  13
TORSDOF 6
ENDMDL
MODEL 7
REMARK VINA RESULT:      -6.4      1.857      2.525
REMARK  Name = 
REMARK  9 active torsions:
REMARK  status: ('A' for Active; 'I' for Inactive)
REMARK    1  A    between atoms: C_1  and  O_2
REMARK    2  A    between atoms: O_2  and  C_3
REMARK    3  A    between atoms: C_5  and  O_6
REMARK    4  A    between atoms: O_6  and  C_7
REMARK    5  A    between atoms: C_8  and  O_9
REMARK    6  A    between atoms: O_9  and  C_10
REMARK    7  A    between atoms: C_12  and  C_13
REMARK    8  A    between atoms: C_13  and  N_14
REMARK    9  A    between atoms: N_14  and  C_15
REMARK                            x       y       z     vdW  Elec       q    Type
REMARK                         _______ _______ _______ _____ _____    ______ ____
ROOT
ATOM      1  C   UNL     1       5.419   4.278  18.448  0.00  0.00    +0.000 A 
ATOM      2  C   UNL     1       6.435   5.195  18.154  0.00  0.00    +0.000 A 
ATOM      3  C   UNL     1       6.694   5.606  16.839  0.00  0.00    +0.000 A 
ATOM      4  C   UNL     1       5.955   5.062  15.779  0.00  0.00    +0.000 A 
ATOM      5  C   UNL     1       4.920   4.171  16.076  0.00  0.00    +0.000 A 
ATOM      6  C   UNL     1       4.631   3.774  17.400  0.00  0.00    +0.000 A 
ENDROOT
BRANCH   1   8
ATOM      7  C   UNL     1       5.044   2.445  19.912  0.00  0.00    +0.000 C 
ATOM      8  O   UNL     1       5.130   3.855  19.719  0.00  0.00    +0.000 OA
ENDBRANCH   1   8
BRANCH   3   9
ATOM      9  O   UNL     1       7.734   6.494  16.742  0.00  0.00    +0.000 OA
ATOM     10  C   UNL     1       7.657   7.632  17.593  0.00  0.00    +0.000 C 
ENDBRANCH   3   9
BRANCH   4  11
ATOM     11  O   UNL     1       6.308   5.422  14.503  0.00  0.00    +0.000 OA
ATOM     12  C   UNL     1       6.671   4.387  13.603  0.00  0.00    +0.000 C 
ENDBRANCH   4  11
BRANCH   6  13
ATOM     13  C   UNL     1       3.478   2.813  17.623  0.00  0.00    +0.000 C 
BRANCH  13  14
ATOM     14  N   UNL     1       2.229   3.374  17.093  0.00  0.00    +0.000 NA
ATOM     15  H   UNL     1       1.757   2.638  16.567  0.00  0.00    +0.000 HD
BRANCH  14  16
ATOM     16  C   UNL     1       1.315   3.939  18.105  0.00  0.00    +0.000 C 
ATOM     17  C   UNL     1       0.639   2.773  18.852  0.00  0.00    +0.000 C 
ATOM     18  C   UNL     1       1.528   2.046  19.862  0.00  0.00    +0.000 C 
ATOM     19  C   UNL     1       1.483   2.662  21.257  0.00  0.00    +0.000 C 
ATOM     20  C   UNL     1       2.073   4.063  21.377  0.00  0.00    +0.000 C 
ATOM     21  C   UNL     1       1.469   5.104  20.435  0.00  0.00    +0.000 C 
ATOM     22  C   UNL     1       2.009   4.971  19.012  0.00  0.00    +0.000 C 
ENDBRANCH  14  16
ENDBRANCH  13  14
ENDBRANCH   6  13
TORSDOF 6
ENDMDL
MODEL 8
REMARK VINA RESULT:      -6.3      2.470      5.524
REMARK  Name = 
REMARK  9 active torsions:
REMARK  status: ('A' for Active; 'I' for Inactive)
REMARK    1  A    between atoms: C_1  and  O_2
REMARK    2  A    between atoms: O_2  and  C_3
REMARK    3  A    between atoms: C_5  and  O_6
REMARK    4  A    between atoms: O_6  and  C_7
REMARK    5  A    between atoms: C_8  and  O_9
REMARK    6  A    between atoms: O_9  and  C_10
REMARK    7  A    between atoms: C_12  and  C_13
REMARK    8  A    between atoms: C_13  and  N_14
REMARK    9  A    between atoms: N_14  and  C_15
REMARK                            x       y       z     vdW  Elec       q    Type
REMARK                         _______ _______ _______ _____ _____    ______ ____
ROOT
ATOM      1  C   UNL     1       2.341   6.212  19.819  0.00  0.00    +0.000 A 
ATOM      2  C   UNL     1       2.182   5.257  20.830  0.00  0.00    +0.000 A 
ATOM      3  C   UNL     1       2.787   3.995  20.749  0.00  0.00    +0.000 A 
ATOM      4  C   UNL     1       3.539   3.653  19.616  0.00  0.00    +0.000 A 
ATOM      5  C   UNL     1       3.725   4.618  18.623  0.00  0.00    +0.000 A 
ATOM      6  C   UNL     1       3.144   5.903  18.709  0.00  0.00    +0.000 A 
ENDROOT
BRANCH   1   8
ATOM      7  C   UNL     1       1.459   7.966  21.156  0.00  0.00    +0.000 C 
ATOM      8  O   UNL     1       1.772   7.458  19.862  0.00  0.00    +0.000 OA
ENDBRANCH   1   8
BRANCH   3   9
ATOM      9  O   UNL     1       2.505   3.188  21.821  0.00  0.00    +0.000 OA
ATOM     10  C   UNL     1       1.254   2.512  21.774  0.00  0.00    +0.000 C 
ENDBRANCH   3   9
BRANCH   4  11
ATOM     11  O   UNL     1       4.032   2.375  19.539  0.00  0.00    +0.000 OA
ATOM     12  C   UNL     1       3.477   1.513  18.558  0.00  0.00    +0.000 C 
ENDBRANCH   4  11
BRANCH   6  13
ATOM     13  C   UNL     1       3.416   6.887  17.586  0.00  0.00    +0.000 C 
BRANCH  13  14
ATOM     14  N   UNL     1       4.722   7.532  17.770  0.00  0.00    +0.000 NA
ATOM     15  H   UNL     1       5.070   7.268  18.692  0.00  0.00    +0.000 HD
BRANCH  14  16
ATOM     16  C   UNL     1       5.728   7.216  16.739  0.00  0.00    +0.000 C 
ATOM     17  C   UNL     1       7.067   6.920  17.442  0.00  0.00    +0.000 C 
ATOM     18  C   UNL     1       7.150   5.558  18.134  0.00  0.00    +0.000 C 
ATOM     19  C   UNL     1       7.650   4.446  17.217  0.00  0.00    +0.000 C 
ATOM     20  C   UNL     1       6.723   4.077  16.064  0.00  0.00    +0.000 C 
ATOM     21  C   UNL     1       6.335   5.238  15.147  0.00  0.00    +0.000 C 
ATOM     22  C   UNL     1       5.252   6.120  15.768  0.00  0.00    +0.000 C 
ENDBRANCH  14  16
ENDBRANCH  13  14
ENDBRANCH   6  13
TORSDOF 6
ENDMDL
MODEL 9
REMARK VINA RESULT:      -6.3      2.055      3.573
REMARK  Name = 
REMARK  9 active torsions:
REMARK  status: ('A' for Active; 'I' for Inactive)
REMARK    1  A    between atoms: C_1  and  O_2
REMARK    2  A    between atoms: O_2  and  C_3
REMARK    3  A    between atoms: C_5  and  O_6
REMARK    4  A    between atoms: O_6  and  C_7
REMARK    5  A    between atoms: C_8  and  O_9
REMARK    6  A    between atoms: O_9  and  C_10
REMARK    7  A    between atoms: C_12  and  C_13
REMARK    8  A    between atoms: C_13  and  N_14
REMARK    9  A    between atoms: N_14  and  C_15
REMARK                            x       y       z     vdW  Elec       q    Type
REMARK                         _______ _______ _______ _____ _____    ______ ____
ROOT
ATOM      1  C   UNL     1       4.778   4.008  17.094  0.00  0.00    +0.000 A 
ATOM      2  C   UNL     1       5.381   4.245  15.853  0.00  0.00    +0.000 A 
ATOM      3  C   UNL     1       6.402   5.194  15.704  0.00  0.00    +0.000 A 
ATOM      4  C   UNL     1       6.811   5.960  16.804  0.00  0.00    +0.000 A 
ATOM      5  C   UNL     1       6.232   5.700  18.049  0.00  0.00    +0.000 A 
ATOM      6  C   UNL     1       5.223   4.725  18.217  0.00  0.00    +0.000 A 
ENDROOT
BRANCH   1   8
ATOM      7  C   UNL     1       4.176   1.832  17.833  0.00  0.00    +0.000 C 
ATOM      8  O   UNL     1       3.782   3.087  17.284  0.00  0.00    +0.000 OA
ENDBRANCH   1   8
BRANCH   3   9
ATOM      9  O   UNL     1       6.860   5.301  14.415  0.00  0.00    +0.000 OA
ATOM     10  C   UNL     1       6.559   4.206  13.559  0.00  0.00    +0.000 C 
ENDBRANCH   3   9
BRANCH   4  11
ATOM     11  O   UNL     1       7.746   6.941  16.589  0.00  0.00    +0.000 OA
ATOM     12  C   UNL     1       7.768   8.039  17.488  0.00  0.00    +0.000 C 
ENDBRANCH   4  11
BRANCH   6  13
ATOM     13  C   UNL     1       4.665   4.506  19.611  0.00  0.00    +0.000 C 
BRANCH  13  14
ATOM     14  N   UNL     1       3.667   5.532  19.935  0.00  0.00    +0.000 NA
ATOM     15  H   UNL     1       3.445   6.031  19.074  0.00  0.00    +0.000 HD
BRANCH  14  16
ATOM     16  C   UNL     1       2.430   5.029  20.562  0.00  0.00    +0.000 C 
ATOM     17  C   UNL     1       1.284   5.146  19.538  0.00  0.00    +0.000 C 
ATOM     18  C   UNL     1       1.304   4.104  18.419  0.00  0.00    +0.000 C 
ATOM     19  C   UNL     1       0.547   2.827  18.772  0.00  0.00    +0.000 C 
ATOM     20  C   UNL     1       1.154   1.991  19.895  0.00  0.00    +0.000 C 
ATOM     21  C   UNL     1       1.368   2.734  21.213  0.00  0.00    +0.000 C 
ATOM     22  C   UNL     1       2.608   3.627  21.173  0.00  0.00    +0.000 C 
ENDBRANCH  14  16
ENDBRANCH  13  14
ENDBRANCH   6  13
TORSDOF 6
ENDMDL
