MODEL 1
REMARK VINA RESULT:      -7.6      0.000      0.000
REMARK  Name = 
REMARK  6 active torsions:
REMARK  status: ('A' for Active; 'I' for Inactive)
REMARK    1  A    between atoms: C_1  and  C_2
REMARK    2  A    between atoms: C_2  and  C_3
REMARK    3  A    between atoms: C_2  and  C_4
REMARK    4  A    between atoms: C_4  and  C_5
REMARK    5  A    between atoms: C_5  and  C_6
REMARK    6  A    between atoms: C_9  and  C_10
REMARK                            x       y       z     vdW  Elec       q    Type
REMARK                         _______ _______ _______ _____ _____    ______ ____
ROOT
ATOM      1  C   UNL     1       3.029   5.583  19.517  0.00  0.00    +0.000 A 
ATOM      2  C   UNL     1       2.895   6.791  18.867  0.00  0.00    +0.000 A 
ATOM      3  C   UNL     1       3.641   6.837  17.654  0.00  0.00    +0.000 A 
ATOM      4  C   UNL     1       4.373   5.684  17.430  0.00  0.00    +0.000 A 
ATOM      5  S   UNL     1       4.048   4.521  18.651  0.00  0.00    +0.000 S 
ENDROOT
BRANCH   4   6
ATOM      6  C   UNL     1       5.319   5.397  16.344  0.00  0.00    +0.000 A 
ATOM      7  C   UNL     1       6.605   5.915  16.292  0.00  0.00    +0.000 A 
ATOM      8  N   UNL     1       7.444   5.709  15.250  0.00  0.00    +0.000 NA
ATOM      9  C   UNL     1       6.963   4.961  14.243  0.00  0.00    +0.000 A 
ATOM     10  C   UNL     1       7.767   4.732  13.134  0.00  0.00    +0.000 A 
ATOM     11  C   UNL     1       7.316   3.965  12.062  0.00  0.00    +0.000 A 
ATOM     12  C   UNL     1       6.045   3.407  12.105  0.00  0.00    +0.000 A 
ATOM     13  C   UNL     1       5.227   3.636  13.215  0.00  0.00    +0.000 A 
ATOM     14  C   UNL     1       5.657   4.410  14.288  0.00  0.00    +0.000 A 
ATOM     15  N   UNL     1       4.832   4.633  15.332  0.00  0.00    +0.000 NA
ENDBRANCH   4   6
BRANCH   1  16
ATOM     16  C   UNL     1       2.414   5.141  20.815  0.00  0.00    +0.000 C 
BRANCH  16  17
ATOM     17  C   UNL     1       1.058   4.466  20.585  0.00  0.00    +0.000 C 
BRANCH  17  19
ATOM     18  C   UNL     1       1.168   2.313  19.311  0.00  0.00    +0.000 C 
ATOM     19  C   UNL     1       1.094   2.933  20.709  0.00  0.00    +0.000 C 
ATOM     20  C   UNL     1       2.267   2.437  21.556  0.00  0.00    +0.000 C 
ENDBRANCH  17  19
ENDBRANCH  16  17
ENDBRANCH   1  16
TORSDOF 4
ENDMDL
MODEL 2
REMARK VINA RESULT:      -7.5      3.624      7.608
REMARK  Name = 
REMARK  6 active torsions:
REMARK  status: ('A' for Active; 'I' for Inactive)
REMARK    1  A    between atoms: C_1  and  C_2
REMARK    2  A    between atoms: C_2  and  C_3
REMARK    3  A    between atoms: C_2  and  C_4
REMARK    4  A    between atoms: C_4  and  C_5
REMARK    5  A    between atoms: C_5  and  C_6
REMARK    6  A    between atoms: C_9  and  C_10
REMARK                            x       y       z     vdW  Elec       q    Type
REMARK                         _______ _______ _______ _____ _____    ______ ____
ROOT
ATOM      1  C   UNL     1       7.652   7.666  18.000  0.00  0.00    +0.000 A 
ATOM      2  C   UNL     1       8.209   6.704  18.816  0.00  0.00    +0.000 A 
ATOM      3  C   UNL     1       7.356   5.574  18.978  0.00  0.00    +0.000 A 
ATOM      4  C   UNL     1       6.142   5.720  18.328  0.00  0.00    +0.000 A 
ATOM      5  S   UNL     1       6.112   7.189  17.439  0.00  0.00    +0.000 S 
ENDROOT
BRANCH   4   6
ATOM      6  C   UNL     1       4.985   4.816  18.337  0.00  0.00    +0.000 A 
ATOM      7  C   UNL     1       4.687   3.945  17.298  0.00  0.00    +0.000 A 
ATOM      8  N   UNL     1       3.577   3.171  17.278  0.00  0.00    +0.000 NA
ATOM      9  C   UNL     1       2.757   3.287  18.335  0.00  0.00    +0.000 A 
ATOM     10  C   UNL     1       1.589   2.536  18.364  0.00  0.00    +0.000 A 
ATOM     11  C   UNL     1       0.703   2.619  19.436  0.00  0.00    +0.000 A 
ATOM     12  C   UNL     1       0.995   3.458  20.502  0.00  0.00    +0.000 A 
ATOM     13  C   UNL     1       2.166   4.222  20.481  0.00  0.00    +0.000 A 
ATOM     14  C   UNL     1       3.055   4.159  19.412  0.00  0.00    +0.000 A 
ATOM     15  N   UNL     1       4.163   4.930  19.411  0.00  0.00    +0.000 NA
ENDBRANCH   4   6
BRANCH   1  16
ATOM     16  C   UNL     1       8.223   8.993  17.587  0.00  0.00    +0.000 C 
BRANCH  16  17
ATOM     17  C   UNL     1       8.987   9.653  18.740  0.00  0.00    +0.000 C 
BRANCH  17  19
ATOM     18  C   UNL     1       9.344  11.844  19.897  0.00  0.00    +0.000 C 
ATOM     19  C   UNL     1       9.257  11.153  18.533  0.00  0.00    +0.000 C 
ATOM     20  C   UNL     1      10.535  11.418  17.737  0.00  0.00    +0.000 C 
ENDBRANCH  17  19
ENDBRANCH  16  17
ENDBRANCH   1  16
TORSDOF 4
ENDMDL
MODEL 3
REMARK VINA RESULT:      -7.4      0.969      1.211
REMARK  Name = 
REMARK  6 active torsions:
REMARK  status: ('A' for Active; 'I' for Inactive)
REMARK    1  A    between atoms: C_1  and  C_2
REMARK    2  A    between atoms: C_2  and  C_3
REMARK    3  A    between atoms: C_2  and  C_4
REMARK    4  A    between atoms: C_4  and  C_5
REMARK    5  A    between atoms: C_5  and  C_6
REMARK    6  A    between atoms: C_9  and  C_10
REMARK                            x       y       z     vdW  Elec       q    Type
REMARK                         _______ _______ _______ _____ _____    ______ ____
ROOT
ATOM      1  C   UNL     1       3.392   4.980  19.491  0.00  0.00    +0.000 A 
ATOM      2  C   UNL     1       4.582   4.495  19.991  0.00  0.00    +0.000 A 
ATOM      3  C   UNL     1       5.604   4.445  18.999  0.00  0.00    +0.000 A 
ATOM      4  C   UNL     1       5.158   4.841  17.749  0.00  0.00    +0.000 A 
ATOM      5  S   UNL     1       3.528   5.372  17.835  0.00  0.00    +0.000 S 
ENDROOT
BRANCH   4   6
ATOM      6  C   UNL     1       5.888   4.840  16.475  0.00  0.00    +0.000 A 
ATOM      7  C   UNL     1       7.034   5.589  16.249  0.00  0.00    +0.000 A 
ATOM      8  N   UNL     1       7.657   5.644  15.049  0.00  0.00    +0.000 NA
ATOM      9  C   UNL     1       7.103   4.922  14.063  0.00  0.00    +0.000 A 
ATOM     10  C   UNL     1       7.682   4.954  12.800  0.00  0.00    +0.000 A 
ATOM     11  C   UNL     1       7.146   4.224  11.741  0.00  0.00    +0.000 A 
ATOM     12  C   UNL     1       6.020   3.440  11.950  0.00  0.00    +0.000 A 
ATOM     13  C   UNL     1       5.427   3.405  13.215  0.00  0.00    +0.000 A 
ATOM     14  C   UNL     1       5.942   4.137  14.281  0.00  0.00    +0.000 A 
ATOM     15  N   UNL     1       5.330   4.102  15.482  0.00  0.00    +0.000 NA
ENDBRANCH   4   6
BRANCH   1  16
ATOM     16  C   UNL     1       2.085   5.183  20.206  0.00  0.00    +0.000 C 
BRANCH  16  17
ATOM     17  C   UNL     1       1.004   4.244  19.663  0.00  0.00    +0.000 C 
BRANCH  17  19
ATOM     18  C   UNL     1       1.859   1.921  19.285  0.00  0.00    +0.000 C 
ATOM     19  C   UNL     1       1.066   2.819  20.239  0.00  0.00    +0.000 C 
ATOM     20  C   UNL     1       1.695   2.774  21.632  0.00  0.00    +0.000 C 
ENDBRANCH  17  19
ENDBRANCH  16  17
ENDBRANCH   1  16
TORSDOF 4
ENDMDL
MODEL 4
REMARK VINA RESULT:      -7.1      1.989      7.453
REMARK  Name = 
REMARK  6 active torsions:
REMARK  status: ('A' for Active; 'I' for Inactive)
REMARK    1  A    between atoms: C_1  and  C_2
REMARK    2  A    between atoms: C_2  and  C_3
REMARK    3  A    between atoms: C_2  and  C_4
REMARK    4  A    between atoms: C_4  and  C_5
REMARK    5  A    between atoms: C_5  and  C_6
REMARK    6  A    between atoms: C_9  and  C_10
REMARK                            x       y       z     vdW  Elec       q    Type
REMARK                         _______ _______ _______ _____ _____    ______ ____
ROOT
ATOM      1  C   UNL     1       6.393   4.139  13.781  0.00  0.00    +0.000 A 
ATOM      2  C   UNL     1       7.332   4.743  14.590  0.00  0.00    +0.000 A 
ATOM      3  C   UNL     1       6.859   4.928  15.922  0.00  0.00    +0.000 A 
ATOM      4  C   UNL     1       5.549   4.513  16.088  0.00  0.00    +0.000 A 
ATOM      5  S   UNL     1       4.957   3.801  14.642  0.00  0.00    +0.000 S 
ENDROOT
BRANCH   4   6
ATOM      6  C   UNL     1       4.699   4.622  17.281  0.00  0.00    +0.000 A 
ATOM      7  C   UNL     1       5.030   5.390  18.388  0.00  0.00    +0.000 A 
ATOM      8  N   UNL     1       4.280   5.425  19.514  0.00  0.00    +0.000 NA
ATOM      9  C   UNL     1       3.174   4.664  19.511  0.00  0.00    +0.000 A 
ATOM     10  C   UNL     1       2.373   4.639  20.646  0.00  0.00    +0.000 A 
ATOM     11  C   UNL     1       1.215   3.866  20.696  0.00  0.00    +0.000 A 
ATOM     12  C   UNL     1       0.845   3.115  19.588  0.00  0.00    +0.000 A 
ATOM     13  C   UNL     1       1.646   3.131  18.443  0.00  0.00    +0.000 A 
ATOM     14  C   UNL     1       2.812   3.887  18.382  0.00  0.00    +0.000 A 
ATOM     15  N   UNL     1       3.577   3.858  17.270  0.00  0.00    +0.000 NA
ENDBRANCH   4   6
BRANCH   1  16
ATOM     16  C   UNL     1       6.499   3.777  12.327  0.00  0.00    +0.000 C 
BRANCH  16  17
ATOM     17  C   UNL     1       5.648   2.547  11.997  0.00  0.00    +0.000 C 
BRANCH  17  19
ATOM     18  C   UNL     1       7.794   1.900  10.879  0.00  0.00    +0.000 C 
ATOM     19  C   UNL     1       6.297   1.592  10.980  0.00  0.00    +0.000 C 
ATOM     20  C   UNL     1       6.095   0.120  11.341  0.00  0.00    +0.000 C 
ENDBRANCH  17  19
ENDBRANCH  16  17
ENDBRANCH   1  16
TORSDOF 4
ENDMDL
MODEL 5
REMARK VINA RESULT:      -7.1      1.875      7.240
REMARK  Name = 
REMARK  6 active torsions:
REMARK  status: ('A' for Active; 'I' for Inactive)
REMARK    1  A    between atoms: C_1  and  C_2
REMARK    2  A    between atoms: C_2  and  C_3
REMARK    3  A    between atoms: C_2  and  C_4
REMARK    4  A    between atoms: C_4  and  C_5
REMARK    5  A    between atoms: C_5  and  C_6
REMARK    6  A    between atoms: C_9  and  C_10
REMARK                            x       y       z     vdW  Elec       q    Type
REMARK                         _______ _______ _______ _____ _____    ______ ____
ROOT
ATOM      1  C   UNL     1       6.398   4.647  14.391  0.00  0.00    +0.000 A 
ATOM      2  C   UNL     1       5.996   5.961  14.497  0.00  0.00    +0.000 A 
ATOM      3  C   UNL     1       5.217   6.195  15.667  0.00  0.00    +0.000 A 
ATOM      4  C   UNL     1       4.994   5.043  16.402  0.00  0.00    +0.000 A 
ATOM      5  S   UNL     1       5.835   3.717  15.708  0.00  0.00    +0.000 S 
ENDROOT
BRANCH   4   6
ATOM      6  C   UNL     1       4.173   4.872  17.608  0.00  0.00    +0.000 A 
ATOM      7  C   UNL     1       4.412   5.545  18.798  0.00  0.00    +0.000 A 
ATOM      8  N   UNL     1       3.700   5.325  19.928  0.00  0.00    +0.000 NA
ATOM      9  C   UNL     1       2.728   4.402  19.843  0.00  0.00    +0.000 A 
ATOM     10  C   UNL     1       1.976   4.113  20.975  0.00  0.00    +0.000 A 
ATOM     11  C   UNL     1       0.957   3.164  20.942  0.00  0.00    +0.000 A 
ATOM     12  C   UNL     1       0.677   2.501  19.755  0.00  0.00    +0.000 A 
ATOM     13  C   UNL     1       1.431   2.781  18.611  0.00  0.00    +0.000 A 
ATOM     14  C   UNL     1       2.460   3.717  18.631  0.00  0.00    +0.000 A 
ATOM     15  N   UNL     1       3.186   3.944  17.516  0.00  0.00    +0.000 NA
ENDBRANCH   4   6
BRANCH   1  16
ATOM     16  C   UNL     1       7.222   4.000  13.314  0.00  0.00    +0.000 C 
BRANCH  16  17
ATOM     17  C   UNL     1       6.441   3.905  11.999  0.00  0.00    +0.000 C 
BRANCH  17  19
ATOM     18  C   UNL     1       4.140   3.240  11.267  0.00  0.00    +0.000 C 
ATOM     19  C   UNL     1       5.416   2.757  11.962  0.00  0.00    +0.000 C 
ATOM     20  C   UNL     1       5.952   1.513  11.253  0.00  0.00    +0.000 C 
ENDBRANCH  17  19
ENDBRANCH  16  17
ENDBRANCH   1  16
TORSDOF 4
ENDMDL
MODEL 6
REMARK VINA RESULT:      -6.9      1.438      2.531
REMARK  Name = 
REMARK  6 active torsions:
REMARK  status: ('A' for Active; 'I' for Inactive)
REMARK    1  A    between atoms: C_1  and  C_2
REMARK    2  A    between atoms: C_2  and  C_3
REMARK    3  A    between atoms: C_2  and  C_4
REMARK    4  A    between atoms: C_4  and  C_5
REMARK    5  A    between atoms: C_5  and  C_6
REMARK    6  A    between atoms: C_9  and  C_10
REMARK                            x       y       z     vdW  Elec       q    Type
REMARK                         _______ _______ _______ _____ _____    ______ ____
ROOT
ATOM      1  C   UNL     1       3.261   4.416  19.611  0.00  0.00    +0.000 A 
ATOM      2  C   UNL     1       3.071   3.206  18.978  0.00  0.00    +0.000 A 
ATOM      3  C   UNL     1       3.908   3.059  17.834  0.00  0.00    +0.000 A 
ATOM      4  C   UNL     1       4.679   4.182  17.585  0.00  0.00    +0.000 A 
ATOM      5  S   UNL     1       4.448   5.353  18.819  0.00  0.00    +0.000 S 
ENDROOT
BRANCH   4   6
ATOM      6  C   UNL     1       5.587   4.437  16.459  0.00  0.00    +0.000 A 
ATOM      7  C   UNL     1       6.656   5.320  16.524  0.00  0.00    +0.000 A 
ATOM      8  N   UNL     1       7.442   5.608  15.460  0.00  0.00    +0.000 NA
ATOM      9  C   UNL     1       7.133   4.985  14.312  0.00  0.00    +0.000 A 
ATOM     10  C   UNL     1       7.888   5.256  13.177  0.00  0.00    +0.000 A 
ATOM     11  C   UNL     1       7.609   4.638  11.960  0.00  0.00    +0.000 A 
ATOM     12  C   UNL     1       6.566   3.726  11.878  0.00  0.00    +0.000 A 
ATOM     13  C   UNL     1       5.798   3.450  13.013  0.00  0.00    +0.000 A 
ATOM     14  C   UNL     1       6.055   4.068  14.233  0.00  0.00    +0.000 A 
ATOM     15  N   UNL     1       5.277   3.799  15.302  0.00  0.00    +0.000 NA
ENDBRANCH   4   6
BRANCH   1  16
ATOM     16  C   UNL     1       2.577   4.951  20.838  0.00  0.00    +0.000 C 
BRANCH  16  17
ATOM     17  C   UNL     1       1.463   5.935  20.468  0.00  0.00    +0.000 C 
BRANCH  17  19
ATOM     18  C   UNL     1       2.007   7.982  19.132  0.00  0.00    +0.000 C 
ATOM     19  C   UNL     1       1.881   7.413  20.549  0.00  0.00    +0.000 C 
ATOM     20  C   UNL     1       0.900   8.260  21.360  0.00  0.00    +0.000 C 
ENDBRANCH  17  19
ENDBRANCH  16  17
ENDBRANCH   1  16
TORSDOF 4
ENDMDL
MODEL 7
REMARK VINA RESULT:      -6.8      2.145      7.324
REMARK  Name = 
REMARK  6 active torsions:
REMARK  status: ('A' for Active; 'I' for Inactive)
REMARK    1  A    between atoms: C_1  and  C_2
REMARK    2  A    between atoms: C_2  and  C_3
REMARK    3  A    between atoms: C_2  and  C_4
REMARK    4  A    between atoms: C_4  and  C_5
REMARK    5  A    between atoms: C_5  and  C_6
REMARK    6  A    between atoms: C_9  and  C_10
REMARK                            x       y       z     vdW  Elec       q    Type
REMARK                         _______ _______ _______ _____ _____    ______ ____
ROOT
ATOM      1  C   UNL     1       6.558   4.579  14.096  0.00  0.00    +0.000 A 
ATOM      2  C   UNL     1       7.532   4.890  15.019  0.00  0.00    +0.000 A 
ATOM      3  C   UNL     1       7.092   4.684  16.359  0.00  0.00    +0.000 A 
ATOM      4  C   UNL     1       5.772   4.272  16.433  0.00  0.00    +0.000 A 
ATOM      5  S   UNL     1       5.129   4.038  14.858  0.00  0.00    +0.000 S 
ENDROOT
BRANCH   4   6
ATOM      6  C   UNL     1       4.950   4.045  17.628  0.00  0.00    +0.000 A 
ATOM      7  C   UNL     1       5.468   3.991  18.915  0.00  0.00    +0.000 A 
ATOM      8  N   UNL     1       4.717   3.704  20.003  0.00  0.00    +0.000 NA
ATOM      9  C   UNL     1       3.414   3.469  19.776  0.00  0.00    +0.000 A 
ATOM     10  C   UNL     1       2.593   3.147  20.849  0.00  0.00    +0.000 A 
ATOM     11  C   UNL     1       1.235   2.893  20.669  0.00  0.00    +0.000 A 
ATOM     12  C   UNL     1       0.686   2.975  19.397  0.00  0.00    +0.000 A 
ATOM     13  C   UNL     1       1.505   3.294  18.310  0.00  0.00    +0.000 A 
ATOM     14  C   UNL     1       2.865   3.538  18.471  0.00  0.00    +0.000 A 
ATOM     15  N   UNL     1       3.632   3.817  17.396  0.00  0.00    +0.000 NA
ENDBRANCH   4   6
BRANCH   1  16
ATOM     16  C   UNL     1       6.623   4.662  12.597  0.00  0.00    +0.000 C 
BRANCH  16  17
ATOM     17  C   UNL     1       6.972   3.305  11.980  0.00  0.00    +0.000 C 
BRANCH  17  19
ATOM     18  C   UNL     1       4.575   3.095  11.289  0.00  0.00    +0.000 C 
ATOM     19  C   UNL     1       5.777   2.343  11.867  0.00  0.00    +0.000 C 
ATOM     20  C   UNL     1       6.084   1.120  11.002  0.00  0.00    +0.000 C 
ENDBRANCH  17  19
ENDBRANCH  16  17
ENDBRANCH   1  16
TORSDOF 4
ENDMDL
MODEL 8
REMARK VINA RESULT:      -6.8      1.906      7.318
REMARK  Name = 
REMARK  6 active torsions:
REMARK  status: ('A' for Active; 'I' for Inactive)
REMARK    1  A    between atoms: C_1  and  C_2
REMARK    2  A    between atoms: C_2  and  C_3
REMARK    3  A    between atoms: C_2  and  C_4
REMARK    4  A    between atoms: C_4  and  C_5
REMARK    5  A    between atoms: C_5  and  C_6
REMARK    6  A    between atoms: C_9  and  C_10
REMARK                            x       y       z     vdW  Elec       q    Type
REMARK                         _______ _______ _______ _____ _____    ______ ____
ROOT
ATOM      1  C   UNL     1       6.581   4.642  14.124  0.00  0.00    +0.000 A 
ATOM      2  C   UNL     1       7.532   4.874  15.093  0.00  0.00    +0.000 A 
ATOM      3  C   UNL     1       6.978   4.867  16.407  0.00  0.00    +0.000 A 
ATOM      4  C   UNL     1       5.605   4.685  16.409  0.00  0.00    +0.000 A 
ATOM      5  S   UNL     1       5.034   4.414  14.812  0.00  0.00    +0.000 S 
ENDROOT
BRANCH   4   6
ATOM      6  C   UNL     1       4.681   4.707  17.550  0.00  0.00    +0.000 A 
ATOM      7  C   UNL     1       4.887   5.476  18.687  0.00  0.00    +0.000 A 
ATOM      8  N   UNL     1       4.072   5.431  19.766  0.00  0.00    +0.000 NA
ATOM      9  C   UNL     1       3.029   4.589  19.685  0.00  0.00    +0.000 A 
ATOM     10  C   UNL     1       2.168   4.481  20.770  0.00  0.00    +0.000 A 
ATOM     11  C   UNL     1       1.072   3.621  20.738  0.00  0.00    +0.000 A 
ATOM     12  C   UNL     1       0.826   2.867  19.600  0.00  0.00    +0.000 A 
ATOM     13  C   UNL     1       1.689   2.965  18.505  0.00  0.00    +0.000 A 
ATOM     14  C   UNL     1       2.795   3.809  18.525  0.00  0.00    +0.000 A 
ATOM     15  N   UNL     1       3.624   3.860  17.461  0.00  0.00    +0.000 NA
ENDBRANCH   4   6
BRANCH   1  16
ATOM     16  C   UNL     1       6.755   4.574  12.633  0.00  0.00    +0.000 C 
BRANCH  16  17
ATOM     17  C   UNL     1       7.018   3.139  12.169  0.00  0.00    +0.000 C 
BRANCH  17  19
ATOM     18  C   UNL     1       5.979   1.053  11.253  0.00  0.00    +0.000 C 
ATOM     19  C   UNL     1       5.945   2.583  11.216  0.00  0.00    +0.000 C 
ATOM     20  C   UNL     1       4.539   3.077  11.560  0.00  0.00    +0.000 C 
ENDBRANCH  17  19
ENDBRANCH  16  17
ENDBRANCH   1  16
TORSDOF 4
ENDMDL
MODEL 9
REMARK VINA RESULT:      -6.8      2.774      7.717
REMARK  Name = 
REMARK  6 active torsions:
REMARK  status: ('A' for Active; 'I' for Inactive)
REMARK    1  A    between atoms: C_1  and  C_2
REMARK    2  A    between atoms: C_2  and  C_3
REMARK    3  A    between atoms: C_2  and  C_4
REMARK    4  A    between atoms: C_4  and  C_5
REMARK    5  A    between atoms: C_5  and  C_6
REMARK    6  A    between atoms: C_9  and  C_10
REMARK                            x       y       z     vdW  Elec       q    Type
REMARK                         _______ _______ _______ _____ _____    ______ ____
ROOT
ATOM      1  C   UNL     1       5.508   4.900  15.600  0.00  0.00    +0.000 A 
ATOM      2  C   UNL     1       5.011   3.902  16.410  0.00  0.00    +0.000 A 
ATOM      3  C   UNL     1       4.109   4.403  17.393  0.00  0.00    +0.000 A 
ATOM      4  C   UNL     1       3.980   5.781  17.349  0.00  0.00    +0.000 A 
ATOM      5  S   UNL     1       4.876   6.426  16.034  0.00  0.00    +0.000 S 
ENDROOT
BRANCH   4   6
ATOM      6  C   UNL     1       3.218   6.657  18.248  0.00  0.00    +0.000 A 
ATOM      7  C   UNL     1       2.803   6.278  19.517  0.00  0.00    +0.000 A 
ATOM      8  N   UNL     1       2.035   7.062  20.309  0.00  0.00    +0.000 NA
ATOM      9  C   UNL     1       1.685   8.253  19.799  0.00  0.00    +0.000 A 
ATOM     10  C   UNL     1       0.878   9.096  20.553  0.00  0.00    +0.000 A 
ATOM     11  C   UNL     1       0.484  10.342  20.071  0.00  0.00    +0.000 A 
ATOM     12  C   UNL     1       0.914  10.759  18.819  0.00  0.00    +0.000 A 
ATOM     13  C   UNL     1       1.723   9.917  18.050  0.00  0.00    +0.000 A 
ATOM     14  C   UNL     1       2.114   8.664  18.511  0.00  0.00    +0.000 A 
ATOM     15  N   UNL     1       2.873   7.865  17.732  0.00  0.00    +0.000 NA
ENDBRANCH   4   6
BRANCH   1  16
ATOM     16  C   UNL     1       6.479   4.787  14.457  0.00  0.00    +0.000 C 
BRANCH  16  17
ATOM     17  C   UNL     1       6.315   3.456  13.719  0.00  0.00    +0.000 C 
BRANCH  17  19
ATOM     18  C   UNL     1       7.042   2.619  11.473  0.00  0.00    +0.000 C 
ATOM     19  C   UNL     1       6.121   3.603  12.199  0.00  0.00    +0.000 C 
ATOM     20  C   UNL     1       4.673   3.372  11.765  0.00  0.00    +0.000 C 
ENDBRANCH  17  19
ENDBRANCH  16  17
ENDBRANCH   1  16
TORSDOF 4
ENDMDL
