MODEL 1
REMARK VINA RESULT:      -8.4      0.000      0.000
REMARK  Name = 
REMARK  7 active torsions:
REMARK  status: ('A' for Active; 'I' for Inactive)
REMARK    1  A    between atoms: C_1  and  C_2
REMARK    2  A    between atoms: C_2  and  N_3
REMARK    3  A    between atoms: C_7  and  C_8
REMARK    4  A    between atoms: C_8  and  N_9
REMARK    5  A    between atoms: C_10  and  C_11
REMARK    6  A    between atoms: C_16  and  C_17
REMARK    7  A    between atoms: C_22  and  C_23
REMARK                            x       y       z     vdW  Elec       q    Type
REMARK                         _______ _______ _______ _____ _____    ______ ____
ROOT
ATOM      1  N   UNL     1       2.811   6.678  18.306  0.00  0.00    +0.000 N 
ATOM      2  C   UNL     1       2.511   5.835  19.399  0.00  0.00    +0.000 A 
ATOM      3  N   UNL     1       1.891   6.287  20.448  0.00  0.00    +0.000 NA
ATOM      4  C   UNL     1       1.449   7.601  20.510  0.00  0.00    +0.000 A 
ATOM      5  C   UNL     1       0.711   8.012  21.618  0.00  0.00    +0.000 A 
ATOM      6  C   UNL     1       0.232   9.324  21.710  0.00  0.00    +0.000 A 
ATOM      7  C   UNL     1       0.489  10.274  20.704  0.00  0.00    +0.000 A 
ATOM      8  C   UNL     1       1.214   9.833  19.587  0.00  0.00    +0.000 A 
ATOM      9  C   UNL     1       1.673   8.507  19.492  0.00  0.00    +0.000 A 
ATOM     10  C   UNL     1       2.391   8.021  18.309  0.00  0.00    +0.000 A 
ATOM     11  O   UNL     1       2.567   8.808  17.379  0.00  0.00    +0.000 OA
ENDROOT
BRANCH   2  12
ATOM     12  C   UNL     1       2.804   4.346  19.399  0.00  0.00    +0.000 A 
ATOM     13  C   UNL     1       3.644   3.761  20.354  0.00  0.00    +0.000 A 
ATOM     14  C   UNL     1       4.116   2.454  20.204  0.00  0.00    +0.000 A 
ATOM     15  C   UNL     1       3.644   1.660  19.170  0.00  0.00    +0.000 A 
ATOM     16  C   UNL     1       2.658   2.155  18.325  0.00  0.00    +0.000 A 
ATOM     17  C   UNL     1       2.216   3.489  18.429  0.00  0.00    +0.000 A 
ATOM     18  C   UNL     1       1.099   3.910  17.505  0.00  0.00    +0.000 C 
ENDBRANCH   2  12
BRANCH   7  19
ATOM     19  C   UNL     1       0.003  11.668  20.828  0.00  0.00    +0.000 A 
ATOM     20  C   UNL     1      -0.035  12.525  19.709  0.00  0.00    +0.000 A 
ATOM     21  C   UNL     1      -0.443  13.858  19.821  0.00  0.00    +0.000 A 
ATOM     22  C   UNL     1      -0.841  14.357  21.055  0.00  0.00    +0.000 A 
ATOM     23 CL   UNL     1      -1.319  16.002  21.198  0.00  0.00    +0.000 Cl
ATOM     24  C   UNL     1      -0.847  13.530  22.172  0.00  0.00    +0.000 A 
ATOM     25  C   UNL     1      -0.426  12.199  22.059  0.00  0.00    +0.000 A 
ENDBRANCH   7  19
BRANCH   1  26
ATOM     26  C   UNL     1       3.573   6.322  17.098  0.00  0.00    +0.000 C 
BRANCH  26  31
ATOM     27  N   UNL     1       6.172   5.067  15.500  0.00  0.00    +0.000 NA
ATOM     28  C   UNL     1       6.895   4.459  16.617  0.00  0.00    +0.000 C 
ATOM     29  C   UNL     1       6.105   4.575  17.919  0.00  0.00    +0.000 C 
ATOM     30  C   UNL     1       5.806   6.040  18.225  0.00  0.00    +0.000 C 
ATOM     31  C   UNL     1       5.058   6.729  17.066  0.00  0.00    +0.000 C 
ATOM     32  C   UNL     1       5.789   6.465  15.738  0.00  0.00    +0.000 C 
BRANCH  27  34
ATOM     33  C   UNL     1       6.369   3.837  13.267  0.00  0.00    +0.000 C 
ATOM     34  C   UNL     1       6.898   4.907  14.226  0.00  0.00    +0.000 C 
ENDBRANCH  27  34
ENDBRANCH  26  31
ENDBRANCH   1  26
TORSDOF 5
ENDMDL
MODEL 2
REMARK VINA RESULT:      -8.4      1.057      1.417
REMARK  Name = 
REMARK  7 active torsions:
REMARK  status: ('A' for Active; 'I' for Inactive)
REMARK    1  A    between atoms: C_1  and  C_2
REMARK    2  A    between atoms: C_2  and  N_3
REMARK    3  A    between atoms: C_7  and  C_8
REMARK    4  A    between atoms: C_8  and  N_9
REMARK    5  A    between atoms: C_10  and  C_11
REMARK    6  A    between atoms: C_16  and  C_17
REMARK    7  A    between atoms: C_22  and  C_23
REMARK                            x       y       z     vdW  Elec       q    Type
REMARK                         _______ _______ _______ _____ _____    ______ ____
ROOT
ATOM      1  N   UNL     1       2.459   7.025  18.602  0.00  0.00    +0.000 N 
ATOM      2  C   UNL     1       1.937   6.429  19.771  0.00  0.00    +0.000 A 
ATOM      3  N   UNL     1       1.276   7.127  20.645  0.00  0.00    +0.000 NA
ATOM      4  C   UNL     1       1.008   8.473  20.436  0.00  0.00    +0.000 A 
ATOM      5  C   UNL     1       0.219   9.154  21.360  0.00  0.00    +0.000 A 
ATOM      6  C   UNL     1      -0.089  10.507  21.174  0.00  0.00    +0.000 A 
ATOM      7  C   UNL     1       0.396  11.229  20.067  0.00  0.00    +0.000 A 
ATOM      8  C   UNL     1       1.169  10.517  19.137  0.00  0.00    +0.000 A 
ATOM      9  C   UNL     1       1.456   9.152  19.319  0.00  0.00    +0.000 A 
ATOM     10  C   UNL     1       2.222   8.386  18.331  0.00  0.00    +0.000 A 
ATOM     11  O   UNL     1       2.598   8.969  17.315  0.00  0.00    +0.000 OA
ENDROOT
BRANCH   2  12
ATOM     12  C   UNL     1       2.029   4.941  20.051  0.00  0.00    +0.000 A 
ATOM     13  C   UNL     1       2.347   4.449  21.322  0.00  0.00    +0.000 A 
ATOM     14  C   UNL     1       2.683   3.107  21.521  0.00  0.00    +0.000 A 
ATOM     15  C   UNL     1       2.568   2.201  20.477  0.00  0.00    +0.000 A 
ATOM     16  C   UNL     1       2.063   2.630  19.255  0.00  0.00    +0.000 A 
ATOM     17  C   UNL     1       1.777   3.990  19.025  0.00  0.00    +0.000 A 
ATOM     18  C   UNL     1       1.174   4.341  17.686  0.00  0.00    +0.000 C 
ENDBRANCH   2  12
BRANCH   7  19
ATOM     19  C   UNL     1       0.089  12.668  19.899  0.00  0.00    +0.000 A 
ATOM     20  C   UNL     1      -1.047  13.243  20.504  0.00  0.00    +0.000 A 
ATOM     21  C   UNL     1      -1.377  14.588  20.314  0.00  0.00    +0.000 A 
ATOM     22  C   UNL     1      -0.563  15.394  19.527  0.00  0.00    +0.000 A 
ATOM     23 CL   UNL     1      -0.980  17.043  19.272  0.00  0.00    +0.000 Cl
ATOM     24  C   UNL     1       0.584  14.868  18.943  0.00  0.00    +0.000 A 
ATOM     25  C   UNL     1       0.904  13.517  19.126  0.00  0.00    +0.000 A 
ENDBRANCH   7  19
BRANCH   1  26
ATOM     26  C   UNL     1       3.289   6.376  17.574  0.00  0.00    +0.000 C 
BRANCH  26  31
ATOM     27  N   UNL     1       5.804   5.000  15.942  0.00  0.00    +0.000 NA
ATOM     28  C   UNL     1       6.323   4.102  16.974  0.00  0.00    +0.000 C 
ATOM     29  C   UNL     1       5.445   4.125  18.223  0.00  0.00    +0.000 C 
ATOM     30  C   UNL     1       5.343   5.546  18.770  0.00  0.00    +0.000 C 
ATOM     31  C   UNL     1       4.815   6.534  17.709  0.00  0.00    +0.000 C 
ATOM     32  C   UNL     1       5.616   6.381  16.404  0.00  0.00    +0.000 C 
BRANCH  27  34
ATOM     33  C   UNL     1       6.189   3.901  13.666  0.00  0.00    +0.000 C 
ATOM     34  C   UNL     1       6.611   4.940  14.708  0.00  0.00    +0.000 C 
ENDBRANCH  27  34
ENDBRANCH  26  31
ENDBRANCH   1  26
TORSDOF 5
ENDMDL
MODEL 3
REMARK VINA RESULT:      -8.4      1.538      2.296
REMARK  Name = 
REMARK  7 active torsions:
REMARK  status: ('A' for Active; 'I' for Inactive)
REMARK    1  A    between atoms: C_1  and  C_2
REMARK    2  A    between atoms: C_2  and  N_3
REMARK    3  A    between atoms: C_7  and  C_8
REMARK    4  A    between atoms: C_8  and  N_9
REMARK    5  A    between atoms: C_10  and  C_11
REMARK    6  A    between atoms: C_16  and  C_17
REMARK    7  A    between atoms: C_22  and  C_23
REMARK                            x       y       z     vdW  Elec       q    Type
REMARK                         _______ _______ _______ _____ _____    ______ ____
ROOT
ATOM      1  N   UNL     1       2.629   6.589  18.586  0.00  0.00    +0.000 N 
ATOM      2  C   UNL     1       2.018   6.120  19.769  0.00  0.00    +0.000 A 
ATOM      3  N   UNL     1       1.399   6.930  20.576  0.00  0.00    +0.000 NA
ATOM      4  C   UNL     1       1.266   8.279  20.276  0.00  0.00    +0.000 A 
ATOM      5  C   UNL     1       0.518   9.088  21.128  0.00  0.00    +0.000 A 
ATOM      6  C   UNL     1       0.345  10.449  20.850  0.00  0.00    +0.000 A 
ATOM      7  C   UNL     1       0.928  11.050  19.719  0.00  0.00    +0.000 A 
ATOM      8  C   UNL     1       1.658  10.212  18.862  0.00  0.00    +0.000 A 
ATOM      9  C   UNL     1       1.810   8.841  19.137  0.00  0.00    +0.000 A 
ATOM     10  C   UNL     1       2.530   7.947  18.226  0.00  0.00    +0.000 A 
ATOM     11  O   UNL     1       2.989   8.427  17.190  0.00  0.00    +0.000 OA
ENDROOT
BRANCH   2  12
ATOM     12  C   UNL     1       1.960   4.650  20.143  0.00  0.00    +0.000 A 
ATOM     13  C   UNL     1       2.298   4.203  21.425  0.00  0.00    +0.000 A 
ATOM     14  C   UNL     1       2.493   2.845  21.694  0.00  0.00    +0.000 A 
ATOM     15  C   UNL     1       2.216   1.898  20.720  0.00  0.00    +0.000 A 
ATOM     16  C   UNL     1       1.688   2.308  19.501  0.00  0.00    +0.000 A 
ATOM     17  C   UNL     1       1.542   3.675  19.197  0.00  0.00    +0.000 A 
ATOM     18  C   UNL     1       0.902   4.013  17.872  0.00  0.00    +0.000 C 
ENDBRANCH   2  12
BRANCH   7  19
ATOM     19  C   UNL     1       0.764  12.498  19.453  0.00  0.00    +0.000 A 
ATOM     20  C   UNL     1      -0.475  13.138  19.661  0.00  0.00    +0.000 A 
ATOM     21  C   UNL     1      -0.659  14.493  19.367  0.00  0.00    +0.000 A 
ATOM     22  C   UNL     1       0.403  15.242  18.877  0.00  0.00    +0.000 A 
ATOM     23 CL   UNL     1       0.173  16.903  18.492  0.00  0.00    +0.000 Cl
ATOM     24  C   UNL     1       1.648  14.651  18.692  0.00  0.00    +0.000 A 
ATOM     25  C   UNL     1       1.824  13.291  18.976  0.00  0.00    +0.000 A 
ENDBRANCH   7  19
BRANCH   1  26
ATOM     26  C   UNL     1       3.424   5.803  17.630  0.00  0.00    +0.000 C 
BRANCH  26  31
ATOM     27  N   UNL     1       6.693   6.247  17.633  0.00  0.00    +0.000 NA
ATOM     28  C   UNL     1       7.097   5.208  16.685  0.00  0.00    +0.000 C 
ATOM     29  C   UNL     1       5.883   4.511  16.075  0.00  0.00    +0.000 C 
ATOM     30  C   UNL     1       5.016   3.905  17.174  0.00  0.00    +0.000 C 
ATOM     31  C   UNL     1       4.579   4.963  18.209  0.00  0.00    +0.000 C 
ATOM     32  C   UNL     1       5.801   5.761  18.693  0.00  0.00    +0.000 C 
BRANCH  27  34
ATOM     33  C   UNL     1       8.012   8.433  17.765  0.00  0.00    +0.000 C 
ATOM     34  C   UNL     1       7.856   6.969  18.183  0.00  0.00    +0.000 C 
ENDBRANCH  27  34
ENDBRANCH  26  31
ENDBRANCH   1  26
TORSDOF 5
ENDMDL
MODEL 4
REMARK VINA RESULT:      -8.4      4.161     10.225
REMARK  Name = 
REMARK  7 active torsions:
REMARK  status: ('A' for Active; 'I' for Inactive)
REMARK    1  A    between atoms: C_1  and  C_2
REMARK    2  A    between atoms: C_2  and  N_3
REMARK    3  A    between atoms: C_7  and  C_8
REMARK    4  A    between atoms: C_8  and  N_9
REMARK    5  A    between atoms: C_10  and  C_11
REMARK    6  A    between atoms: C_16  and  C_17
REMARK    7  A    between atoms: C_22  and  C_23
REMARK                            x       y       z     vdW  Elec       q    Type
REMARK                         _______ _______ _______ _____ _____    ______ ____
ROOT
ATOM      1  N   UNL     1      -0.954  12.819  20.678  0.00  0.00    +0.000 N 
ATOM      2  C   UNL     1      -1.228  12.472  22.019  0.00  0.00    +0.000 A 
ATOM      3  N   UNL     1      -0.863  11.323  22.506  0.00  0.00    +0.000 NA
ATOM      4  C   UNL     1      -0.138  10.418  21.743  0.00  0.00    +0.000 A 
ATOM      5  C   UNL     1       0.307   9.240  22.339  0.00  0.00    +0.000 A 
ATOM      6  C   UNL     1       1.057   8.311  21.608  0.00  0.00    +0.000 A 
ATOM      7  C   UNL     1       1.373   8.521  20.253  0.00  0.00    +0.000 A 
ATOM      8  C   UNL     1       0.935   9.724  19.680  0.00  0.00    +0.000 A 
ATOM      9  C   UNL     1       0.200  10.663  20.426  0.00  0.00    +0.000 A 
ATOM     10  C   UNL     1      -0.222  11.944  19.853  0.00  0.00    +0.000 A 
ATOM     11  O   UNL     1       0.102  12.191  18.691  0.00  0.00    +0.000 OA
ENDROOT
BRANCH   2  12
ATOM     12  C   UNL     1      -1.881  13.424  23.003  0.00  0.00    +0.000 A 
ATOM     13  C   UNL     1      -1.128  14.318  23.772  0.00  0.00    +0.000 A 
ATOM     14  C   UNL     1      -1.693  15.005  24.851  0.00  0.00    +0.000 A 
ATOM     15  C   UNL     1      -3.056  14.918  25.092  0.00  0.00    +0.000 A 
ATOM     16  C   UNL     1      -3.858  14.193  24.219  0.00  0.00    +0.000 A 
ATOM     17  C   UNL     1      -3.294  13.449  23.163  0.00  0.00    +0.000 A 
ATOM     18  C   UNL     1      -4.255  12.747  22.236  0.00  0.00    +0.000 C 
ENDBRANCH   2  12
BRANCH   7  19
ATOM     19  C   UNL     1       2.140   7.514  19.482  0.00  0.00    +0.000 A 
ATOM     20  C   UNL     1       2.289   6.196  19.958  0.00  0.00    +0.000 A 
ATOM     21  C   UNL     1       3.052   5.249  19.268  0.00  0.00    +0.000 A 
ATOM     22  C   UNL     1       3.666   5.598  18.071  0.00  0.00    +0.000 A 
ATOM     23 CL   UNL     1       4.624   4.442  17.233  0.00  0.00    +0.000 Cl
ATOM     24  C   UNL     1       3.512   6.879  17.556  0.00  0.00    +0.000 A 
ATOM     25  C   UNL     1       2.758   7.829  18.257  0.00  0.00    +0.000 A 
ENDBRANCH   7  19
BRANCH   1  26
ATOM     26  C   UNL     1      -1.376  14.043  19.978  0.00  0.00    +0.000 C 
BRANCH  26  31
ATOM     27  N   UNL     1      -0.406  16.763  18.383  0.00  0.00    +0.000 NA
ATOM     28  C   UNL     1       1.045  16.648  18.532  0.00  0.00    +0.000 C 
ATOM     29  C   UNL     1       1.431  15.339  19.216  0.00  0.00    +0.000 C 
ATOM     30  C   UNL     1       0.756  15.239  20.581  0.00  0.00    +0.000 C 
ATOM     31  C   UNL     1      -0.777  15.372  20.476  0.00  0.00    +0.000 C 
ATOM     32  C   UNL     1      -1.140  16.615  19.646  0.00  0.00    +0.000 C 
BRANCH  27  34
ATOM     33  C   UNL     1       0.142  18.445  16.537  0.00  0.00    +0.000 C 
ATOM     34  C   UNL     1      -0.787  17.996  17.668  0.00  0.00    +0.000 C 
ENDBRANCH  27  34
ENDBRANCH  26  31
ENDBRANCH   1  26
TORSDOF 5
ENDMDL
MODEL 5
REMARK VINA RESULT:      -8.1      1.143      1.974
REMARK  Name = 
REMARK  7 active torsions:
REMARK  status: ('A' for Active; 'I' for Inactive)
REMARK    1  A    between atoms: C_1  and  C_2
REMARK    2  A    between atoms: C_2  and  N_3
REMARK    3  A    between atoms: C_7  and  C_8
REMARK    4  A    between atoms: C_8  and  N_9
REMARK    5  A    between atoms: C_10  and  C_11
REMARK    6  A    between atoms: C_16  and  C_17
REMARK    7  A    between atoms: C_22  and  C_23
REMARK                            x       y       z     vdW  Elec       q    Type
REMARK                         _______ _______ _______ _____ _____    ______ ____
ROOT
ATOM      1  N   UNL     1       2.672   6.802  18.647  0.00  0.00    +0.000 N 
ATOM      2  C   UNL     1       2.273   5.862  19.622  0.00  0.00    +0.000 A 
ATOM      3  N   UNL     1       1.558   6.217  20.648  0.00  0.00    +0.000 NA
ATOM      4  C   UNL     1       1.110   7.522  20.793  0.00  0.00    +0.000 A 
ATOM      5  C   UNL     1       0.272   7.831  21.862  0.00  0.00    +0.000 A 
ATOM      6  C   UNL     1      -0.216   9.132  22.033  0.00  0.00    +0.000 A 
ATOM      7  C   UNL     1       0.131  10.172  21.150  0.00  0.00    +0.000 A 
ATOM      8  C   UNL     1       0.958   9.833  20.067  0.00  0.00    +0.000 A 
ATOM      9  C   UNL     1       1.426   8.519  19.890  0.00  0.00    +0.000 A 
ATOM     10  C   UNL     1       2.251   8.142  18.738  0.00  0.00    +0.000 A 
ATOM     11  O   UNL     1       2.511   9.011  17.907  0.00  0.00    +0.000 OA
ENDROOT
BRANCH   2  12
ATOM     12  C   UNL     1       2.568   4.378  19.509  0.00  0.00    +0.000 A 
ATOM     13  C   UNL     1       3.360   3.710  20.450  0.00  0.00    +0.000 A 
ATOM     14  C   UNL     1       3.841   2.419  20.211  0.00  0.00    +0.000 A 
ATOM     15  C   UNL     1       3.421   1.718  19.091  0.00  0.00    +0.000 A 
ATOM     16  C   UNL     1       2.477   2.288  18.244  0.00  0.00    +0.000 A 
ATOM     17  C   UNL     1       2.030   3.609  18.441  0.00  0.00    +0.000 A 
ATOM     18  C   UNL     1       0.959   4.111  17.503  0.00  0.00    +0.000 C 
ENDBRANCH   2  12
BRANCH   7  19
ATOM     19  C   UNL     1      -0.366  11.551  21.360  0.00  0.00    +0.000 A 
ATOM     20  C   UNL     1      -0.875  11.956  22.610  0.00  0.00    +0.000 A 
ATOM     21  C   UNL     1      -1.394  13.239  22.810  0.00  0.00    +0.000 A 
ATOM     22  C   UNL     1      -1.396  14.153  21.764  0.00  0.00    +0.000 A 
ATOM     23 CL   UNL     1      -2.056  15.723  22.001  0.00  0.00    +0.000 Cl
ATOM     24  C   UNL     1      -0.870  13.798  20.527  0.00  0.00    +0.000 A 
ATOM     25  C   UNL     1      -0.363  12.508  20.328  0.00  0.00    +0.000 A 
ENDBRANCH   7  19
BRANCH   1  26
ATOM     26  C   UNL     1       3.543   6.556  17.486  0.00  0.00    +0.000 C 
BRANCH  26  31
ATOM     27  N   UNL     1       6.792   6.949  17.077  0.00  0.00    +0.000 NA
ATOM     28  C   UNL     1       7.006   6.125  15.886  0.00  0.00    +0.000 C 
ATOM     29  C   UNL     1       5.685   5.585  15.341  0.00  0.00    +0.000 C 
ATOM     30  C   UNL     1       4.964   4.775  16.414  0.00  0.00    +0.000 C 
ATOM     31  C   UNL     1       4.732   5.600  17.697  0.00  0.00    +0.000 C 
ATOM     32  C   UNL     1       6.046   6.264  18.140  0.00  0.00    +0.000 C 
BRANCH  27  34
ATOM     33  C   UNL     1       8.055   9.030  17.856  0.00  0.00    +0.000 C 
ATOM     34  C   UNL     1       8.055   7.525  17.577  0.00  0.00    +0.000 C 
ENDBRANCH  27  34
ENDBRANCH  26  31
ENDBRANCH   1  26
TORSDOF 5
ENDMDL
MODEL 6
REMARK VINA RESULT:      -8.0      4.613     10.877
REMARK  Name = 
REMARK  7 active torsions:
REMARK  status: ('A' for Active; 'I' for Inactive)
REMARK    1  A    between atoms: C_1  and  C_2
REMARK    2  A    between atoms: C_2  and  N_3
REMARK    3  A    between atoms: C_7  and  C_8
REMARK    4  A    between atoms: C_8  and  N_9
REMARK    5  A    between atoms: C_10  and  C_11
REMARK    6  A    between atoms: C_16  and  C_17
REMARK    7  A    between atoms: C_22  and  C_23
REMARK                            x       y       z     vdW  Elec       q    Type
REMARK                         _______ _______ _______ _____ _____    ______ ____
ROOT
ATOM      1  N   UNL     1      -1.971  12.454  21.209  0.00  0.00    +0.000 N 
ATOM      2  C   UNL     1      -1.554  12.558  22.554  0.00  0.00    +0.000 A 
ATOM      3  N   UNL     1      -0.712  11.711  23.066  0.00  0.00    +0.000 NA
ATOM      4  C   UNL     1      -0.145  10.707  22.294  0.00  0.00    +0.000 A 
ATOM      5  C   UNL     1       0.819   9.880  22.866  0.00  0.00    +0.000 A 
ATOM      6  C   UNL     1       1.428   8.868  22.115  0.00  0.00    +0.000 A 
ATOM      7  C   UNL     1       1.080   8.636  20.771  0.00  0.00    +0.000 A 
ATOM      8  C   UNL     1       0.123   9.495  20.208  0.00  0.00    +0.000 A 
ATOM      9  C   UNL     1      -0.468  10.524  20.963  0.00  0.00    +0.000 A 
ATOM     10  C   UNL     1      -1.433  11.457  20.373  0.00  0.00    +0.000 A 
ATOM     11  O   UNL     1      -1.704  11.328  19.180  0.00  0.00    +0.000 OA
ENDROOT
BRANCH   2  12
ATOM     12  C   UNL     1      -1.980  13.694  23.466  0.00  0.00    +0.000 A 
ATOM     13  C   UNL     1      -1.344  14.940  23.436  0.00  0.00    +0.000 A 
ATOM     14  C   UNL     1      -1.558  15.890  24.439  0.00  0.00    +0.000 A 
ATOM     15  C   UNL     1      -2.520  15.667  25.413  0.00  0.00    +0.000 A 
ATOM     16  C   UNL     1      -3.305  14.521  25.346  0.00  0.00    +0.000 A 
ATOM     17  C   UNL     1      -3.060  13.529  24.376  0.00  0.00    +0.000 A 
ATOM     18  C   UNL     1      -4.007  12.354  24.350  0.00  0.00    +0.000 C 
ENDBRANCH   2  12
BRANCH   7  19
ATOM     19  C   UNL     1       1.708   7.541  19.997  0.00  0.00    +0.000 A 
ATOM     20  C   UNL     1       2.289   7.784  18.736  0.00  0.00    +0.000 A 
ATOM     21  C   UNL     1       2.841   6.752  17.971  0.00  0.00    +0.000 A 
ATOM     22  C   UNL     1       2.840   5.453  18.464  0.00  0.00    +0.000 A 
ATOM     23 CL   UNL     1       3.496   4.177  17.514  0.00  0.00    +0.000 Cl
ATOM     24  C   UNL     1       2.305   5.182  19.718  0.00  0.00    +0.000 A 
ATOM     25  C   UNL     1       1.743   6.217  20.476  0.00  0.00    +0.000 A 
ENDBRANCH   7  19
BRANCH   1  26
ATOM     26  C   UNL     1      -2.972  13.290  20.526  0.00  0.00    +0.000 C 
BRANCH  26  31
ATOM     27  N   UNL     1      -5.848  13.150  18.916  0.00  0.00    +0.000 NA
ATOM     28  C   UNL     1      -6.386  14.474  19.230  0.00  0.00    +0.000 C 
ATOM     29  C   UNL     1      -5.378  15.311  20.016  0.00  0.00    +0.000 C 
ATOM     30  C   UNL     1      -4.984  14.589  21.301  0.00  0.00    +0.000 C 
ATOM     31  C   UNL     1      -4.426  13.179  21.021  0.00  0.00    +0.000 C 
ATOM     32  C   UNL     1      -5.384  12.409  20.096  0.00  0.00    +0.000 C 
BRANCH  27  34
ATOM     33  C   UNL     1      -6.818  10.848  18.372  0.00  0.00    +0.000 C 
ATOM     34  C   UNL     1      -6.789  12.355  18.104  0.00  0.00    +0.000 C 
ENDBRANCH  27  34
ENDBRANCH  26  31
ENDBRANCH   1  26
TORSDOF 5
ENDMDL
MODEL 7
REMARK VINA RESULT:      -7.9      3.984      9.665
REMARK  Name = 
REMARK  7 active torsions:
REMARK  status: ('A' for Active; 'I' for Inactive)
REMARK    1  A    between atoms: C_1  and  C_2
REMARK    2  A    between atoms: C_2  and  N_3
REMARK    3  A    between atoms: C_7  and  C_8
REMARK    4  A    between atoms: C_8  and  N_9
REMARK    5  A    between atoms: C_10  and  C_11
REMARK    6  A    between atoms: C_16  and  C_17
REMARK    7  A    between atoms: C_22  and  C_23
REMARK                            x       y       z     vdW  Elec       q    Type
REMARK                         _______ _______ _______ _____ _____    ______ ____
ROOT
ATOM      1  N   UNL     1       0.708  11.882  19.086  0.00  0.00    +0.000 N 
ATOM      2  C   UNL     1      -0.006  11.348  20.181  0.00  0.00    +0.000 A 
ATOM      3  N   UNL     1       0.089  10.092  20.499  0.00  0.00    +0.000 NA
ATOM      4  C   UNL     1       0.941   9.239  19.810  0.00  0.00    +0.000 A 
ATOM      5  C   UNL     1       1.075   7.923  20.247  0.00  0.00    +0.000 A 
ATOM      6  C   UNL     1       1.938   7.038  19.590  0.00  0.00    +0.000 A 
ATOM      7  C   UNL     1       2.684   7.435  18.465  0.00  0.00    +0.000 A 
ATOM      8  C   UNL     1       2.551   8.771  18.056  0.00  0.00    +0.000 A 
ATOM      9  C   UNL     1       1.699   9.660  18.735  0.00  0.00    +0.000 A 
ATOM     10  C   UNL     1       1.588  11.069  18.347  0.00  0.00    +0.000 A 
ATOM     11  O   UNL     1       2.283  11.467  17.413  0.00  0.00    +0.000 OA
ENDROOT
BRANCH   2  12
ATOM     12  C   UNL     1      -0.856  12.198  21.107  0.00  0.00    +0.000 A 
ATOM     13  C   UNL     1      -0.334  12.759  22.278  0.00  0.00    +0.000 A 
ATOM     14  C   UNL     1      -1.167  13.317  23.252  0.00  0.00    +0.000 A 
ATOM     15  C   UNL     1      -2.525  13.452  23.009  0.00  0.00    +0.000 A 
ATOM     16  C   UNL     1      -3.037  13.082  21.770  0.00  0.00    +0.000 A 
ATOM     17  C   UNL     1      -2.219  12.465  20.803  0.00  0.00    +0.000 A 
ATOM     18  C   UNL     1      -2.856  12.159  19.469  0.00  0.00    +0.000 C 
ENDBRANCH   2  12
BRANCH   7  19
ATOM     19  C   UNL     1       3.569   6.479  17.759  0.00  0.00    +0.000 A 
ATOM     20  C   UNL     1       4.659   6.933  16.990  0.00  0.00    +0.000 A 
ATOM     21  C   UNL     1       5.473   6.047  16.278  0.00  0.00    +0.000 A 
ATOM     22  C   UNL     1       5.224   4.681  16.338  0.00  0.00    +0.000 A 
ATOM     23 CL   UNL     1       6.209   3.591  15.443  0.00  0.00    +0.000 Cl
ATOM     24  C   UNL     1       4.178   4.197  17.114  0.00  0.00    +0.000 A 
ATOM     25  C   UNL     1       3.357   5.089  17.816  0.00  0.00    +0.000 A 
ENDBRANCH   7  19
BRANCH   1  26
ATOM     26  C   UNL     1       0.633  13.258  18.569  0.00  0.00    +0.000 C 
BRANCH  26  31
ATOM     27  N   UNL     1       0.960  16.510  18.120  0.00  0.00    +0.000 NA
ATOM     28  C   UNL     1       2.415  16.611  18.004  0.00  0.00    +0.000 C 
ATOM     29  C   UNL     1       3.071  15.232  18.026  0.00  0.00    +0.000 C 
ATOM     30  C   UNL     1       2.699  14.493  19.308  0.00  0.00    +0.000 C 
ATOM     31  C   UNL     1       1.171  14.376  19.482  0.00  0.00    +0.000 C 
ATOM     32  C   UNL     1       0.515  15.755  19.298  0.00  0.00    +0.000 C 
BRANCH  27  34
ATOM     33  C   UNL     1      -1.185  17.881  18.360  0.00  0.00    +0.000 C 
ATOM     34  C   UNL     1       0.311  17.833  18.038  0.00  0.00    +0.000 C 
ENDBRANCH  27  34
ENDBRANCH  26  31
ENDBRANCH   1  26
TORSDOF 5
ENDMDL
MODEL 8
REMARK VINA RESULT:      -7.9      3.997     10.037
REMARK  Name = 
REMARK  7 active torsions:
REMARK  status: ('A' for Active; 'I' for Inactive)
REMARK    1  A    between atoms: C_1  and  C_2
REMARK    2  A    between atoms: C_2  and  N_3
REMARK    3  A    between atoms: C_7  and  C_8
REMARK    4  A    between atoms: C_8  and  N_9
REMARK    5  A    between atoms: C_10  and  C_11
REMARK    6  A    between atoms: C_16  and  C_17
REMARK    7  A    between atoms: C_22  and  C_23
REMARK                            x       y       z     vdW  Elec       q    Type
REMARK                         _______ _______ _______ _____ _____    ______ ____
ROOT
ATOM      1  N   UNL     1      -0.455  12.511  20.020  0.00  0.00    +0.000 N 
ATOM      2  C   UNL     1      -0.973  12.084  21.263  0.00  0.00    +0.000 A 
ATOM      3  N   UNL     1      -0.744  10.887  21.713  0.00  0.00    +0.000 NA
ATOM      4  C   UNL     1       0.066  10.001  21.017  0.00  0.00    +0.000 A 
ATOM      5  C   UNL     1       0.353   8.762  21.586  0.00  0.00    +0.000 A 
ATOM      6  C   UNL     1       1.181   7.848  20.923  0.00  0.00    +0.000 A 
ATOM      7  C   UNL     1       1.737   8.135  19.662  0.00  0.00    +0.000 A 
ATOM      8  C   UNL     1       1.453   9.398  19.119  0.00  0.00    +0.000 A 
ATOM      9  C   UNL     1       0.638  10.319  19.801  0.00  0.00    +0.000 A 
ATOM     10  C   UNL     1       0.373  11.658  19.266  0.00  0.00    +0.000 A 
ATOM     11  O   UNL     1       0.904  11.969  18.200  0.00  0.00    +0.000 OA
ENDROOT
BRANCH   2  12
ATOM     12  C   UNL     1      -1.749  12.999  22.193  0.00  0.00    +0.000 A 
ATOM     13  C   UNL     1      -1.114  13.738  23.197  0.00  0.00    +0.000 A 
ATOM     14  C   UNL     1      -1.845  14.371  24.207  0.00  0.00    +0.000 A 
ATOM     15  C   UNL     1      -3.230  14.395  24.150  0.00  0.00    +0.000 A 
ATOM     16  C   UNL     1      -3.878  13.837  23.054  0.00  0.00    +0.000 A 
ATOM     17  C   UNL     1      -3.157  13.146  22.060  0.00  0.00    +0.000 A 
ATOM     18  C   UNL     1      -3.946  12.631  20.881  0.00  0.00    +0.000 C 
ENDBRANCH   2  12
BRANCH   7  19
ATOM     19  C   UNL     1       2.585   7.147  18.958  0.00  0.00    +0.000 A 
ATOM     20  C   UNL     1       3.339   7.515  17.825  0.00  0.00    +0.000 A 
ATOM     21  C   UNL     1       4.105   6.582  17.119  0.00  0.00    +0.000 A 
ATOM     22  C   UNL     1       4.147   5.260  17.546  0.00  0.00    +0.000 A 
ATOM     23 CL   UNL     1       5.069   4.106  16.666  0.00  0.00    +0.000 Cl
ATOM     24  C   UNL     1       3.442   4.870  18.679  0.00  0.00    +0.000 A 
ATOM     25  C   UNL     1       2.667   5.805  19.376  0.00  0.00    +0.000 A 
ENDBRANCH   7  19
BRANCH   1  26
ATOM     26  C   UNL     1      -0.700  13.802  19.357  0.00  0.00    +0.000 C 
BRANCH  26  31
ATOM     27  N   UNL     1       0.036  16.802  18.201  0.00  0.00    +0.000 NA
ATOM     28  C   UNL     1       1.497  16.741  18.231  0.00  0.00    +0.000 C 
ATOM     29  C   UNL     1       1.987  15.357  18.650  0.00  0.00    +0.000 C 
ATOM     30  C   UNL     1       1.420  14.989  20.018  0.00  0.00    +0.000 C 
ATOM     31  C   UNL     1      -0.121  15.056  20.038  0.00  0.00    +0.000 C 
ATOM     32  C   UNL     1      -0.596  16.401  19.464  0.00  0.00    +0.000 C 
BRANCH  27  34
ATOM     33  C   UNL     1      -1.830  18.550  18.234  0.00  0.00    +0.000 C 
ATOM     34  C   UNL     1      -0.448  18.117  17.738  0.00  0.00    +0.000 C 
ENDBRANCH  27  34
ENDBRANCH  26  31
ENDBRANCH   1  26
TORSDOF 5
ENDMDL
MODEL 9
REMARK VINA RESULT:      -7.9      4.567     10.875
REMARK  Name = 
REMARK  7 active torsions:
REMARK  status: ('A' for Active; 'I' for Inactive)
REMARK    1  A    between atoms: C_1  and  C_2
REMARK    2  A    between atoms: C_2  and  N_3
REMARK    3  A    between atoms: C_7  and  C_8
REMARK    4  A    between atoms: C_8  and  N_9
REMARK    5  A    between atoms: C_10  and  C_11
REMARK    6  A    between atoms: C_16  and  C_17
REMARK    7  A    between atoms: C_22  and  C_23
REMARK                            x       y       z     vdW  Elec       q    Type
REMARK                         _______ _______ _______ _____ _____    ______ ____
ROOT
ATOM      1  N   UNL     1      -1.975  12.187  21.042  0.00  0.00    +0.000 N 
ATOM      2  C   UNL     1      -1.619  12.210  22.408  0.00  0.00    +0.000 A 
ATOM      3  N   UNL     1      -0.755  11.371  22.894  0.00  0.00    +0.000 NA
ATOM      4  C   UNL     1      -0.105  10.456  22.077  0.00  0.00    +0.000 A 
ATOM      5  C   UNL     1       0.878   9.638  22.629  0.00  0.00    +0.000 A 
ATOM      6  C   UNL     1       1.569   8.716  21.835  0.00  0.00    +0.000 A 
ATOM      7  C   UNL     1       1.289   8.569  20.463  0.00  0.00    +0.000 A 
ATOM      8  C   UNL     1       0.311   9.418  19.923  0.00  0.00    +0.000 A 
ATOM      9  C   UNL     1      -0.363  10.357  20.723  0.00  0.00    +0.000 A 
ATOM     10  C   UNL     1      -1.352  11.282  20.161  0.00  0.00    +0.000 A 
ATOM     11  O   UNL     1      -1.567  11.230  18.950  0.00  0.00    +0.000 OA
ENDROOT
BRANCH   2  12
ATOM     12  C   UNL     1      -2.141  13.252  23.380  0.00  0.00    +0.000 A 
ATOM     13  C   UNL     1      -3.205  12.982  24.248  0.00  0.00    +0.000 A 
ATOM     14  C   UNL     1      -3.849  14.004  24.951  0.00  0.00    +0.000 A 
ATOM     15  C   UNL     1      -3.349  15.297  24.908  0.00  0.00    +0.000 A 
ATOM     16  C   UNL     1      -2.174  15.551  24.210  0.00  0.00    +0.000 A 
ATOM     17  C   UNL     1      -1.549  14.543  23.450  0.00  0.00    +0.000 A 
ATOM     18  C   UNL     1      -0.246  14.905  22.780  0.00  0.00    +0.000 C 
ENDBRANCH   2  12
BRANCH   7  19
ATOM     19  C   UNL     1       2.005   7.567  19.640  0.00  0.00    +0.000 A 
ATOM     20  C   UNL     1       2.158   6.239  20.086  0.00  0.00    +0.000 A 
ATOM     21  C   UNL     1       2.875   5.295  19.344  0.00  0.00    +0.000 A 
ATOM     22  C   UNL     1       3.436   5.657  18.126  0.00  0.00    +0.000 A 
ATOM     23 CL   UNL     1       4.338   4.504  17.223  0.00  0.00    +0.000 Cl
ATOM     24  C   UNL     1       3.275   6.949  17.640  0.00  0.00    +0.000 A 
ATOM     25  C   UNL     1       2.568   7.895  18.392  0.00  0.00    +0.000 A 
ENDBRANCH   7  19
BRANCH   1  26
ATOM     26  C   UNL     1      -2.991  13.020  20.378  0.00  0.00    +0.000 C 
BRANCH  26  31
ATOM     27  N   UNL     1      -5.732  13.411  18.585  0.00  0.00    +0.000 NA
ATOM     28  C   UNL     1      -6.376  14.495  19.328  0.00  0.00    +0.000 C 
ATOM     29  C   UNL     1      -5.483  15.000  20.460  0.00  0.00    +0.000 C 
ATOM     30  C   UNL     1      -5.133  13.855  21.405  0.00  0.00    +0.000 C 
ATOM     31  C   UNL     1      -4.466  12.679  20.662  0.00  0.00    +0.000 C 
ATOM     32  C   UNL     1      -5.305  12.291  19.433  0.00  0.00    +0.000 C 
BRANCH  27  34
ATOM     33  C   UNL     1      -7.188  14.051  16.583  0.00  0.00    +0.000 C 
ATOM     34  C   UNL     1      -6.560  12.958  17.452  0.00  0.00    +0.000 C 
ENDBRANCH  27  34
ENDBRANCH  26  31
ENDBRANCH   1  26
TORSDOF 5
ENDMDL
