MODEL 1
REMARK VINA RESULT:      -7.2      0.000      0.000
REMARK  Name = 
REMARK  11 active torsions:
REMARK  status: ('A' for Active; 'I' for Inactive)
REMARK    1  A    between atoms: C_1  and  C_2
REMARK    2  A    between atoms: C_2  and  C_3
REMARK    3  A    between atoms: C_3  and  C_4
REMARK    4  A    between atoms: C_4  and  C_5
REMARK    5  A    between atoms: C_5  and  C_6
REMARK    6  A    between atoms: C_6  and  C_7
REMARK    7  A    between atoms: C_7  and  N_8
REMARK    8  A    between atoms: N_8  and  C_9
REMARK    9  A    between atoms: N_12  and  N_13
REMARK   10  A    between atoms: C_14  and  C_15
REMARK   11  A    between atoms: C_21  and  O_22
REMARK                            x       y       z     vdW  Elec       q    Type
REMARK                         _______ _______ _______ _____ _____    ______ ____
ROOT
ATOM      1  N   UNL     1       2.306   2.510  19.471  0.00  0.00    +0.000 N 
ATOM      2  C   UNL     1       1.220   2.011  18.624  0.00  0.00    +0.000 C 
ATOM      3  C   UNL     1       3.542   2.774  18.916  0.00  0.00    +0.000 C 
ATOM      4  N   UNL     1       4.671   2.604  19.528  0.00  0.00    +0.000 NA
ATOM      5  N   UNL     1       3.476   3.202  17.603  0.00  0.00    +0.000 N 
ATOM      6  H   UNL     1       4.516   2.252  20.468  0.00  0.00    +0.000 HD
ATOM      7  H   UNL     1       2.732   3.873  17.448  0.00  0.00    +0.000 HD
ENDROOT
BRANCH   5   8
ATOM      8  N   UNL     1       4.509   3.304  16.710  0.00  0.00    +0.000 NA
ATOM      9  C   UNL     1       4.824   4.525  16.415  0.00  0.00    +0.000 C 
BRANCH   9  10
ATOM     10  C   UNL     1       5.903   4.792  15.493  0.00  0.00    +0.000 A 
ATOM     11  C   UNL     1       7.021   5.563  15.741  0.00  0.00    +0.000 A 
ATOM     12  N   UNL     1       7.804   5.549  14.623  0.00  0.00    +0.000 N 
ATOM     13  C   UNL     1       7.215   4.795  13.635  0.00  0.00    +0.000 A 
ATOM     14  C   UNL     1       7.653   4.503  12.337  0.00  0.00    +0.000 A 
ATOM     15  C   UNL     1       6.829   3.704  11.541  0.00  0.00    +0.000 A 
ATOM     16  C   UNL     1       5.621   3.221  12.031  0.00  0.00    +0.000 A 
ATOM     17  C   UNL     1       5.195   3.509  13.327  0.00  0.00    +0.000 A 
ATOM     18  C   UNL     1       6.009   4.311  14.151  0.00  0.00    +0.000 A 
ATOM     19  H   UNL     1       8.693   6.021  14.533  0.00  0.00    +0.000 HD
BRANCH  16  20
ATOM     20  O   UNL     1       4.803   2.444  11.262  0.00  0.00    +0.000 OA
ATOM     21  H   UNL     1       4.532   1.672  11.784  0.00  0.00    +0.000 HD
ENDBRANCH  16  20
ENDBRANCH   9  10
ENDBRANCH   5   8
BRANCH   1  22
ATOM     22  C   UNL     1       2.104   2.368  20.915  0.00  0.00    +0.000 C 
BRANCH  22  23
ATOM     23  C   UNL     1       1.827   3.723  21.571  0.00  0.00    +0.000 C 
BRANCH  23  24
ATOM     24  C   UNL     1       1.190   4.730  20.609  0.00  0.00    +0.000 C 
BRANCH  24  25
ATOM     25  C   UNL     1       1.917   6.074  20.673  0.00  0.00    +0.000 C 
BRANCH  25  26
ATOM     26  C   UNL     1       2.982   6.190  19.581  0.00  0.00    +0.000 C 
BRANCH  26  28
ATOM     27  C   UNL     1       2.326   8.081  18.051  0.00  0.00    +0.000 C 
ATOM     28  C   UNL     1       2.355   6.574  18.242  0.00  0.00    +0.000 C 
ENDBRANCH  26  28
ENDBRANCH  25  26
ENDBRANCH  24  25
ENDBRANCH  23  24
ENDBRANCH  22  23
ENDBRANCH   1  22
TORSDOF 9
ENDMDL
MODEL 2
REMARK VINA RESULT:      -7.0      6.187      8.077
REMARK  Name = 
REMARK  11 active torsions:
REMARK  status: ('A' for Active; 'I' for Inactive)
REMARK    1  A    between atoms: C_1  and  C_2
REMARK    2  A    between atoms: C_2  and  C_3
REMARK    3  A    between atoms: C_3  and  C_4
REMARK    4  A    between atoms: C_4  and  C_5
REMARK    5  A    between atoms: C_5  and  C_6
REMARK    6  A    between atoms: C_6  and  C_7
REMARK    7  A    between atoms: C_7  and  N_8
REMARK    8  A    between atoms: N_8  and  C_9
REMARK    9  A    between atoms: N_12  and  N_13
REMARK   10  A    between atoms: C_14  and  C_15
REMARK   11  A    between atoms: C_21  and  O_22
REMARK                            x       y       z     vdW  Elec       q    Type
REMARK                         _______ _______ _______ _____ _____    ______ ____
ROOT
ATOM      1  N   UNL     1       6.816   5.643  16.972  0.00  0.00    +0.000 N 
ATOM      2  C   UNL     1       7.249   6.066  15.638  0.00  0.00    +0.000 C 
ATOM      3  C   UNL     1       7.388   6.216  18.091  0.00  0.00    +0.000 C 
ATOM      4  N   UNL     1       7.601   5.591  19.205  0.00  0.00    +0.000 NA
ATOM      5  N   UNL     1       7.767   7.532  17.903  0.00  0.00    +0.000 N 
ATOM      6  H   UNL     1       7.288   4.627  19.137  0.00  0.00    +0.000 HD
ATOM      7  H   UNL     1       7.074   8.069  17.395  0.00  0.00    +0.000 HD
ENDROOT
BRANCH   5   8
ATOM      8  N   UNL     1       8.570   8.288  18.714  0.00  0.00    +0.000 NA
ATOM      9  C   UNL     1       8.542   9.554  18.442  0.00  0.00    +0.000 C 
BRANCH   9  10
ATOM     10  C   UNL     1       9.329  10.480  19.221  0.00  0.00    +0.000 A 
ATOM     11  C   UNL     1       9.268  10.660  20.588  0.00  0.00    +0.000 A 
ATOM     12  N   UNL     1      10.184  11.611  20.934  0.00  0.00    +0.000 N 
ATOM     13  C   UNL     1      10.838  12.075  19.817  0.00  0.00    +0.000 A 
ATOM     14  C   UNL     1      11.846  13.039  19.693  0.00  0.00    +0.000 A 
ATOM     15  C   UNL     1      12.324  13.315  18.410  0.00  0.00    +0.000 A 
ATOM     16  C   UNL     1      11.810  12.650  17.303  0.00  0.00    +0.000 A 
ATOM     17  C   UNL     1      10.811  11.685  17.434  0.00  0.00    +0.000 A 
ATOM     18  C   UNL     1      10.315  11.386  18.718  0.00  0.00    +0.000 A 
ATOM     19  H   UNL     1      10.361  11.929  21.876  0.00  0.00    +0.000 HD
BRANCH  16  20
ATOM     20  O   UNL     1      12.262  12.914  16.042  0.00  0.00    +0.000 OA
ATOM     21  H   UNL     1      12.901  12.227  15.794  0.00  0.00    +0.000 HD
ENDBRANCH  16  20
ENDBRANCH   9  10
ENDBRANCH   5   8
BRANCH   1  22
ATOM     22  C   UNL     1       6.052   4.396  17.028  0.00  0.00    +0.000 C 
BRANCH  22  23
ATOM     23  C   UNL     1       4.627   4.642  17.532  0.00  0.00    +0.000 C 
BRANCH  23  24
ATOM     24  C   UNL     1       3.848   3.345  17.770  0.00  0.00    +0.000 C 
BRANCH  24  25
ATOM     25  C   UNL     1       3.122   3.388  19.114  0.00  0.00    +0.000 C 
BRANCH  25  26
ATOM     26  C   UNL     1       2.200   4.604  19.216  0.00  0.00    +0.000 C 
BRANCH  26  28
ATOM     27  C   UNL     1       1.516   3.202  21.195  0.00  0.00    +0.000 C 
ATOM     28  C   UNL     1       1.279   4.494  20.430  0.00  0.00    +0.000 C 
ENDBRANCH  26  28
ENDBRANCH  25  26
ENDBRANCH  24  25
ENDBRANCH  23  24
ENDBRANCH  22  23
ENDBRANCH   1  22
TORSDOF 9
ENDMDL
MODEL 3
REMARK VINA RESULT:      -6.8      4.590      8.196
REMARK  Name = 
REMARK  11 active torsions:
REMARK  status: ('A' for Active; 'I' for Inactive)
REMARK    1  A    between atoms: C_1  and  C_2
REMARK    2  A    between atoms: C_2  and  C_3
REMARK    3  A    between atoms: C_3  and  C_4
REMARK    4  A    between atoms: C_4  and  C_5
REMARK    5  A    between atoms: C_5  and  C_6
REMARK    6  A    between atoms: C_6  and  C_7
REMARK    7  A    between atoms: C_7  and  N_8
REMARK    8  A    between atoms: N_8  and  C_9
REMARK    9  A    between atoms: N_12  and  N_13
REMARK   10  A    between atoms: C_14  and  C_15
REMARK   11  A    between atoms: C_21  and  O_22
REMARK                            x       y       z     vdW  Elec       q    Type
REMARK                         _______ _______ _______ _____ _____    ______ ____
ROOT
ATOM      1  N   UNL     1       4.526   5.639  18.295  0.00  0.00    +0.000 N 
ATOM      2  C   UNL     1       5.224   6.523  17.358  0.00  0.00    +0.000 C 
ATOM      3  C   UNL     1       3.521   6.144  19.095  0.00  0.00    +0.000 C 
ATOM      4  N   UNL     1       3.272   5.742  20.300  0.00  0.00    +0.000 NA
ATOM      5  N   UNL     1       2.814   7.175  18.505  0.00  0.00    +0.000 N 
ATOM      6  H   UNL     1       3.918   5.005  20.569  0.00  0.00    +0.000 HD
ATOM      7  H   UNL     1       2.601   6.995  17.530  0.00  0.00    +0.000 HD
ENDROOT
BRANCH   5   8
ATOM      8  N   UNL     1       1.940   8.037  19.113  0.00  0.00    +0.000 NA
ATOM      9  C   UNL     1       1.566   9.019  18.356  0.00  0.00    +0.000 C 
BRANCH   9  10
ATOM     10  C   UNL     1       0.637  10.005  18.856  0.00  0.00    +0.000 A 
ATOM     11  C   UNL     1       0.828  10.834  19.943  0.00  0.00    +0.000 A 
ATOM     12  N   UNL     1      -0.275  11.628  20.072  0.00  0.00    +0.000 N 
ATOM     13  C   UNL     1      -1.198  11.327  19.099  0.00  0.00    +0.000 A 
ATOM     14  C   UNL     1      -2.460  11.881  18.846  0.00  0.00    +0.000 A 
ATOM     15  C   UNL     1      -3.191  11.363  17.774  0.00  0.00    +0.000 A 
ATOM     16  C   UNL     1      -2.674  10.335  16.995  0.00  0.00    +0.000 A 
ATOM     17  C   UNL     1      -1.415   9.793  17.247  0.00  0.00    +0.000 A 
ATOM     18  C   UNL     1      -0.656  10.301  18.320  0.00  0.00    +0.000 A 
ATOM     19  H   UNL     1      -0.396  12.339  20.779  0.00  0.00    +0.000 HD
BRANCH  16  20
ATOM     20  O   UNL     1      -3.381   9.814  15.948  0.00  0.00    +0.000 OA
ATOM     21  H   UNL     1      -2.946   8.995  15.662  0.00  0.00    +0.000 HD
ENDBRANCH  16  20
ENDBRANCH   9  10
ENDBRANCH   5   8
BRANCH   1  22
ATOM     22  C   UNL     1       5.177   4.355  18.564  0.00  0.00    +0.000 C 
BRANCH  22  23
ATOM     23  C   UNL     1       4.145   3.236  18.729  0.00  0.00    +0.000 C 
BRANCH  23  24
ATOM     24  C   UNL     1       3.256   3.061  17.494  0.00  0.00    +0.000 C 
BRANCH  24  25
ATOM     25  C   UNL     1       1.782   3.241  17.860  0.00  0.00    +0.000 C 
BRANCH  25  26
ATOM     26  C   UNL     1       1.375   2.331  19.019  0.00  0.00    +0.000 C 
BRANCH  26  28
ATOM     27  C   UNL     1       1.485   2.742  21.502  0.00  0.00    +0.000 C 
ATOM     28  C   UNL     1       0.831   3.146  20.192  0.00  0.00    +0.000 C 
ENDBRANCH  26  28
ENDBRANCH  25  26
ENDBRANCH  24  25
ENDBRANCH  23  24
ENDBRANCH  22  23
ENDBRANCH   1  22
TORSDOF 9
ENDMDL
MODEL 4
REMARK VINA RESULT:      -6.7      4.774      6.847
REMARK  Name = 
REMARK  11 active torsions:
REMARK  status: ('A' for Active; 'I' for Inactive)
REMARK    1  A    between atoms: C_1  and  C_2
REMARK    2  A    between atoms: C_2  and  C_3
REMARK    3  A    between atoms: C_3  and  C_4
REMARK    4  A    between atoms: C_4  and  C_5
REMARK    5  A    between atoms: C_5  and  C_6
REMARK    6  A    between atoms: C_6  and  C_7
REMARK    7  A    between atoms: C_7  and  N_8
REMARK    8  A    between atoms: N_8  and  C_9
REMARK    9  A    between atoms: N_12  and  N_13
REMARK   10  A    between atoms: C_14  and  C_15
REMARK   11  A    between atoms: C_21  and  O_22
REMARK                            x       y       z     vdW  Elec       q    Type
REMARK                         _______ _______ _______ _____ _____    ______ ____
ROOT
ATOM      1  N   UNL     1       0.911  10.976  19.392  0.00  0.00    +0.000 N 
ATOM      2  C   UNL     1       0.808  10.397  20.733  0.00  0.00    +0.000 C 
ATOM      3  C   UNL     1       1.575  10.286  18.397  0.00  0.00    +0.000 C 
ATOM      4  N   UNL     1       2.265  10.845  17.455  0.00  0.00    +0.000 NA
ATOM      5  N   UNL     1       1.477   8.913  18.520  0.00  0.00    +0.000 N 
ATOM      6  H   UNL     1       2.248  11.856  17.552  0.00  0.00    +0.000 HD
ATOM      7  H   UNL     1       0.542   8.609  18.768  0.00  0.00    +0.000 HD
ENDROOT
BRANCH   5   8
ATOM      8  N   UNL     1       2.210   7.966  17.856  0.00  0.00    +0.000 NA
ATOM      9  C   UNL     1       2.399   6.881  18.538  0.00  0.00    +0.000 C 
BRANCH   9  10
ATOM     10  C   UNL     1       3.146   5.786  17.966  0.00  0.00    +0.000 A 
ATOM     11  C   UNL     1       2.692   4.497  17.771  0.00  0.00    +0.000 A 
ATOM     12  N   UNL     1       3.695   3.776  17.189  0.00  0.00    +0.000 N 
ATOM     13  C   UNL     1       4.809   4.563  17.011  0.00  0.00    +0.000 A 
ATOM     14  C   UNL     1       6.058   4.251  16.458  0.00  0.00    +0.000 A 
ATOM     15  C   UNL     1       7.017   5.266  16.412  0.00  0.00    +0.000 A 
ATOM     16  C   UNL     1       6.730   6.535  16.902  0.00  0.00    +0.000 A 
ATOM     17  C   UNL     1       5.483   6.840  17.445  0.00  0.00    +0.000 A 
ATOM     18  C   UNL     1       4.497   5.835  17.499  0.00  0.00    +0.000 A 
ATOM     19  H   UNL     1       3.630   2.804  16.923  0.00  0.00    +0.000 HD
BRANCH  16  20
ATOM     20  O   UNL     1       7.660   7.535  16.871  0.00  0.00    +0.000 OA
ATOM     21  H   UNL     1       7.320   8.286  17.383  0.00  0.00    +0.000 HD
ENDBRANCH  16  20
ENDBRANCH   9  10
ENDBRANCH   5   8
BRANCH   1  22
ATOM     22  C   UNL     1       0.601  12.403  19.289  0.00  0.00    +0.000 C 
BRANCH  22  23
ATOM     23  C   UNL     1      -0.909  12.635  19.180  0.00  0.00    +0.000 C 
BRANCH  23  24
ATOM     24  C   UNL     1      -1.545  11.868  18.017  0.00  0.00    +0.000 C 
BRANCH  24  25
ATOM     25  C   UNL     1      -2.997  11.512  18.334  0.00  0.00    +0.000 C 
BRANCH  25  26
ATOM     26  C   UNL     1      -3.744  11.031  17.089  0.00  0.00    +0.000 C 
BRANCH  26  28
ATOM     27  C   UNL     1      -2.923  10.182  14.864  0.00  0.00    +0.000 C 
ATOM     28  C   UNL     1      -2.957   9.941  16.363  0.00  0.00    +0.000 C 
ENDBRANCH  26  28
ENDBRANCH  25  26
ENDBRANCH  24  25
ENDBRANCH  23  24
ENDBRANCH  22  23
ENDBRANCH   1  22
TORSDOF 9
ENDMDL
MODEL 5
REMARK VINA RESULT:      -6.7      4.615      6.789
REMARK  Name = 
REMARK  11 active torsions:
REMARK  status: ('A' for Active; 'I' for Inactive)
REMARK    1  A    between atoms: C_1  and  C_2
REMARK    2  A    between atoms: C_2  and  C_3
REMARK    3  A    between atoms: C_3  and  C_4
REMARK    4  A    between atoms: C_4  and  C_5
REMARK    5  A    between atoms: C_5  and  C_6
REMARK    6  A    between atoms: C_6  and  C_7
REMARK    7  A    between atoms: C_7  and  N_8
REMARK    8  A    between atoms: N_8  and  C_9
REMARK    9  A    between atoms: N_12  and  N_13
REMARK   10  A    between atoms: C_14  and  C_15
REMARK   11  A    between atoms: C_21  and  O_22
REMARK                            x       y       z     vdW  Elec       q    Type
REMARK                         _______ _______ _______ _____ _____    ______ ____
ROOT
ATOM      1  N   UNL     1       0.725  11.742  18.819  0.00  0.00    +0.000 N 
ATOM      2  C   UNL     1       2.066  12.330  18.787  0.00  0.00    +0.000 C 
ATOM      3  C   UNL     1       0.521  10.471  18.320  0.00  0.00    +0.000 C 
ATOM      4  N   UNL     1      -0.560  10.084  17.722  0.00  0.00    +0.000 NA
ATOM      5  N   UNL     1       1.613   9.638  18.475  0.00  0.00    +0.000 N 
ATOM      6  H   UNL     1      -1.231  10.844  17.674  0.00  0.00    +0.000 HD
ATOM      7  H   UNL     1       2.047   9.727  19.387  0.00  0.00    +0.000 HD
ENDROOT
BRANCH   5   8
ATOM      8  N   UNL     1       1.821   8.422  17.880  0.00  0.00    +0.000 NA
ATOM      9  C   UNL     1       2.595   7.635  18.557  0.00  0.00    +0.000 C 
BRANCH   9  10
ATOM     10  C   UNL     1       2.898   6.314  18.060  0.00  0.00    +0.000 A 
ATOM     11  C   UNL     1       2.060   5.217  18.084  0.00  0.00    +0.000 A 
ATOM     12  N   UNL     1       2.714   4.169  17.503  0.00  0.00    +0.000 N 
ATOM     13  C   UNL     1       3.976   4.550  17.112  0.00  0.00    +0.000 A 
ATOM     14  C   UNL     1       4.988   3.815  16.480  0.00  0.00    +0.000 A 
ATOM     15  C   UNL     1       6.189   4.472  16.204  0.00  0.00    +0.000 A 
ATOM     16  C   UNL     1       6.362   5.808  16.550  0.00  0.00    +0.000 A 
ATOM     17  C   UNL     1       5.348   6.535  17.171  0.00  0.00    +0.000 A 
ATOM     18  C   UNL     1       4.126   5.896  17.457  0.00  0.00    +0.000 A 
ATOM     19  H   UNL     1       2.327   3.245  17.376  0.00  0.00    +0.000 HD
BRANCH  16  20
ATOM     20  O   UNL     1       7.534   6.461  16.293  0.00  0.00    +0.000 OA
ATOM     21  H   UNL     1       7.562   6.682  15.348  0.00  0.00    +0.000 HD
ENDBRANCH  16  20
ENDBRANCH   9  10
ENDBRANCH   5   8
BRANCH   1  22
ATOM     22  C   UNL     1      -0.375  12.678  19.064  0.00  0.00    +0.000 C 
BRANCH  22  23
ATOM     23  C   UNL     1      -1.246  12.213  20.233  0.00  0.00    +0.000 C 
BRANCH  23  24
ATOM     24  C   UNL     1      -0.461  12.070  21.540  0.00  0.00    +0.000 C 
BRANCH  24  25
ATOM     25  C   UNL     1      -1.268  11.284  22.574  0.00  0.00    +0.000 C 
BRANCH  25  26
ATOM     26  C   UNL     1      -0.433  10.176  23.216  0.00  0.00    +0.000 C 
BRANCH  26  28
ATOM     27  C   UNL     1      -0.295   8.456  21.380  0.00  0.00    +0.000 C 
ATOM     28  C   UNL     1       0.466   9.497  22.183  0.00  0.00    +0.000 C 
ENDBRANCH  26  28
ENDBRANCH  25  26
ENDBRANCH  24  25
ENDBRANCH  23  24
ENDBRANCH  22  23
ENDBRANCH   1  22
TORSDOF 9
ENDMDL
MODEL 6
REMARK VINA RESULT:      -6.7      4.888      8.811
REMARK  Name = 
REMARK  11 active torsions:
REMARK  status: ('A' for Active; 'I' for Inactive)
REMARK    1  A    between atoms: C_1  and  C_2
REMARK    2  A    between atoms: C_2  and  C_3
REMARK    3  A    between atoms: C_3  and  C_4
REMARK    4  A    between atoms: C_4  and  C_5
REMARK    5  A    between atoms: C_5  and  C_6
REMARK    6  A    between atoms: C_6  and  C_7
REMARK    7  A    between atoms: C_7  and  N_8
REMARK    8  A    between atoms: N_8  and  C_9
REMARK    9  A    between atoms: N_12  and  N_13
REMARK   10  A    between atoms: C_14  and  C_15
REMARK   11  A    between atoms: C_21  and  O_22
REMARK                            x       y       z     vdW  Elec       q    Type
REMARK                         _______ _______ _______ _____ _____    ______ ____
ROOT
ATOM      1  N   UNL     1       2.860   4.816  19.868  0.00  0.00    +0.000 N 
ATOM      2  C   UNL     1       2.199   4.170  21.003  0.00  0.00    +0.000 C 
ATOM      3  C   UNL     1       2.545   6.121  19.543  0.00  0.00    +0.000 C 
ATOM      4  N   UNL     1       2.522   6.590  18.336  0.00  0.00    +0.000 NA
ATOM      5  N   UNL     1       2.203   6.893  20.637  0.00  0.00    +0.000 N 
ATOM      6  H   UNL     1       2.768   5.865  17.668  0.00  0.00    +0.000 HD
ATOM      7  H   UNL     1       2.810   6.734  21.433  0.00  0.00    +0.000 HD
ENDROOT
BRANCH   5   8
ATOM      8  N   UNL     1       1.612   8.128  20.630  0.00  0.00    +0.000 NA
ATOM      9  C   UNL     1       0.698   8.275  21.536  0.00  0.00    +0.000 C 
BRANCH   9  10
ATOM     10  C   UNL     1      -0.007   9.529  21.657  0.00  0.00    +0.000 A 
ATOM     11  C   UNL     1      -0.268  10.212  22.828  0.00  0.00    +0.000 A 
ATOM     12  N   UNL     1      -0.938  11.359  22.511  0.00  0.00    +0.000 N 
ATOM     13  C   UNL     1      -1.139  11.436  21.153  0.00  0.00    +0.000 A 
ATOM     14  C   UNL     1      -1.771  12.424  20.386  0.00  0.00    +0.000 A 
ATOM     15  C   UNL     1      -1.833  12.230  19.004  0.00  0.00    +0.000 A 
ATOM     16  C   UNL     1      -1.283  11.093  18.423  0.00  0.00    +0.000 A 
ATOM     17  C   UNL     1      -0.648  10.118  19.191  0.00  0.00    +0.000 A 
ATOM     18  C   UNL     1      -0.570  10.291  20.586  0.00  0.00    +0.000 A 
ATOM     19  H   UNL     1      -1.242  12.054  23.177  0.00  0.00    +0.000 HD
BRANCH  16  20
ATOM     20  O   UNL     1      -1.342  10.886  17.074  0.00  0.00    +0.000 OA
ATOM     21  H   UNL     1      -2.033  10.228  16.894  0.00  0.00    +0.000 HD
ENDBRANCH  16  20
ENDBRANCH   9  10
ENDBRANCH   5   8
BRANCH   1  22
ATOM     22  C   UNL     1       3.557   3.920  18.943  0.00  0.00    +0.000 C 
BRANCH  22  23
ATOM     23  C   UNL     1       5.075   4.106  19.031  0.00  0.00    +0.000 C 
BRANCH  23  24
ATOM     24  C   UNL     1       5.706   4.492  17.690  0.00  0.00    +0.000 C 
BRANCH  24  25
ATOM     25  C   UNL     1       7.196   4.791  17.860  0.00  0.00    +0.000 C 
BRANCH  25  26
ATOM     26  C   UNL     1       7.455   5.696  19.064  0.00  0.00    +0.000 C 
BRANCH  26  28
ATOM     27  C   UNL     1       7.505   7.606  17.422  0.00  0.00    +0.000 C 
ATOM     28  C   UNL     1       8.163   6.983  18.642  0.00  0.00    +0.000 C 
ENDBRANCH  26  28
ENDBRANCH  25  26
ENDBRANCH  24  25
ENDBRANCH  23  24
ENDBRANCH  22  23
ENDBRANCH   1  22
TORSDOF 9
ENDMDL
MODEL 7
REMARK VINA RESULT:      -6.6      4.924      7.232
REMARK  Name = 
REMARK  11 active torsions:
REMARK  status: ('A' for Active; 'I' for Inactive)
REMARK    1  A    between atoms: C_1  and  C_2
REMARK    2  A    between atoms: C_2  and  C_3
REMARK    3  A    between atoms: C_3  and  C_4
REMARK    4  A    between atoms: C_4  and  C_5
REMARK    5  A    between atoms: C_5  and  C_6
REMARK    6  A    between atoms: C_6  and  C_7
REMARK    7  A    between atoms: C_7  and  N_8
REMARK    8  A    between atoms: N_8  and  C_9
REMARK    9  A    between atoms: N_12  and  N_13
REMARK   10  A    between atoms: C_14  and  C_15
REMARK   11  A    between atoms: C_21  and  O_22
REMARK                            x       y       z     vdW  Elec       q    Type
REMARK                         _______ _______ _______ _____ _____    ______ ____
ROOT
ATOM      1  N   UNL     1       0.400  11.212  19.643  0.00  0.00    +0.000 N 
ATOM      2  C   UNL     1       0.224  11.163  21.096  0.00  0.00    +0.000 C 
ATOM      3  C   UNL     1       1.235  10.304  19.023  0.00  0.00    +0.000 C 
ATOM      4  N   UNL     1       1.953  10.566  17.977  0.00  0.00    +0.000 NA
ATOM      5  N   UNL     1       1.278   9.075  19.654  0.00  0.00    +0.000 N 
ATOM      6  H   UNL     1       1.813  11.527  17.681  0.00  0.00    +0.000 HD
ATOM      7  H   UNL     1       0.363   8.756  19.949  0.00  0.00    +0.000 HD
ENDROOT
BRANCH   5   8
ATOM      8  N   UNL     1       2.177   8.064  19.443  0.00  0.00    +0.000 NA
ATOM      9  C   UNL     1       2.042   7.478  18.295  0.00  0.00    +0.000 C 
BRANCH   9  10
ATOM     10  C   UNL     1       2.926   6.399  17.926  0.00  0.00    +0.000 A 
ATOM     11  C   UNL     1       4.214   6.522  17.445  0.00  0.00    +0.000 A 
ATOM     12  N   UNL     1       4.712   5.268  17.235  0.00  0.00    +0.000 N 
ATOM     13  C   UNL     1       3.769   4.320  17.552  0.00  0.00    +0.000 A 
ATOM     14  C   UNL     1       3.838   2.921  17.495  0.00  0.00    +0.000 A 
ATOM     15  C   UNL     1       2.703   2.201  17.879  0.00  0.00    +0.000 A 
ATOM     16  C   UNL     1       1.555   2.861  18.300  0.00  0.00    +0.000 A 
ATOM     17  C   UNL     1       1.496   4.252  18.361  0.00  0.00    +0.000 A 
ATOM     18  C   UNL     1       2.627   5.001  17.983  0.00  0.00    +0.000 A 
ATOM     19  H   UNL     1       5.642   5.065  16.897  0.00  0.00    +0.000 HD
BRANCH  16  20
ATOM     20  O   UNL     1       0.436   2.171  18.671  0.00  0.00    +0.000 OA
ATOM     21  H   UNL     1       0.192   2.442  19.571  0.00  0.00    +0.000 HD
ENDBRANCH  16  20
ENDBRANCH   9  10
ENDBRANCH   5   8
BRANCH   1  22
ATOM     22  C   UNL     1      -0.055  12.440  18.987  0.00  0.00    +0.000 C 
BRANCH  22  23
ATOM     23  C   UNL     1      -1.578  12.451  18.828  0.00  0.00    +0.000 C 
BRANCH  23  24
ATOM     24  C   UNL     1      -2.047  11.742  17.554  0.00  0.00    +0.000 C 
BRANCH  24  25
ATOM     25  C   UNL     1      -2.486  10.311  17.862  0.00  0.00    +0.000 C 
BRANCH  25  26
ATOM     26  C   UNL     1      -2.947   9.580  16.600  0.00  0.00    +0.000 C 
BRANCH  26  28
ATOM     27  C   UNL     1      -3.050   9.990  14.116  0.00  0.00    +0.000 C 
ATOM     28  C   UNL     1      -3.315  10.570  15.496  0.00  0.00    +0.000 C 
ENDBRANCH  26  28
ENDBRANCH  25  26
ENDBRANCH  24  25
ENDBRANCH  23  24
ENDBRANCH  22  23
ENDBRANCH   1  22
TORSDOF 9
ENDMDL
MODEL 8
REMARK VINA RESULT:      -6.6      6.680      8.788
REMARK  Name = 
REMARK  11 active torsions:
REMARK  status: ('A' for Active; 'I' for Inactive)
REMARK    1  A    between atoms: C_1  and  C_2
REMARK    2  A    between atoms: C_2  and  C_3
REMARK    3  A    between atoms: C_3  and  C_4
REMARK    4  A    between atoms: C_4  and  C_5
REMARK    5  A    between atoms: C_5  and  C_6
REMARK    6  A    between atoms: C_6  and  C_7
REMARK    7  A    between atoms: C_7  and  N_8
REMARK    8  A    between atoms: N_8  and  C_9
REMARK    9  A    between atoms: N_12  and  N_13
REMARK   10  A    between atoms: C_14  and  C_15
REMARK   11  A    between atoms: C_21  and  O_22
REMARK                            x       y       z     vdW  Elec       q    Type
REMARK                         _______ _______ _______ _____ _____    ______ ____
ROOT
ATOM      1  N   UNL     1       6.985   5.689  18.191  0.00  0.00    +0.000 N 
ATOM      2  C   UNL     1       7.369   5.455  19.585  0.00  0.00    +0.000 C 
ATOM      3  C   UNL     1       7.099   6.955  17.652  0.00  0.00    +0.000 C 
ATOM      4  N   UNL     1       6.293   7.449  16.767  0.00  0.00    +0.000 NA
ATOM      5  N   UNL     1       8.144   7.687  18.184  0.00  0.00    +0.000 N 
ATOM      6  H   UNL     1       5.571   6.776  16.528  0.00  0.00    +0.000 HD
ATOM      7  H   UNL     1       8.989   7.139  18.293  0.00  0.00    +0.000 HD
ENDROOT
BRANCH   5   8
ATOM      8  N   UNL     1       8.369   9.031  18.049  0.00  0.00    +0.000 NA
ATOM      9  C   UNL     1       9.075   9.541  19.008  0.00  0.00    +0.000 C 
BRANCH   9  10
ATOM     10  C   UNL     1       9.403  10.946  18.998  0.00  0.00    +0.000 A 
ATOM     11  C   UNL     1       9.834  11.679  17.910  0.00  0.00    +0.000 A 
ATOM     12  N   UNL     1      10.017  12.971  18.313  0.00  0.00    +0.000 N 
ATOM     13  C   UNL     1       9.730  13.100  19.651  0.00  0.00    +0.000 A 
ATOM     14  C   UNL     1       9.775  14.228  20.481  0.00  0.00    +0.000 A 
ATOM     15  C   UNL     1       9.430  14.057  21.824  0.00  0.00    +0.000 A 
ATOM     16  C   UNL     1       9.057  12.808  22.307  0.00  0.00    +0.000 A 
ATOM     17  C   UNL     1       9.008  11.692  21.474  0.00  0.00    +0.000 A 
ATOM     18  C   UNL     1       9.347  11.838  20.114  0.00  0.00    +0.000 A 
ATOM     19  H   UNL     1      10.317  13.727  17.713  0.00  0.00    +0.000 HD
BRANCH  16  20
ATOM     20  O   UNL     1       8.725  12.624  23.619  0.00  0.00    +0.000 OA
ATOM     21  H   UNL     1       8.709  11.671  23.801  0.00  0.00    +0.000 HD
ENDBRANCH  16  20
ENDBRANCH   9  10
ENDBRANCH   5   8
BRANCH   1  22
ATOM     22  C   UNL     1       6.182   4.636  17.566  0.00  0.00    +0.000 C 
BRANCH  22  23
ATOM     23  C   UNL     1       4.925   4.337  18.387  0.00  0.00    +0.000 C 
BRANCH  23  24
ATOM     24  C   UNL     1       3.762   3.827  17.531  0.00  0.00    +0.000 C 
BRANCH  24  25
ATOM     25  C   UNL     1       3.477   2.355  17.827  0.00  0.00    +0.000 C 
BRANCH  25  26
ATOM     26  C   UNL     1       2.352   2.195  18.851  0.00  0.00    +0.000 C 
BRANCH  26  28
ATOM     27  C   UNL     1       0.912   3.815  20.134  0.00  0.00    +0.000 C 
ATOM     28  C   UNL     1       1.357   3.350  18.758  0.00  0.00    +0.000 C 
ENDBRANCH  26  28
ENDBRANCH  25  26
ENDBRANCH  24  25
ENDBRANCH  23  24
ENDBRANCH  22  23
ENDBRANCH   1  22
TORSDOF 9
ENDMDL
MODEL 9
REMARK VINA RESULT:      -6.6      6.496      8.430
REMARK  Name = 
REMARK  11 active torsions:
REMARK  status: ('A' for Active; 'I' for Inactive)
REMARK    1  A    between atoms: C_1  and  C_2
REMARK    2  A    between atoms: C_2  and  C_3
REMARK    3  A    between atoms: C_3  and  C_4
REMARK    4  A    between atoms: C_4  and  C_5
REMARK    5  A    between atoms: C_5  and  C_6
REMARK    6  A    between atoms: C_6  and  C_7
REMARK    7  A    between atoms: C_7  and  N_8
REMARK    8  A    between atoms: N_8  and  C_9
REMARK    9  A    between atoms: N_12  and  N_13
REMARK   10  A    between atoms: C_14  and  C_15
REMARK   11  A    between atoms: C_21  and  O_22
REMARK                            x       y       z     vdW  Elec       q    Type
REMARK                         _______ _______ _______ _____ _____    ______ ____
ROOT
ATOM      1  N   UNL     1       7.063   6.080  17.494  0.00  0.00    +0.000 N 
ATOM      2  C   UNL     1       7.689   5.427  18.646  0.00  0.00    +0.000 C 
ATOM      3  C   UNL     1       7.091   7.457  17.388  0.00  0.00    +0.000 C 
ATOM      4  N   UNL     1       6.144   8.170  16.867  0.00  0.00    +0.000 NA
ATOM      5  N   UNL     1       8.223   8.028  17.940  0.00  0.00    +0.000 N 
ATOM      6  H   UNL     1       5.384   7.576  16.550  0.00  0.00    +0.000 HD
ATOM      7  H   UNL     1       9.068   7.516  17.715  0.00  0.00    +0.000 HD
ENDROOT
BRANCH   5   8
ATOM      8  N   UNL     1       8.434   9.353  18.215  0.00  0.00    +0.000 NA
ATOM      9  C   UNL     1       9.197   9.557  19.241  0.00  0.00    +0.000 C 
BRANCH   9  10
ATOM     10  C   UNL     1       9.519  10.905  19.647  0.00  0.00    +0.000 A 
ATOM     11  C   UNL     1       9.161  11.510  20.836  0.00  0.00    +0.000 A 
ATOM     12  N   UNL     1       9.674  12.776  20.840  0.00  0.00    +0.000 N 
ATOM     13  C   UNL     1      10.350  13.022  19.668  0.00  0.00    +0.000 A 
ATOM     14  C   UNL     1      11.030  14.170  19.240  0.00  0.00    +0.000 A 
ATOM     15  C   UNL     1      11.627  14.135  17.978  0.00  0.00    +0.000 A 
ATOM     16  C   UNL     1      11.543  12.996  17.185  0.00  0.00    +0.000 A 
ATOM     17  C   UNL     1      10.871  11.855  17.620  0.00  0.00    +0.000 A 
ATOM     18  C   UNL     1      10.263  11.863  18.891  0.00  0.00    +0.000 A 
ATOM     19  H   UNL     1       9.574  13.437  21.596  0.00  0.00    +0.000 HD
BRANCH  16  20
ATOM     20  O   UNL     1      12.116  12.950  15.946  0.00  0.00    +0.000 OA
ATOM     21  H   UNL     1      13.074  12.836  16.054  0.00  0.00    +0.000 HD
ENDBRANCH  16  20
ENDBRANCH   9  10
ENDBRANCH   5   8
BRANCH   1  22
ATOM     22  C   UNL     1       6.149   5.248  16.709  0.00  0.00    +0.000 C 
BRANCH  22  23
ATOM     23  C   UNL     1       4.771   5.163  17.370  0.00  0.00    +0.000 C 
BRANCH  23  24
ATOM     24  C   UNL     1       4.335   3.722  17.653  0.00  0.00    +0.000 C 
BRANCH  24  25
ATOM     25  C   UNL     1       2.912   3.479  17.150  0.00  0.00    +0.000 C 
BRANCH  25  26
ATOM     26  C   UNL     1       1.879   4.200  18.017  0.00  0.00    +0.000 C 
BRANCH  26  28
ATOM     27  C   UNL     1       0.934   3.458  20.232  0.00  0.00    +0.000 C 
ATOM     28  C   UNL     1       2.160   3.980  19.503  0.00  0.00    +0.000 C 
ENDBRANCH  26  28
ENDBRANCH  25  26
ENDBRANCH  24  25
ENDBRANCH  23  24
ENDBRANCH  22  23
ENDBRANCH   1  22
TORSDOF 9
ENDMDL
