MODEL 1
REMARK VINA RESULT:      -9.0      0.000      0.000
REMARK  Name = 
REMARK  8 active torsions:
REMARK  status: ('A' for Active; 'I' for Inactive)
REMARK    1  A    between atoms: C_1  and  C_2
REMARK    2  A    between atoms: C_2  and  O_3
REMARK    3  A    between atoms: C_2  and  C_18
REMARK    4  A    between atoms: O_3  and  C_4
REMARK    5  A    between atoms: C_4  and  C_6
REMARK    6  A    between atoms: C_7  and  C_8
REMARK    7  A    between atoms: N_20  and  C_21
REMARK    8  A    between atoms: C_21  and  C_22
REMARK                            x       y       z     vdW  Elec       q    Type
REMARK                         _______ _______ _______ _____ _____    ______ ____
ROOT
ATOM      1  O   UNL     1       6.668   7.491  17.064  0.00  0.00    +0.000 OA
ENDROOT
BRANCH   1   3
ATOM      2  C   UNL     1       5.364   5.979  15.670  0.00  0.00    +0.000 C 
ATOM      3  C   UNL     1       6.029   6.204  17.029  0.00  0.00    +0.000 C 
BRANCH   3   4
ATOM      4  C   UNL     1       4.968   6.076  18.139  0.00  0.00    +0.000 C 
ATOM      5  O   UNL     1       5.214   5.570  19.234  0.00  0.00    +0.000 OA
ATOM      6  N   UNL     1       3.742   6.634  17.851  0.00  0.00    +0.000 N 
ATOM      7  H   UNL     1       3.622   7.136  16.980  0.00  0.00    +0.000 HD
BRANCH   6   8
ATOM      8  C   UNL     1       2.702   6.689  18.853  0.00  0.00    +0.000 C 
BRANCH   8   9
ATOM      9  C   UNL     1       2.072   5.343  19.093  0.00  0.00    +0.000 A 
ATOM     10  C   UNL     1       1.815   4.479  18.017  0.00  0.00    +0.000 A 
ATOM     11  C   UNL     1       1.251   3.221  18.237  0.00  0.00    +0.000 A 
ATOM     12  C   UNL     1       0.931   2.816  19.531  0.00  0.00    +0.000 A 
ATOM     13  C   UNL     1       1.175   3.668  20.606  0.00  0.00    +0.000 A 
ATOM     14  C   UNL     1       1.739   4.927  20.389  0.00  0.00    +0.000 A 
ENDBRANCH   8   9
ENDBRANCH   6   8
ENDBRANCH   3   4
ENDBRANCH   1   3
BRANCH   1  15
ATOM     15  C   UNL     1       7.728   7.582  17.908  0.00  0.00    +0.000 C 
ATOM     16  O   UNL     1       8.200   6.678  18.576  0.00  0.00    +0.000 OA
BRANCH  15  17
ATOM     17  C   UNL     1       8.232   8.970  17.895  0.00  0.00    +0.000 C 
ATOM     18  C   UNL     1       8.924   9.433  18.950  0.00  0.00    +0.000 C 
BRANCH  18  19
ATOM     19  C   UNL     1       9.480  10.790  19.038  0.00  0.00    +0.000 A 
ATOM     20  C   UNL     1      10.071  11.371  17.923  0.00  0.00    +0.000 A 
ATOM     21  C   UNL     1      10.559  12.670  18.024  0.00  0.00    +0.000 A 
ATOM     22  C   UNL     1      10.449  13.358  19.237  0.00  0.00    +0.000 A 
ATOM     23  C   UNL     1      10.913  14.678  19.380  0.00  0.00    +0.000 A 
ATOM     24  C   UNL     1      10.795  15.337  20.602  0.00  0.00    +0.000 A 
ATOM     25  C   UNL     1      10.220  14.678  21.682  0.00  0.00    +0.000 A 
ATOM     26  C   UNL     1       9.757  13.367  21.533  0.00  0.00    +0.000 A 
ATOM     27  C   UNL     1       9.853  12.687  20.324  0.00  0.00    +0.000 A 
ATOM     28  N   UNL     1       9.378  11.430  20.227  0.00  0.00    +0.000 NA
ENDBRANCH  18  19
ENDBRANCH  15  17
ENDBRANCH   1  15
TORSDOF 7
ENDMDL
MODEL 2
REMARK VINA RESULT:      -9.0      1.440      2.349
REMARK  Name = 
REMARK  8 active torsions:
REMARK  status: ('A' for Active; 'I' for Inactive)
REMARK    1  A    between atoms: C_1  and  C_2
REMARK    2  A    between atoms: C_2  and  O_3
REMARK    3  A    between atoms: C_2  and  C_18
REMARK    4  A    between atoms: O_3  and  C_4
REMARK    5  A    between atoms: C_4  and  C_6
REMARK    6  A    between atoms: C_7  and  C_8
REMARK    7  A    between atoms: N_20  and  C_21
REMARK    8  A    between atoms: C_21  and  C_22
REMARK                            x       y       z     vdW  Elec       q    Type
REMARK                         _______ _______ _______ _____ _____    ______ ____
ROOT
ATOM      1  O   UNL     1       6.263   7.088  18.031  0.00  0.00    +0.000 OA
ENDROOT
BRANCH   1   3
ATOM      2  C   UNL     1       3.881   7.005  17.536  0.00  0.00    +0.000 C 
ATOM      3  C   UNL     1       5.244   6.336  17.352  0.00  0.00    +0.000 C 
BRANCH   3   4
ATOM      4  C   UNL     1       5.172   4.890  17.876  0.00  0.00    +0.000 C 
ATOM      5  O   UNL     1       5.978   4.442  18.693  0.00  0.00    +0.000 OA
ATOM      6  N   UNL     1       4.100   4.150  17.427  0.00  0.00    +0.000 N 
ATOM      7  H   UNL     1       3.405   4.596  16.843  0.00  0.00    +0.000 HD
BRANCH   6   8
ATOM      8  C   UNL     1       3.853   2.821  17.940  0.00  0.00    +0.000 C 
BRANCH   8   9
ATOM      9  C   UNL     1       2.921   2.833  19.122  0.00  0.00    +0.000 A 
ATOM     10  C   UNL     1       3.415   2.601  20.415  0.00  0.00    +0.000 A 
ATOM     11  C   UNL     1       2.559   2.633  21.518  0.00  0.00    +0.000 A 
ATOM     12  C   UNL     1       1.200   2.886  21.339  0.00  0.00    +0.000 A 
ATOM     13  C   UNL     1       0.697   3.109  20.058  0.00  0.00    +0.000 A 
ATOM     14  C   UNL     1       1.552   3.079  18.955  0.00  0.00    +0.000 A 
ENDBRANCH   8   9
ENDBRANCH   6   8
ENDBRANCH   3   4
ENDBRANCH   1   3
BRANCH   1  15
ATOM     15  C   UNL     1       7.344   7.404  17.272  0.00  0.00    +0.000 C 
ATOM     16  O   UNL     1       7.870   6.694  16.432  0.00  0.00    +0.000 OA
BRANCH  15  17
ATOM     17  C   UNL     1       7.795   8.765  17.625  0.00  0.00    +0.000 C 
ATOM     18  C   UNL     1       8.758   8.924  18.549  0.00  0.00    +0.000 C 
BRANCH  18  19
ATOM     19  C   UNL     1       9.290  10.227  18.967  0.00  0.00    +0.000 A 
ATOM     20  C   UNL     1       9.314  10.567  20.315  0.00  0.00    +0.000 A 
ATOM     21  C   UNL     1       9.856  11.793  20.687  0.00  0.00    +0.000 A 
ATOM     22  C   UNL     1      10.358  12.654  19.706  0.00  0.00    +0.000 A 
ATOM     23  C   UNL     1      10.929  13.896  20.038  0.00  0.00    +0.000 A 
ATOM     24  C   UNL     1      11.417  14.736  19.039  0.00  0.00    +0.000 A 
ATOM     25  C   UNL     1      11.330  14.340  17.709  0.00  0.00    +0.000 A 
ATOM     26  C   UNL     1      10.764  13.103  17.385  0.00  0.00    +0.000 A 
ATOM     27  C   UNL     1      10.277  12.240  18.361  0.00  0.00    +0.000 A 
ATOM     28  N   UNL     1       9.755  11.052  17.999  0.00  0.00    +0.000 NA
ENDBRANCH  18  19
ENDBRANCH  15  17
ENDBRANCH   1  15
TORSDOF 7
ENDMDL
MODEL 3
REMARK VINA RESULT:      -8.9      5.760      6.716
REMARK  Name = 
REMARK  8 active torsions:
REMARK  status: ('A' for Active; 'I' for Inactive)
REMARK    1  A    between atoms: C_1  and  C_2
REMARK    2  A    between atoms: C_2  and  O_3
REMARK    3  A    between atoms: C_2  and  C_18
REMARK    4  A    between atoms: O_3  and  C_4
REMARK    5  A    between atoms: C_4  and  C_6
REMARK    6  A    between atoms: C_7  and  C_8
REMARK    7  A    between atoms: N_20  and  C_21
REMARK    8  A    between atoms: C_21  and  C_22
REMARK                            x       y       z     vdW  Elec       q    Type
REMARK                         _______ _______ _______ _____ _____    ______ ____
ROOT
ATOM      1  O   UNL     1       5.429   5.278  16.542  0.00  0.00    +0.000 OA
ENDROOT
BRANCH   1   3
ATOM      2  C   UNL     1       7.648   4.490  17.160  0.00  0.00    +0.000 C 
ATOM      3  C   UNL     1       6.399   5.255  17.602  0.00  0.00    +0.000 C 
BRANCH   3   4
ATOM      4  C   UNL     1       5.826   4.597  18.871  0.00  0.00    +0.000 C 
ATOM      5  O   UNL     1       5.721   5.201  19.939  0.00  0.00    +0.000 OA
ATOM      6  N   UNL     1       5.367   3.308  18.713  0.00  0.00    +0.000 N 
ATOM      7  H   UNL     1       5.374   2.893  17.791  0.00  0.00    +0.000 HD
BRANCH   6   8
ATOM      8  C   UNL     1       4.695   2.625  19.796  0.00  0.00    +0.000 C 
BRANCH   8   9
ATOM      9  C   UNL     1       3.205   2.832  19.761  0.00  0.00    +0.000 A 
ATOM     10  C   UNL     1       2.452   2.380  18.667  0.00  0.00    +0.000 A 
ATOM     11  C   UNL     1       1.066   2.551  18.639  0.00  0.00    +0.000 A 
ATOM     12  C   UNL     1       0.420   3.183  19.701  0.00  0.00    +0.000 A 
ATOM     13  C   UNL     1       1.159   3.643  20.789  0.00  0.00    +0.000 A 
ATOM     14  C   UNL     1       2.544   3.473  20.818  0.00  0.00    +0.000 A 
ENDBRANCH   8   9
ENDBRANCH   6   8
ENDBRANCH   3   4
ENDBRANCH   1   3
BRANCH   1  15
ATOM     15  C   UNL     1       4.970   6.513  16.213  0.00  0.00    +0.000 C 
ATOM     16  O   UNL     1       5.057   7.050  15.121  0.00  0.00    +0.000 OA
BRANCH  15  17
ATOM     17  C   UNL     1       4.338   7.122  17.401  0.00  0.00    +0.000 C 
ATOM     18  C   UNL     1       2.998   7.171  17.485  0.00  0.00    +0.000 C 
BRANCH  18  19
ATOM     19  C   UNL     1       2.265   7.741  18.624  0.00  0.00    +0.000 A 
ATOM     20  C   UNL     1       2.235   7.065  19.838  0.00  0.00    +0.000 A 
ATOM     21  C   UNL     1       1.563   7.644  20.910  0.00  0.00    +0.000 A 
ATOM     22  C   UNL     1       0.935   8.883  20.746  0.00  0.00    +0.000 A 
ATOM     23  C   UNL     1       0.258   9.512  21.806  0.00  0.00    +0.000 A 
ATOM     24  C   UNL     1      -0.363  10.744  21.612  0.00  0.00    +0.000 A 
ATOM     25  C   UNL     1      -0.315  11.344  20.359  0.00  0.00    +0.000 A 
ATOM     26  C   UNL     1       0.360  10.715  19.309  0.00  0.00    +0.000 A 
ATOM     27  C   UNL     1       0.998   9.491  19.475  0.00  0.00    +0.000 A 
ATOM     28  N   UNL     1       1.650   8.933  18.436  0.00  0.00    +0.000 NA
ENDBRANCH  18  19
ENDBRANCH  15  17
ENDBRANCH   1  15
TORSDOF 7
ENDMDL
MODEL 4
REMARK VINA RESULT:      -8.8      1.364      1.526
REMARK  Name = 
REMARK  8 active torsions:
REMARK  status: ('A' for Active; 'I' for Inactive)
REMARK    1  A    between atoms: C_1  and  C_2
REMARK    2  A    between atoms: C_2  and  O_3
REMARK    3  A    between atoms: C_2  and  C_18
REMARK    4  A    between atoms: O_3  and  C_4
REMARK    5  A    between atoms: C_4  and  C_6
REMARK    6  A    between atoms: C_7  and  C_8
REMARK    7  A    between atoms: N_20  and  C_21
REMARK    8  A    between atoms: C_21  and  C_22
REMARK                            x       y       z     vdW  Elec       q    Type
REMARK                         _______ _______ _______ _____ _____    ______ ____
ROOT
ATOM      1  O   UNL     1       6.777   6.768  16.991  0.00  0.00    +0.000 OA
ENDROOT
BRANCH   1   3
ATOM      2  C   UNL     1       6.932   4.509  16.096  0.00  0.00    +0.000 C 
ATOM      3  C   UNL     1       6.306   5.420  17.153  0.00  0.00    +0.000 C 
BRANCH   3   4
ATOM      4  C   UNL     1       4.771   5.347  17.040  0.00  0.00    +0.000 C 
ATOM      5  O   UNL     1       4.202   4.596  16.248  0.00  0.00    +0.000 OA
ATOM      6  N   UNL     1       4.074   6.126  17.937  0.00  0.00    +0.000 N 
ATOM      7  H   UNL     1       4.586   6.643  18.641  0.00  0.00    +0.000 HD
BRANCH   6   8
ATOM      8  C   UNL     1       2.633   6.054  18.015  0.00  0.00    +0.000 C 
BRANCH   8   9
ATOM      9  C   UNL     1       2.168   4.975  18.956  0.00  0.00    +0.000 A 
ATOM     10  C   UNL     1       1.476   3.856  18.466  0.00  0.00    +0.000 A 
ATOM     11  C   UNL     1       1.062   2.843  19.332  0.00  0.00    +0.000 A 
ATOM     12  C   UNL     1       1.326   2.940  20.698  0.00  0.00    +0.000 A 
ATOM     13  C   UNL     1       2.005   4.051  21.196  0.00  0.00    +0.000 A 
ATOM     14  C   UNL     1       2.420   5.065  20.332  0.00  0.00    +0.000 A 
ENDBRANCH   8   9
ENDBRANCH   6   8
ENDBRANCH   3   4
ENDBRANCH   1   3
BRANCH   1  15
ATOM     15  C   UNL     1       7.630   7.197  17.958  0.00  0.00    +0.000 C 
ATOM     16  O   UNL     1       8.086   6.527  18.868  0.00  0.00    +0.000 OA
BRANCH  15  17
ATOM     17  C   UNL     1       7.924   8.627  17.736  0.00  0.00    +0.000 C 
ATOM     18  C   UNL     1       8.783   9.260  18.552  0.00  0.00    +0.000 C 
BRANCH  18  19
ATOM     19  C   UNL     1       9.157  10.675  18.416  0.00  0.00    +0.000 A 
ATOM     20  C   UNL     1       8.340  11.543  17.702  0.00  0.00    +0.000 A 
ATOM     21  C   UNL     1       8.700  12.884  17.619  0.00  0.00    +0.000 A 
ATOM     22  C   UNL     1       9.867  13.328  18.248  0.00  0.00    +0.000 A 
ATOM     23  C   UNL     1      10.260  14.678  18.203  0.00  0.00    +0.000 A 
ATOM     24  C   UNL     1      11.432  15.091  18.834  0.00  0.00    +0.000 A 
ATOM     25  C   UNL     1      12.214  14.157  19.504  0.00  0.00    +0.000 A 
ATOM     26  C   UNL     1      11.817  12.817  19.547  0.00  0.00    +0.000 A 
ATOM     27  C   UNL     1      10.649  12.377  18.935  0.00  0.00    +0.000 A 
ATOM     28  N   UNL     1      10.301  11.078  19.019  0.00  0.00    +0.000 NA
ENDBRANCH  18  19
ENDBRANCH  15  17
ENDBRANCH   1  15
TORSDOF 7
ENDMDL
MODEL 5
REMARK VINA RESULT:      -8.8      4.840      7.815
REMARK  Name = 
REMARK  8 active torsions:
REMARK  status: ('A' for Active; 'I' for Inactive)
REMARK    1  A    between atoms: C_1  and  C_2
REMARK    2  A    between atoms: C_2  and  O_3
REMARK    3  A    between atoms: C_2  and  C_18
REMARK    4  A    between atoms: O_3  and  C_4
REMARK    5  A    between atoms: C_4  and  C_6
REMARK    6  A    between atoms: C_7  and  C_8
REMARK    7  A    between atoms: N_20  and  C_21
REMARK    8  A    between atoms: C_21  and  C_22
REMARK                            x       y       z     vdW  Elec       q    Type
REMARK                         _______ _______ _______ _____ _____    ______ ____
ROOT
ATOM      1  O   UNL     1       3.226   2.901  20.338  0.00  0.00    +0.000 OA
ENDROOT
BRANCH   1   3
ATOM      2  C   UNL     1       3.705   1.024  18.863  0.00  0.00    +0.000 C 
ATOM      3  C   UNL     1       2.933   2.331  19.052  0.00  0.00    +0.000 C 
BRANCH   3   4
ATOM      4  C   UNL     1       3.298   3.304  17.914  0.00  0.00    +0.000 C 
ATOM      5  O   UNL     1       2.450   3.953  17.302  0.00  0.00    +0.000 OA
ATOM      6  N   UNL     1       4.646   3.455  17.675  0.00  0.00    +0.000 N 
ATOM      7  H   UNL     1       5.309   2.983  18.277  0.00  0.00    +0.000 HD
BRANCH   6   8
ATOM      8  C   UNL     1       5.123   4.428  16.718  0.00  0.00    +0.000 C 
BRANCH   8   9
ATOM      9  C   UNL     1       6.121   5.379  17.323  0.00  0.00    +0.000 A 
ATOM     10  C   UNL     1       6.802   5.036  18.502  0.00  0.00    +0.000 A 
ATOM     11  C   UNL     1       7.744   5.905  19.055  0.00  0.00    +0.000 A 
ATOM     12  C   UNL     1       8.009   7.128  18.442  0.00  0.00    +0.000 A 
ATOM     13  C   UNL     1       7.333   7.483  17.276  0.00  0.00    +0.000 A 
ATOM     14  C   UNL     1       6.391   6.615  16.721  0.00  0.00    +0.000 A 
ENDBRANCH   8   9
ENDBRANCH   6   8
ENDBRANCH   3   4
ENDBRANCH   1   3
BRANCH   1  15
ATOM     15  C   UNL     1       2.137   3.240  21.076  0.00  0.00    +0.000 C 
ATOM     16  O   UNL     1       1.634   2.580  21.969  0.00  0.00    +0.000 OA
BRANCH  15  17
ATOM     17  C   UNL     1       1.642   4.555  20.621  0.00  0.00    +0.000 C 
ATOM     18  C   UNL     1       2.518   5.546  20.387  0.00  0.00    +0.000 C 
BRANCH  18  19
ATOM     19  C   UNL     1       2.139   6.887  19.922  0.00  0.00    +0.000 A 
ATOM     20  C   UNL     1       2.421   7.275  18.618  0.00  0.00    +0.000 A 
ATOM     21  C   UNL     1       2.020   8.538  18.192  0.00  0.00    +0.000 A 
ATOM     22  C   UNL     1       1.349   9.386  19.079  0.00  0.00    +0.000 A 
ATOM     23  C   UNL     1       0.911  10.663  18.688  0.00  0.00    +0.000 A 
ATOM     24  C   UNL     1       0.249  11.489  19.594  0.00  0.00    +0.000 A 
ATOM     25  C   UNL     1       0.030  11.042  20.892  0.00  0.00    +0.000 A 
ATOM     26  C   UNL     1       0.465   9.770  21.275  0.00  0.00    +0.000 A 
ATOM     27  C   UNL     1       1.120   8.921  20.390  0.00  0.00    +0.000 A 
ATOM     28  N   UNL     1       1.506   7.698  20.803  0.00  0.00    +0.000 NA
ENDBRANCH  18  19
ENDBRANCH  15  17
ENDBRANCH   1  15
TORSDOF 7
ENDMDL
MODEL 6
REMARK VINA RESULT:      -8.8      1.279      1.545
REMARK  Name = 
REMARK  8 active torsions:
REMARK  status: ('A' for Active; 'I' for Inactive)
REMARK    1  A    between atoms: C_1  and  C_2
REMARK    2  A    between atoms: C_2  and  O_3
REMARK    3  A    between atoms: C_2  and  C_18
REMARK    4  A    between atoms: O_3  and  C_4
REMARK    5  A    between atoms: C_4  and  C_6
REMARK    6  A    between atoms: C_7  and  C_8
REMARK    7  A    between atoms: N_20  and  C_21
REMARK    8  A    between atoms: C_21  and  C_22
REMARK                            x       y       z     vdW  Elec       q    Type
REMARK                         _______ _______ _______ _____ _____    ______ ____
ROOT
ATOM      1  O   UNL     1       7.040   6.814  16.758  0.00  0.00    +0.000 OA
ENDROOT
BRANCH   1   3
ATOM      2  C   UNL     1       6.950   4.907  15.247  0.00  0.00    +0.000 C 
ATOM      3  C   UNL     1       6.605   5.450  16.634  0.00  0.00    +0.000 C 
BRANCH   3   4
ATOM      4  C   UNL     1       5.086   5.325  16.863  0.00  0.00    +0.000 C 
ATOM      5  O   UNL     1       4.329   6.294  16.819  0.00  0.00    +0.000 OA
ATOM      6  N   UNL     1       4.620   4.041  17.046  0.00  0.00    +0.000 N 
ATOM      7  H   UNL     1       5.266   3.267  16.964  0.00  0.00    +0.000 HD
BRANCH   6   8
ATOM      8  C   UNL     1       3.202   3.778  17.148  0.00  0.00    +0.000 C 
BRANCH   8   9
ATOM      9  C   UNL     1       2.752   3.635  18.578  0.00  0.00    +0.000 A 
ATOM     10  C   UNL     1       1.562   4.240  19.010  0.00  0.00    +0.000 A 
ATOM     11  C   UNL     1       1.129   4.092  20.329  0.00  0.00    +0.000 A 
ATOM     12  C   UNL     1       1.886   3.347  21.232  0.00  0.00    +0.000 A 
ATOM     13  C   UNL     1       3.074   2.749  20.816  0.00  0.00    +0.000 A 
ATOM     14  C   UNL     1       3.508   2.895  19.497  0.00  0.00    +0.000 A 
ENDBRANCH   8   9
ENDBRANCH   6   8
ENDBRANCH   3   4
ENDBRANCH   1   3
BRANCH   1  15
ATOM     15  C   UNL     1       7.691   7.106  17.913  0.00  0.00    +0.000 C 
ATOM     16  O   UNL     1       7.919   6.334  18.829  0.00  0.00    +0.000 OA
BRANCH  15  17
ATOM     17  C   UNL     1       8.086   8.529  17.894  0.00  0.00    +0.000 C 
ATOM     18  C   UNL     1       8.818   9.026  18.905  0.00  0.00    +0.000 C 
BRANCH  18  19
ATOM     19  C   UNL     1       9.276  10.420  18.982  0.00  0.00    +0.000 A 
ATOM     20  C   UNL     1       9.666  11.086  17.827  0.00  0.00    +0.000 A 
ATOM     21  C   UNL     1      10.062  12.417  17.923  0.00  0.00    +0.000 A 
ATOM     22  C   UNL     1      10.063  13.051  19.170  0.00  0.00    +0.000 A 
ATOM     23  C   UNL     1      10.440  14.398  19.311  0.00  0.00    +0.000 A 
ATOM     24  C   UNL     1      10.436  15.002  20.567  0.00  0.00    +0.000 A 
ATOM     25  C   UNL     1      10.062  14.260  21.681  0.00  0.00    +0.000 A 
ATOM     26  C   UNL     1       9.685  12.921  21.535  0.00  0.00    +0.000 A 
ATOM     27  C   UNL     1       9.671  12.295  20.294  0.00  0.00    +0.000 A 
ATOM     28  N   UNL     1       9.285  11.007  20.202  0.00  0.00    +0.000 NA
ENDBRANCH  18  19
ENDBRANCH  15  17
ENDBRANCH   1  15
TORSDOF 7
ENDMDL
MODEL 7
REMARK VINA RESULT:      -8.6      1.410      2.101
REMARK  Name = 
REMARK  8 active torsions:
REMARK  status: ('A' for Active; 'I' for Inactive)
REMARK    1  A    between atoms: C_1  and  C_2
REMARK    2  A    between atoms: C_2  and  O_3
REMARK    3  A    between atoms: C_2  and  C_18
REMARK    4  A    between atoms: O_3  and  C_4
REMARK    5  A    between atoms: C_4  and  C_6
REMARK    6  A    between atoms: C_7  and  C_8
REMARK    7  A    between atoms: N_20  and  C_21
REMARK    8  A    between atoms: C_21  and  C_22
REMARK                            x       y       z     vdW  Elec       q    Type
REMARK                         _______ _______ _______ _____ _____    ______ ____
ROOT
ATOM      1  O   UNL     1       7.213   6.297  18.827  0.00  0.00    +0.000 OA
ENDROOT
BRANCH   1   3
ATOM      2  C   UNL     1       7.812   4.387  17.441  0.00  0.00    +0.000 C 
ATOM      3  C   UNL     1       6.805   4.978  18.428  0.00  0.00    +0.000 C 
BRANCH   3   4
ATOM      4  C   UNL     1       5.409   4.997  17.777  0.00  0.00    +0.000 C 
ATOM      5  O   UNL     1       5.099   4.242  16.855  0.00  0.00    +0.000 OA
ATOM      6  N   UNL     1       4.504   5.867  18.344  0.00  0.00    +0.000 N 
ATOM      7  H   UNL     1       4.772   6.388  19.169  0.00  0.00    +0.000 HD
BRANCH   6   8
ATOM      8  C   UNL     1       3.127   5.892  17.904  0.00  0.00    +0.000 C 
BRANCH   8   9
ATOM      9  C   UNL     1       2.281   4.877  18.625  0.00  0.00    +0.000 A 
ATOM     10  C   UNL     1       1.747   3.780  17.932  0.00  0.00    +0.000 A 
ATOM     11  C   UNL     1       0.980   2.823  18.601  0.00  0.00    +0.000 A 
ATOM     12  C   UNL     1       0.732   2.958  19.966  0.00  0.00    +0.000 A 
ATOM     13  C   UNL     1       1.251   4.048  20.662  0.00  0.00    +0.000 A 
ATOM     14  C   UNL     1       2.018   5.004  19.995  0.00  0.00    +0.000 A 
ENDBRANCH   8   9
ENDBRANCH   6   8
ENDBRANCH   3   4
ENDBRANCH   1   3
BRANCH   1  15
ATOM     15  C   UNL     1       7.484   7.146  17.803  0.00  0.00    +0.000 C 
ATOM     16  O   UNL     1       6.987   7.119  16.690  0.00  0.00    +0.000 OA
BRANCH  15  17
ATOM     17  C   UNL     1       8.494   8.127  18.249  0.00  0.00    +0.000 C 
ATOM     18  C   UNL     1       8.206   9.439  18.208  0.00  0.00    +0.000 C 
BRANCH  18  19
ATOM     19  C   UNL     1       9.129  10.498  18.638  0.00  0.00    +0.000 A 
ATOM     20  C   UNL     1       9.496  10.598  19.974  0.00  0.00    +0.000 A 
ATOM     21  C   UNL     1      10.399  11.588  20.348  0.00  0.00    +0.000 A 
ATOM     22  C   UNL     1      10.911  12.459  19.381  0.00  0.00    +0.000 A 
ATOM     23  C   UNL     1      11.838  13.464  19.711  0.00  0.00    +0.000 A 
ATOM     24  C   UNL     1      12.328  14.320  18.728  0.00  0.00    +0.000 A 
ATOM     25  C   UNL     1      11.889  14.178  17.417  0.00  0.00    +0.000 A 
ATOM     26  C   UNL     1      10.969  13.175  17.093  0.00  0.00    +0.000 A 
ATOM     27  C   UNL     1      10.470  12.300  18.052  0.00  0.00    +0.000 A 
ATOM     28  N   UNL     1       9.598  11.340  17.687  0.00  0.00    +0.000 NA
ENDBRANCH  18  19
ENDBRANCH  15  17
ENDBRANCH   1  15
TORSDOF 7
ENDMDL
MODEL 8
REMARK VINA RESULT:      -8.6      5.434      6.836
REMARK  Name = 
REMARK  8 active torsions:
REMARK  status: ('A' for Active; 'I' for Inactive)
REMARK    1  A    between atoms: C_1  and  C_2
REMARK    2  A    between atoms: C_2  and  O_3
REMARK    3  A    between atoms: C_2  and  C_18
REMARK    4  A    between atoms: O_3  and  C_4
REMARK    5  A    between atoms: C_4  and  C_6
REMARK    6  A    between atoms: C_7  and  C_8
REMARK    7  A    between atoms: N_20  and  C_21
REMARK    8  A    between atoms: C_21  and  C_22
REMARK                            x       y       z     vdW  Elec       q    Type
REMARK                         _______ _______ _______ _____ _____    ______ ____
ROOT
ATOM      1  O   UNL     1       5.088   5.755  15.990  0.00  0.00    +0.000 OA
ENDROOT
BRANCH   1   3
ATOM      2  C   UNL     1       5.964   3.738  14.944  0.00  0.00    +0.000 C 
ATOM      3  C   UNL     1       5.444   4.383  16.229  0.00  0.00    +0.000 C 
BRANCH   3   4
ATOM      4  C   UNL     1       4.238   3.576  16.748  0.00  0.00    +0.000 C 
ATOM      5  O   UNL     1       3.091   3.766  16.343  0.00  0.00    +0.000 OA
ATOM      6  N   UNL     1       4.540   2.573  17.644  0.00  0.00    +0.000 N 
ATOM      7  H   UNL     1       5.510   2.384  17.862  0.00  0.00    +0.000 HD
BRANCH   6   8
ATOM      8  C   UNL     1       3.515   1.667  18.110  0.00  0.00    +0.000 C 
BRANCH   8   9
ATOM      9  C   UNL     1       2.722   2.244  19.253  0.00  0.00    +0.000 A 
ATOM     10  C   UNL     1       3.340   2.493  20.488  0.00  0.00    +0.000 A 
ATOM     11  C   UNL     1       2.614   3.048  21.544  0.00  0.00    +0.000 A 
ATOM     12  C   UNL     1       1.264   3.352  21.379  0.00  0.00    +0.000 A 
ATOM     13  C   UNL     1       0.639   3.101  20.159  0.00  0.00    +0.000 A 
ATOM     14  C   UNL     1       1.363   2.547  19.102  0.00  0.00    +0.000 A 
ENDBRANCH   8   9
ENDBRANCH   6   8
ENDBRANCH   3   4
ENDBRANCH   1   3
BRANCH   1  15
ATOM     15  C   UNL     1       5.778   6.663  16.728  0.00  0.00    +0.000 C 
ATOM     16  O   UNL     1       6.917   7.046  16.522  0.00  0.00    +0.000 OA
BRANCH  15  17
ATOM     17  C   UNL     1       4.923   7.123  17.841  0.00  0.00    +0.000 C 
ATOM     18  C   UNL     1       3.587   7.035  17.729  0.00  0.00    +0.000 C 
BRANCH  18  19
ATOM     19  C   UNL     1       2.645   7.451  18.776  0.00  0.00    +0.000 A 
ATOM     20  C   UNL     1       2.341   6.586  19.820  0.00  0.00    +0.000 A 
ATOM     21  C   UNL     1       1.472   7.018  20.817  0.00  0.00    +0.000 A 
ATOM     22  C   UNL     1       0.924   8.303  20.749  0.00  0.00    +0.000 A 
ATOM     23  C   UNL     1       0.054   8.787  21.742  0.00  0.00    +0.000 A 
ATOM     24  C   UNL     1      -0.481  10.069  21.645  0.00  0.00    +0.000 A 
ATOM     25  C   UNL     1      -0.154  10.866  20.554  0.00  0.00    +0.000 A 
ATOM     26  C   UNL     1       0.713  10.381  19.570  0.00  0.00    +0.000 A 
ATOM     27  C   UNL     1       1.270   9.109  19.645  0.00  0.00    +0.000 A 
ATOM     28  N   UNL     1       2.113   8.693  18.680  0.00  0.00    +0.000 NA
ENDBRANCH  18  19
ENDBRANCH  15  17
ENDBRANCH   1  15
TORSDOF 7
ENDMDL
MODEL 9
REMARK VINA RESULT:      -8.6      0.968      1.338
REMARK  Name = 
REMARK  8 active torsions:
REMARK  status: ('A' for Active; 'I' for Inactive)
REMARK    1  A    between atoms: C_1  and  C_2
REMARK    2  A    between atoms: C_2  and  O_3
REMARK    3  A    between atoms: C_2  and  C_18
REMARK    4  A    between atoms: O_3  and  C_4
REMARK    5  A    between atoms: C_4  and  C_6
REMARK    6  A    between atoms: C_7  and  C_8
REMARK    7  A    between atoms: N_20  and  C_21
REMARK    8  A    between atoms: C_21  and  C_22
REMARK                            x       y       z     vdW  Elec       q    Type
REMARK                         _______ _______ _______ _____ _____    ______ ____
ROOT
ATOM      1  O   UNL     1       6.940   6.876  16.977  0.00  0.00    +0.000 OA
ENDROOT
BRANCH   1   3
ATOM      2  C   UNL     1       7.057   4.816  15.686  0.00  0.00    +0.000 C 
ATOM      3  C   UNL     1       6.462   5.523  16.905  0.00  0.00    +0.000 C 
BRANCH   3   4
ATOM      4  C   UNL     1       4.925   5.478  16.816  0.00  0.00    +0.000 C 
ATOM      5  O   UNL     1       4.328   4.684  16.088  0.00  0.00    +0.000 OA
ATOM      6  N   UNL     1       4.258   6.335  17.664  0.00  0.00    +0.000 N 
ATOM      7  H   UNL     1       4.791   6.890  18.322  0.00  0.00    +0.000 HD
BRANCH   6   8
ATOM      8  C   UNL     1       2.816   6.302  17.764  0.00  0.00    +0.000 C 
BRANCH   8   9
ATOM      9  C   UNL     1       2.340   5.286  18.768  0.00  0.00    +0.000 A 
ATOM     10  C   UNL     1       2.587   5.472  20.137  0.00  0.00    +0.000 A 
ATOM     11  C   UNL     1       2.129   4.544  21.074  0.00  0.00    +0.000 A 
ATOM     12  C   UNL     1       1.428   3.415  20.652  0.00  0.00    +0.000 A 
ATOM     13  C   UNL     1       1.184   3.216  19.294  0.00  0.00    +0.000 A 
ATOM     14  C   UNL     1       1.640   4.144  18.357  0.00  0.00    +0.000 A 
ENDBRANCH   8   9
ENDBRANCH   6   8
ENDBRANCH   3   4
ENDBRANCH   1   3
BRANCH   1  15
ATOM     15  C   UNL     1       7.737   7.146  18.043  0.00  0.00    +0.000 C 
ATOM     16  O   UNL     1       8.081   6.358  18.907  0.00  0.00    +0.000 OA
BRANCH  15  17
ATOM     17  C   UNL     1       8.130   8.569  17.999  0.00  0.00    +0.000 C 
ATOM     18  C   UNL     1       8.875   9.081  18.993  0.00  0.00    +0.000 C 
BRANCH  18  19
ATOM     19  C   UNL     1       9.332  10.477  19.044  0.00  0.00    +0.000 A 
ATOM     20  C   UNL     1       9.724  11.122  17.878  0.00  0.00    +0.000 A 
ATOM     21  C   UNL     1      10.119  12.454  17.950  0.00  0.00    +0.000 A 
ATOM     22  C   UNL     1      10.116  13.111  19.184  0.00  0.00    +0.000 A 
ATOM     23  C   UNL     1      10.492  14.461  19.301  0.00  0.00    +0.000 A 
ATOM     24  C   UNL     1      10.484  15.089  20.545  0.00  0.00    +0.000 A 
ATOM     25  C   UNL     1      10.108  14.368  21.672  0.00  0.00    +0.000 A 
ATOM     26  C   UNL     1       9.733  13.027  21.550  0.00  0.00    +0.000 A 
ATOM     27  C   UNL     1       9.722  12.377  20.321  0.00  0.00    +0.000 A 
ATOM     28  N   UNL     1       9.337  11.088  20.253  0.00  0.00    +0.000 NA
ENDBRANCH  18  19
ENDBRANCH  15  17
ENDBRANCH   1  15
TORSDOF 7
ENDMDL
