MODEL 1
REMARK VINA RESULT:      -7.2      0.000      0.000
REMARK  Name = 
REMARK  6 active torsions:
REMARK  status: ('A' for Active; 'I' for Inactive)
REMARK    1  A    between atoms: C_1  and  O_2
REMARK    2  A    between atoms: O_2  and  C_3
REMARK    3  A    between atoms: C_3  and  C_5
REMARK    4  A    between atoms: C_5  and  N_6
REMARK    5  A    between atoms: C_16  and  C_17
REMARK    6  A    between atoms: N_24  and  C_25
REMARK                            x       y       z     vdW  Elec       q    Type
REMARK                         _______ _______ _______ _____ _____    ______ ____
ROOT
ATOM      1  N   UNL     1       2.429   5.868  20.593  0.00  0.00    +0.000 N 
ATOM      2  C   UNL     1       2.517   6.650  19.473  0.00  0.00    +0.000 C 
ATOM      3  O   UNL     1       3.052   6.244  18.445  0.00  0.00    +0.000 OA
ATOM      4  N   UNL     1       1.949   7.902  19.590  0.00  0.00    +0.000 N 
ATOM      5  C   UNL     1       1.918   8.749  18.404  0.00  0.00    +0.000 C 
ATOM      6  C   UNL     1       0.513   9.303  18.212  0.00  0.00    +0.000 C 
ATOM      7  C   UNL     1       0.036  10.110  19.448  0.00  0.00    +0.000 C 
ATOM      8  C   UNL     1       0.140   9.182  20.688  0.00  0.00    +0.000 C 
ATOM      9  C   UNL     1       1.530   8.548  20.835  0.00  0.00    +0.000 C 
ATOM     10  C   UNL     1       0.893  11.372  19.687  0.00  0.00    +0.000 C 
ATOM     11  C   UNL     1       0.764  12.373  18.530  0.00  0.00    +0.000 C 
ATOM     12  C   UNL     1      -0.717  12.730  18.303  0.00  0.00    +0.000 C 
ATOM     13  N   UNL     1      -1.555  11.526  18.121  0.00  0.00    +0.000 NA
ATOM     14  C   UNL     1      -2.954  11.908  17.923  0.00  0.00    +0.000 C 
ATOM     15  C   UNL     1      -1.428  10.583  19.248  0.00  0.00    +0.000 C 
ATOM     16  H   UNL     1       1.548   5.965  21.076  0.00  0.00    +0.000 HD
ENDROOT
BRANCH  11  17
ATOM     17  C   UNL     1       1.665  13.568  18.789  0.00  0.00    +0.000 A 
ATOM     18  C   UNL     1       1.141  14.706  19.416  0.00  0.00    +0.000 A 
ATOM     19  C   UNL     1       1.909  15.862  19.542  0.00  0.00    +0.000 A 
ATOM     20  C   UNL     1       3.209  15.896  19.042  0.00  0.00    +0.000 A 
ATOM     21  C   UNL     1       3.748  14.766  18.435  0.00  0.00    +0.000 A 
ATOM     22  C   UNL     1       2.987  13.605  18.317  0.00  0.00    +0.000 A 
ENDBRANCH  11  17
BRANCH   1  23
ATOM     23  C   UNL     1       2.914   4.499  20.525  0.00  0.00    +0.000 C 
BRANCH  23  24
ATOM     24  C   UNL     1       1.907   3.556  21.167  0.00  0.00    +0.000 C 
ATOM     25  O   UNL     1       2.089   2.964  22.225  0.00  0.00    +0.000 OA
BRANCH  24  27
ATOM     26  C   UNL     1       1.099   2.849  19.085  0.00  0.00    +0.000 C 
ATOM     27  O   UNL     1       0.815   3.416  20.364  0.00  0.00    +0.000 OA
ENDBRANCH  24  27
ENDBRANCH  23  24
ENDBRANCH   1  23
TORSDOF 4
ENDMDL
MODEL 2
REMARK VINA RESULT:      -7.2      0.702      1.005
REMARK  Name = 
REMARK  6 active torsions:
REMARK  status: ('A' for Active; 'I' for Inactive)
REMARK    1  A    between atoms: C_1  and  O_2
REMARK    2  A    between atoms: O_2  and  C_3
REMARK    3  A    between atoms: C_3  and  C_5
REMARK    4  A    between atoms: C_5  and  N_6
REMARK    5  A    between atoms: C_16  and  C_17
REMARK    6  A    between atoms: N_24  and  C_25
REMARK                            x       y       z     vdW  Elec       q    Type
REMARK                         _______ _______ _______ _____ _____    ______ ____
ROOT
ATOM      1  N   UNL     1       2.411   5.540  20.526  0.00  0.00    +0.000 N 
ATOM      2  C   UNL     1       2.596   6.386  19.465  0.00  0.00    +0.000 C 
ATOM      3  O   UNL     1       3.175   6.023  18.445  0.00  0.00    +0.000 OA
ATOM      4  N   UNL     1       2.071   7.652  19.631  0.00  0.00    +0.000 N 
ATOM      5  C   UNL     1       2.144   8.572  18.502  0.00  0.00    +0.000 C 
ATOM      6  C   UNL     1       0.775   9.196  18.267  0.00  0.00    +0.000 C 
ATOM      7  C   UNL     1       0.258   9.945  19.524  0.00  0.00    +0.000 C 
ATOM      8  C   UNL     1       0.251   8.937  20.705  0.00  0.00    +0.000 C 
ATOM      9  C   UNL     1       1.605   8.236  20.890  0.00  0.00    +0.000 C 
ATOM     10  C   UNL     1       1.148  11.151  19.893  0.00  0.00    +0.000 C 
ATOM     11  C   UNL     1       1.127  12.226  18.797  0.00  0.00    +0.000 C 
ATOM     12  C   UNL     1      -0.323  12.661  18.510  0.00  0.00    +0.000 C 
ATOM     13  N   UNL     1      -1.195  11.507  18.203  0.00  0.00    +0.000 NA
ATOM     14  C   UNL     1      -2.564  11.960  17.951  0.00  0.00    +0.000 C 
ATOM     15  C   UNL     1      -1.172  10.491  19.272  0.00  0.00    +0.000 C 
ATOM     16  H   UNL     1       1.507   5.645  20.963  0.00  0.00    +0.000 HD
ENDROOT
BRANCH  11  17
ATOM     17  C   UNL     1       2.057  13.363  19.184  0.00  0.00    +0.000 A 
ATOM     18  C   UNL     1       2.831  13.989  18.197  0.00  0.00    +0.000 A 
ATOM     19  C   UNL     1       3.788  14.941  18.545  0.00  0.00    +0.000 A 
ATOM     20  C   UNL     1       3.986  15.276  19.883  0.00  0.00    +0.000 A 
ATOM     21  C   UNL     1       3.211  14.677  20.870  0.00  0.00    +0.000 A 
ATOM     22  C   UNL     1       2.245  13.733  20.525  0.00  0.00    +0.000 A 
ENDBRANCH  11  17
BRANCH   1  23
ATOM     23  C   UNL     1       2.845   4.159  20.396  0.00  0.00    +0.000 C 
BRANCH  23  24
ATOM     24  C   UNL     1       1.843   3.231  21.070  0.00  0.00    +0.000 C 
ATOM     25  O   UNL     1       2.027   2.680  22.149  0.00  0.00    +0.000 OA
BRANCH  24  27
ATOM     26  C   UNL     1       1.059   2.525  18.979  0.00  0.00    +0.000 C 
ATOM     27  O   UNL     1       0.755   3.055  20.269  0.00  0.00    +0.000 OA
ENDBRANCH  24  27
ENDBRANCH  23  24
ENDBRANCH   1  23
TORSDOF 4
ENDMDL
MODEL 3
REMARK VINA RESULT:      -6.9      2.066      4.687
REMARK  Name = 
REMARK  6 active torsions:
REMARK  status: ('A' for Active; 'I' for Inactive)
REMARK    1  A    between atoms: C_1  and  O_2
REMARK    2  A    between atoms: O_2  and  C_3
REMARK    3  A    between atoms: C_3  and  C_5
REMARK    4  A    between atoms: C_5  and  N_6
REMARK    5  A    between atoms: C_16  and  C_17
REMARK    6  A    between atoms: N_24  and  C_25
REMARK                            x       y       z     vdW  Elec       q    Type
REMARK                         _______ _______ _______ _____ _____    ______ ____
ROOT
ATOM      1  N   UNL     1       3.354   6.301  18.937  0.00  0.00    +0.000 N 
ATOM      2  C   UNL     1       2.381   6.795  19.763  0.00  0.00    +0.000 C 
ATOM      3  O   UNL     1       2.091   6.242  20.820  0.00  0.00    +0.000 OA
ATOM      4  N   UNL     1       1.776   7.955  19.322  0.00  0.00    +0.000 N 
ATOM      5  C   UNL     1       0.800   8.589  20.201  0.00  0.00    +0.000 C 
ATOM      6  C   UNL     1       1.121  10.073  20.328  0.00  0.00    +0.000 C 
ATOM      7  C   UNL     1       1.129  10.782  18.948  0.00  0.00    +0.000 C 
ATOM      8  C   UNL     1       2.140  10.036  18.037  0.00  0.00    +0.000 C 
ATOM      9  C   UNL     1       1.876   8.525  17.977  0.00  0.00    +0.000 C 
ATOM     10  C   UNL     1      -0.262  10.769  18.278  0.00  0.00    +0.000 C 
ATOM     11  C   UNL     1      -1.291  11.568  19.090  0.00  0.00    +0.000 C 
ATOM     12  C   UNL     1      -0.785  13.006  19.315  0.00  0.00    +0.000 C 
ATOM     13  N   UNL     1       0.567  13.030  19.913  0.00  0.00    +0.000 NA
ATOM     14  C   UNL     1       1.015  14.411  20.096  0.00  0.00    +0.000 C 
ATOM     15  C   UNL     1       1.543  12.269  19.111  0.00  0.00    +0.000 C 
ATOM     16  H   UNL     1       3.922   7.023  18.517  0.00  0.00    +0.000 HD
ENDROOT
BRANCH  11  17
ATOM     17  C   UNL     1      -2.649  11.479  18.417  0.00  0.00    +0.000 A 
ATOM     18  C   UNL     1      -2.739  11.016  17.098  0.00  0.00    +0.000 A 
ATOM     19  C   UNL     1      -3.953  11.052  16.415  0.00  0.00    +0.000 A 
ATOM     20  C   UNL     1      -5.093  11.553  17.041  0.00  0.00    +0.000 A 
ATOM     21  C   UNL     1      -5.022  11.997  18.357  0.00  0.00    +0.000 A 
ATOM     22  C   UNL     1      -3.811  11.952  19.047  0.00  0.00    +0.000 A 
ENDBRANCH  11  17
BRANCH   1  23
ATOM     23  C   UNL     1       4.111   5.138  19.372  0.00  0.00    +0.000 C 
BRANCH  23  24
ATOM     24  C   UNL     1       5.575   5.294  18.987  0.00  0.00    +0.000 C 
ATOM     25  O   UNL     1       6.510   5.223  19.777  0.00  0.00    +0.000 OA
BRANCH  24  27
ATOM     26  C   UNL     1       5.738   4.443  16.811  0.00  0.00    +0.000 C 
ATOM     27  O   UNL     1       5.683   5.588  17.661  0.00  0.00    +0.000 OA
ENDBRANCH  24  27
ENDBRANCH  23  24
ENDBRANCH   1  23
TORSDOF 4
ENDMDL
MODEL 4
REMARK VINA RESULT:      -6.8      0.631      1.025
REMARK  Name = 
REMARK  6 active torsions:
REMARK  status: ('A' for Active; 'I' for Inactive)
REMARK    1  A    between atoms: C_1  and  O_2
REMARK    2  A    between atoms: O_2  and  C_3
REMARK    3  A    between atoms: C_3  and  C_5
REMARK    4  A    between atoms: C_5  and  N_6
REMARK    5  A    between atoms: C_16  and  C_17
REMARK    6  A    between atoms: N_24  and  C_25
REMARK                            x       y       z     vdW  Elec       q    Type
REMARK                         _______ _______ _______ _____ _____    ______ ____
ROOT
ATOM      1  N   UNL     1       2.589   5.883  20.165  0.00  0.00    +0.000 N 
ATOM      2  C   UNL     1       2.633   6.738  19.096  0.00  0.00    +0.000 C 
ATOM      3  O   UNL     1       3.155   6.412  18.033  0.00  0.00    +0.000 OA
ATOM      4  N   UNL     1       2.038   7.965  19.306  0.00  0.00    +0.000 N 
ATOM      5  C   UNL     1       1.961   8.885  18.178  0.00  0.00    +0.000 C 
ATOM      6  C   UNL     1       0.539   9.415  18.051  0.00  0.00    +0.000 C 
ATOM      7  C   UNL     1       0.071  10.129  19.347  0.00  0.00    +0.000 C 
ATOM      8  C   UNL     1       0.224   9.126  20.522  0.00  0.00    +0.000 C 
ATOM      9  C   UNL     1       1.632   8.519  20.599  0.00  0.00    +0.000 C 
ATOM     10  C   UNL     1       0.902  11.394  19.649  0.00  0.00    +0.000 C 
ATOM     11  C   UNL     1       0.724  12.463  18.562  0.00  0.00    +0.000 C 
ATOM     12  C   UNL     1      -0.770  12.797  18.389  0.00  0.00    +0.000 C 
ATOM     13  N   UNL     1      -1.582  11.586  18.146  0.00  0.00    +0.000 NA
ATOM     14  C   UNL     1      -2.994  11.944  18.002  0.00  0.00    +0.000 C 
ATOM     15  C   UNL     1      -1.408  10.577  19.207  0.00  0.00    +0.000 C 
ATOM     16  H   UNL     1       1.716   5.927  20.671  0.00  0.00    +0.000 HD
ENDROOT
BRANCH  11  17
ATOM     17  C   UNL     1       1.602  13.661  18.879  0.00  0.00    +0.000 A 
ATOM     18  C   UNL     1       1.204  14.566  19.872  0.00  0.00    +0.000 A 
ATOM     19  C   UNL     1       1.921  15.742  20.088  0.00  0.00    +0.000 A 
ATOM     20  C   UNL     1       3.043  16.029  19.312  0.00  0.00    +0.000 A 
ATOM     21  C   UNL     1       3.460  15.129  18.337  0.00  0.00    +0.000 A 
ATOM     22  C   UNL     1       2.752  13.947  18.126  0.00  0.00    +0.000 A 
ENDBRANCH  11  17
BRANCH   1  23
ATOM     23  C   UNL     1       3.104   4.534  19.998  0.00  0.00    +0.000 C 
BRANCH  23  24
ATOM     24  C   UNL     1       2.000   3.610  19.506  0.00  0.00    +0.000 C 
ATOM     25  O   UNL     1       1.886   3.222  18.349  0.00  0.00    +0.000 OA
BRANCH  24  27
ATOM     26  C   UNL     1       1.719   2.677  21.636  0.00  0.00    +0.000 C 
ATOM     27  O   UNL     1       1.128   3.339  20.518  0.00  0.00    +0.000 OA
ENDBRANCH  24  27
ENDBRANCH  23  24
ENDBRANCH   1  23
TORSDOF 4
ENDMDL
MODEL 5
REMARK VINA RESULT:      -6.8      2.107      4.730
REMARK  Name = 
REMARK  6 active torsions:
REMARK  status: ('A' for Active; 'I' for Inactive)
REMARK    1  A    between atoms: C_1  and  O_2
REMARK    2  A    between atoms: O_2  and  C_3
REMARK    3  A    between atoms: C_3  and  C_5
REMARK    4  A    between atoms: C_5  and  N_6
REMARK    5  A    between atoms: C_16  and  C_17
REMARK    6  A    between atoms: N_24  and  C_25
REMARK                            x       y       z     vdW  Elec       q    Type
REMARK                         _______ _______ _______ _____ _____    ______ ____
ROOT
ATOM      1  N   UNL     1       3.314   6.456  18.852  0.00  0.00    +0.000 N 
ATOM      2  C   UNL     1       2.346   6.928  19.697  0.00  0.00    +0.000 C 
ATOM      3  O   UNL     1       2.054   6.340  20.735  0.00  0.00    +0.000 OA
ATOM      4  N   UNL     1       1.749   8.106  19.299  0.00  0.00    +0.000 N 
ATOM      5  C   UNL     1       0.780   8.717  20.201  0.00  0.00    +0.000 C 
ATOM      6  C   UNL     1       1.112  10.193  20.379  0.00  0.00    +0.000 C 
ATOM      7  C   UNL     1       1.122  10.950  19.024  0.00  0.00    +0.000 C 
ATOM      8  C   UNL     1       2.126  10.229  18.086  0.00  0.00    +0.000 C 
ATOM      9  C   UNL     1       1.851   8.723  17.974  0.00  0.00    +0.000 C 
ATOM     10  C   UNL     1      -0.269  10.971  18.357  0.00  0.00    +0.000 C 
ATOM     11  C   UNL     1      -1.291  11.749  19.199  0.00  0.00    +0.000 C 
ATOM     12  C   UNL     1      -0.775  13.174  19.473  0.00  0.00    +0.000 C 
ATOM     13  N   UNL     1       0.579  13.167  20.068  0.00  0.00    +0.000 NA
ATOM     14  C   UNL     1       1.038  14.537  20.299  0.00  0.00    +0.000 C 
ATOM     15  C   UNL     1       1.548  12.427  19.239  0.00  0.00    +0.000 C 
ATOM     16  H   UNL     1       3.886   7.188  18.457  0.00  0.00    +0.000 HD
ENDROOT
BRANCH  11  17
ATOM     17  C   UNL     1      -2.652  11.693  18.527  0.00  0.00    +0.000 A 
ATOM     18  C   UNL     1      -3.791  12.091  19.239  0.00  0.00    +0.000 A 
ATOM     19  C   UNL     1      -5.062  11.922  18.692  0.00  0.00    +0.000 A 
ATOM     20  C   UNL     1      -5.211  11.353  17.429  0.00  0.00    +0.000 A 
ATOM     21  C   UNL     1      -4.086  10.972  16.704  0.00  0.00    +0.000 A 
ATOM     22  C   UNL     1      -2.813  11.149  17.243  0.00  0.00    +0.000 A 
ENDBRANCH  11  17
BRANCH   1  23
ATOM     23  C   UNL     1       4.062   5.273  19.245  0.00  0.00    +0.000 C 
BRANCH  23  24
ATOM     24  C   UNL     1       5.544   5.473  18.960  0.00  0.00    +0.000 C 
ATOM     25  O   UNL     1       6.441   5.237  19.761  0.00  0.00    +0.000 OA
BRANCH  24  27
ATOM     26  C   UNL     1       6.946   6.716  17.555  0.00  0.00    +0.000 C 
ATOM     27  O   UNL     1       5.715   6.014  17.721  0.00  0.00    +0.000 OA
ENDBRANCH  24  27
ENDBRANCH  23  24
ENDBRANCH   1  23
TORSDOF 4
ENDMDL
MODEL 6
REMARK VINA RESULT:      -6.8      0.796      1.414
REMARK  Name = 
REMARK  6 active torsions:
REMARK  status: ('A' for Active; 'I' for Inactive)
REMARK    1  A    between atoms: C_1  and  O_2
REMARK    2  A    between atoms: O_2  and  C_3
REMARK    3  A    between atoms: C_3  and  C_5
REMARK    4  A    between atoms: C_5  and  N_6
REMARK    5  A    between atoms: C_16  and  C_17
REMARK    6  A    between atoms: N_24  and  C_25
REMARK                            x       y       z     vdW  Elec       q    Type
REMARK                         _______ _______ _______ _____ _____    ______ ____
ROOT
ATOM      1  N   UNL     1       2.687   5.650  20.050  0.00  0.00    +0.000 N 
ATOM      2  C   UNL     1       2.772   6.548  19.021  0.00  0.00    +0.000 C 
ATOM      3  O   UNL     1       3.317   6.261  17.958  0.00  0.00    +0.000 OA
ATOM      4  N   UNL     1       2.189   7.774  19.268  0.00  0.00    +0.000 N 
ATOM      5  C   UNL     1       2.155   8.743  18.179  0.00  0.00    +0.000 C 
ATOM      6  C   UNL     1       0.745   9.300  18.038  0.00  0.00    +0.000 C 
ATOM      7  C   UNL     1       0.252   9.964  19.352  0.00  0.00    +0.000 C 
ATOM      8  C   UNL     1       0.360   8.909  20.486  0.00  0.00    +0.000 C 
ATOM      9  C   UNL     1       1.757   8.279  20.573  0.00  0.00    +0.000 C 
ATOM     10  C   UNL     1       1.094  11.202  19.730  0.00  0.00    +0.000 C 
ATOM     11  C   UNL     1       0.959  12.320  18.686  0.00  0.00    +0.000 C 
ATOM     12  C   UNL     1      -0.525  12.684  18.489  0.00  0.00    +0.000 C 
ATOM     13  N   UNL     1      -1.348  11.497  18.173  0.00  0.00    +0.000 NA
ATOM     14  C   UNL     1      -2.750  11.883  18.009  0.00  0.00    +0.000 C 
ATOM     15  C   UNL     1      -1.216  10.440  19.194  0.00  0.00    +0.000 C 
ATOM     16  H   UNL     1       1.802   5.685  20.535  0.00  0.00    +0.000 HD
ENDROOT
BRANCH  11  17
ATOM     17  C   UNL     1       1.845  13.490  19.077  0.00  0.00    +0.000 A 
ATOM     18  C   UNL     1       2.890  13.879  18.228  0.00  0.00    +0.000 A 
ATOM     19  C   UNL     1       3.798  14.859  18.626  0.00  0.00    +0.000 A 
ATOM     20  C   UNL     1       3.675  15.460  19.877  0.00  0.00    +0.000 A 
ATOM     21  C   UNL     1       2.630  15.097  20.721  0.00  0.00    +0.000 A 
ATOM     22  C   UNL     1       1.714  14.125  20.322  0.00  0.00    +0.000 A 
ENDBRANCH  11  17
BRANCH   1  23
ATOM     23  C   UNL     1       3.188   4.301  19.838  0.00  0.00    +0.000 C 
BRANCH  23  24
ATOM     24  C   UNL     1       2.050   3.381  19.421  0.00  0.00    +0.000 C 
ATOM     25  O   UNL     1       1.967   2.833  18.328  0.00  0.00    +0.000 OA
BRANCH  24  27
ATOM     26  C   UNL     1       1.557   2.646  21.590  0.00  0.00    +0.000 C 
ATOM     27  O   UNL     1       1.113   3.314  20.410  0.00  0.00    +0.000 OA
ENDBRANCH  24  27
ENDBRANCH  23  24
ENDBRANCH   1  23
TORSDOF 4
ENDMDL
MODEL 7
REMARK VINA RESULT:      -6.7      2.031      4.469
REMARK  Name = 
REMARK  6 active torsions:
REMARK  status: ('A' for Active; 'I' for Inactive)
REMARK    1  A    between atoms: C_1  and  O_2
REMARK    2  A    between atoms: O_2  and  C_3
REMARK    3  A    between atoms: C_3  and  C_5
REMARK    4  A    between atoms: C_5  and  N_6
REMARK    5  A    between atoms: C_16  and  C_17
REMARK    6  A    between atoms: N_24  and  C_25
REMARK                            x       y       z     vdW  Elec       q    Type
REMARK                         _______ _______ _______ _____ _____    ______ ____
ROOT
ATOM      1  N   UNL     1       3.408   6.352  18.769  0.00  0.00    +0.000 N 
ATOM      2  C   UNL     1       2.421   6.791  19.610  0.00  0.00    +0.000 C 
ATOM      3  O   UNL     1       2.134   6.183  20.639  0.00  0.00    +0.000 OA
ATOM      4  N   UNL     1       1.800   7.960  19.221  0.00  0.00    +0.000 N 
ATOM      5  C   UNL     1       0.809   8.537  20.121  0.00  0.00    +0.000 C 
ATOM      6  C   UNL     1       1.105  10.018  20.320  0.00  0.00    +0.000 C 
ATOM      7  C   UNL     1       1.110  10.791  18.975  0.00  0.00    +0.000 C 
ATOM      8  C   UNL     1       2.139  10.105  18.037  0.00  0.00    +0.000 C 
ATOM      9  C   UNL     1       1.900   8.594  17.905  0.00  0.00    +0.000 C 
ATOM     10  C   UNL     1      -0.276  10.788  18.295  0.00  0.00    +0.000 C 
ATOM     11  C   UNL     1      -1.323  11.531  19.137  0.00  0.00    +0.000 C 
ATOM     12  C   UNL     1      -0.842  12.965  19.433  0.00  0.00    +0.000 C 
ATOM     13  N   UNL     1       0.505  12.981  20.040  0.00  0.00    +0.000 NA
ATOM     14  C   UNL     1       0.930  14.360  20.292  0.00  0.00    +0.000 C 
ATOM     15  C   UNL     1       1.499  12.275  19.211  0.00  0.00    +0.000 C 
ATOM     16  H   UNL     1       3.966   7.102  18.388  0.00  0.00    +0.000 HD
ENDROOT
BRANCH  11  17
ATOM     17  C   UNL     1      -2.676  11.452  18.452  0.00  0.00    +0.000 A 
ATOM     18  C   UNL     1      -2.755  10.993  17.130  0.00  0.00    +0.000 A 
ATOM     19  C   UNL     1      -3.963  11.039  16.436  0.00  0.00    +0.000 A 
ATOM     20  C   UNL     1      -5.106  11.545  17.053  0.00  0.00    +0.000 A 
ATOM     21  C   UNL     1      -5.044  11.985  18.371  0.00  0.00    +0.000 A 
ATOM     22  C   UNL     1      -3.841  11.931  19.072  0.00  0.00    +0.000 A 
ENDBRANCH  11  17
BRANCH   1  23
ATOM     23  C   UNL     1       4.180   5.182  19.155  0.00  0.00    +0.000 C 
BRANCH  23  24
ATOM     24  C   UNL     1       3.995   4.072  18.129  0.00  0.00    +0.000 C 
ATOM     25  O   UNL     1       4.625   3.986  17.081  0.00  0.00    +0.000 OA
BRANCH  24  27
ATOM     26  C   UNL     1       3.303   1.852  18.403  0.00  0.00    +0.000 C 
ATOM     27  O   UNL     1       2.988   3.239  18.515  0.00  0.00    +0.000 OA
ENDBRANCH  24  27
ENDBRANCH  23  24
ENDBRANCH   1  23
TORSDOF 4
ENDMDL
MODEL 8
REMARK VINA RESULT:      -6.7      1.999      4.412
REMARK  Name = 
REMARK  6 active torsions:
REMARK  status: ('A' for Active; 'I' for Inactive)
REMARK    1  A    between atoms: C_1  and  O_2
REMARK    2  A    between atoms: O_2  and  C_3
REMARK    3  A    between atoms: C_3  and  C_5
REMARK    4  A    between atoms: C_5  and  N_6
REMARK    5  A    between atoms: C_16  and  C_17
REMARK    6  A    between atoms: N_24  and  C_25
REMARK                            x       y       z     vdW  Elec       q    Type
REMARK                         _______ _______ _______ _____ _____    ______ ____
ROOT
ATOM      1  N   UNL     1       3.215   6.515  18.962  0.00  0.00    +0.000 N 
ATOM      2  C   UNL     1       2.248   7.011  19.796  0.00  0.00    +0.000 C 
ATOM      3  O   UNL     1       1.956   6.451  20.849  0.00  0.00    +0.000 OA
ATOM      4  N   UNL     1       1.654   8.181  19.368  0.00  0.00    +0.000 N 
ATOM      5  C   UNL     1       0.688   8.818  20.255  0.00  0.00    +0.000 C 
ATOM      6  C   UNL     1       1.024  10.296  20.395  0.00  0.00    +0.000 C 
ATOM      7  C   UNL     1       1.035  11.019  19.021  0.00  0.00    +0.000 C 
ATOM      8  C   UNL     1       2.037  10.271  18.101  0.00  0.00    +0.000 C 
ATOM      9  C   UNL     1       1.757   8.763  18.028  0.00  0.00    +0.000 C 
ATOM     10  C   UNL     1      -0.357  11.026  18.355  0.00  0.00    +0.000 C 
ATOM     11  C   UNL     1      -1.375  11.828  19.177  0.00  0.00    +0.000 C 
ATOM     12  C   UNL     1      -0.855  13.259  19.414  0.00  0.00    +0.000 C 
ATOM     13  N   UNL     1       0.499  13.262  20.009  0.00  0.00    +0.000 NA
ATOM     14  C   UNL     1       0.962  14.637  20.204  0.00  0.00    +0.000 C 
ATOM     15  C   UNL     1       1.466  12.499  19.198  0.00  0.00    +0.000 C 
ATOM     16  H   UNL     1       3.789   7.235  18.548  0.00  0.00    +0.000 HD
ENDROOT
BRANCH  11  17
ATOM     17  C   UNL     1      -2.737  11.759  18.508  0.00  0.00    +0.000 A 
ATOM     18  C   UNL     1      -3.882  12.116  19.232  0.00  0.00    +0.000 A 
ATOM     19  C   UNL     1      -5.151  11.933  18.685  0.00  0.00    +0.000 A 
ATOM     20  C   UNL     1      -5.292  11.390  17.410  0.00  0.00    +0.000 A 
ATOM     21  C   UNL     1      -4.162  11.050  16.673  0.00  0.00    +0.000 A 
ATOM     22  C   UNL     1      -2.891  11.241  17.212  0.00  0.00    +0.000 A 
ENDBRANCH  11  17
BRANCH   1  23
ATOM     23  C   UNL     1       3.960   5.341  19.385  0.00  0.00    +0.000 C 
BRANCH  23  24
ATOM     24  C   UNL     1       3.833   4.238  18.344  0.00  0.00    +0.000 C 
ATOM     25  O   UNL     1       3.406   4.406  17.207  0.00  0.00    +0.000 OA
BRANCH  24  27
ATOM     26  C   UNL     1       3.410   1.936  18.430  0.00  0.00    +0.000 C 
ATOM     27  O   UNL     1       4.195   3.040  18.882  0.00  0.00    +0.000 OA
ENDBRANCH  24  27
ENDBRANCH  23  24
ENDBRANCH   1  23
TORSDOF 4
ENDMDL
MODEL 9
REMARK VINA RESULT:      -6.5      2.671      5.165
REMARK  Name = 
REMARK  6 active torsions:
REMARK  status: ('A' for Active; 'I' for Inactive)
REMARK    1  A    between atoms: C_1  and  O_2
REMARK    2  A    between atoms: O_2  and  C_3
REMARK    3  A    between atoms: C_3  and  C_5
REMARK    4  A    between atoms: C_5  and  N_6
REMARK    5  A    between atoms: C_16  and  C_17
REMARK    6  A    between atoms: N_24  and  C_25
REMARK                            x       y       z     vdW  Elec       q    Type
REMARK                         _______ _______ _______ _____ _____    ______ ____
ROOT
ATOM      1  N   UNL     1       3.581   7.369  17.825  0.00  0.00    +0.000 N 
ATOM      2  C   UNL     1       2.581   7.442  18.758  0.00  0.00    +0.000 C 
ATOM      3  O   UNL     1       2.372   6.527  19.550  0.00  0.00    +0.000 OA
ATOM      4  N   UNL     1       1.855   8.615  18.743  0.00  0.00    +0.000 N 
ATOM      5  C   UNL     1       0.840   8.800  19.774  0.00  0.00    +0.000 C 
ATOM      6  C   UNL     1       1.015  10.169  20.418  0.00  0.00    +0.000 C 
ATOM      7  C   UNL     1       0.921  11.314  19.374  0.00  0.00    +0.000 C 
ATOM      8  C   UNL     1       1.982  11.040  18.274  0.00  0.00    +0.000 C 
ATOM      9  C   UNL     1       1.868   9.627  17.685  0.00  0.00    +0.000 C 
ATOM     10  C   UNL     1      -0.475  11.396  18.722  0.00  0.00    +0.000 C 
ATOM     11  C   UNL     1      -1.561  11.752  19.748  0.00  0.00    +0.000 C 
ATOM     12  C   UNL     1      -1.196  13.063  20.470  0.00  0.00    +0.000 C 
ATOM     13  N   UNL     1       0.160  13.012  21.058  0.00  0.00    +0.000 NA
ATOM     14  C   UNL     1       0.473  14.280  21.720  0.00  0.00    +0.000 C 
ATOM     15  C   UNL     1       1.189  12.683  20.054  0.00  0.00    +0.000 C 
ATOM     16  H   UNL     1       4.064   8.246  17.693  0.00  0.00    +0.000 HD
ENDROOT
BRANCH  11  17
ATOM     17  C   UNL     1      -2.918  11.767  19.068  0.00  0.00    +0.000 A 
ATOM     18  C   UNL     1      -3.038  11.299  17.753  0.00  0.00    +0.000 A 
ATOM     19  C   UNL     1      -4.241  11.427  17.062  0.00  0.00    +0.000 A 
ATOM     20  C   UNL     1      -5.340  12.027  17.675  0.00  0.00    +0.000 A 
ATOM     21  C   UNL     1      -5.240  12.477  18.988  0.00  0.00    +0.000 A 
ATOM     22  C   UNL     1      -4.041  12.341  19.685  0.00  0.00    +0.000 A 
ENDBRANCH  11  17
BRANCH   1  23
ATOM     23  C   UNL     1       4.458   6.210  17.836  0.00  0.00    +0.000 C 
BRANCH  23  24
ATOM     24  C   UNL     1       5.446   6.292  16.681  0.00  0.00    +0.000 C 
ATOM     25  O   UNL     1       5.193   6.783  15.587  0.00  0.00    +0.000 OA
BRANCH  24  27
ATOM     26  C   UNL     1       7.282   6.274  18.135  0.00  0.00    +0.000 C 
ATOM     27  O   UNL     1       6.617   5.682  17.020  0.00  0.00    +0.000 OA
ENDBRANCH  24  27
ENDBRANCH  23  24
ENDBRANCH   1  23
TORSDOF 4
ENDMDL
