MODEL 1
REMARK VINA RESULT:      -7.4      0.000      0.000
REMARK  Name = 
REMARK  4 active torsions:
REMARK  status: ('A' for Active; 'I' for Inactive)
REMARK    1  A    between atoms: C_1  and  O_2
REMARK    2  A    between atoms: O_2  and  C_3
REMARK    3  A    between atoms: C_3  and  C_5
REMARK    4  A    between atoms: C_9  and  C_11
REMARK                            x       y       z     vdW  Elec       q    Type
REMARK                         _______ _______ _______ _____ _____    ______ ____
ROOT
ATOM      1  C   UNL     1       5.641   5.174  15.398  0.00  0.00    +0.000 C 
ATOM      2  C   UNL     1       5.070   6.484  15.963  0.00  0.00    +0.000 C 
ATOM      3  C   UNL     1       5.184   6.543  17.487  0.00  0.00    +0.000 C 
ATOM      4  N   UNL     1       4.570   5.362  18.094  0.00  0.00    +0.000 N 
ATOM      5  C   UNL     1       3.529   5.535  18.999  0.00  0.00    +0.000 C 
ATOM      6  O   UNL     1       3.124   6.664  19.293  0.00  0.00    +0.000 OA
ATOM      7  C   UNL     1       5.099   4.084  17.623  0.00  0.00    +0.000 C 
ATOM      8  C   UNL     1       4.980   3.979  16.103  0.00  0.00    +0.000 C 
ENDROOT
BRANCH   5   9
ATOM      9  C   UNL     1       2.853   4.296  19.594  0.00  0.00    +0.000 C 
ATOM     10  C   UNL     1       2.223   4.501  20.971  0.00  0.00    +0.000 C 
ATOM     11  C   UNL     1       1.266   3.323  21.113  0.00  0.00    +0.000 C 
ATOM     12  C   UNL     1       0.779   3.011  19.703  0.00  0.00    +0.000 C 
ATOM     13  C   UNL     1       1.636   3.855  18.766  0.00  0.00    +0.000 C 
ENDBRANCH   5   9
BRANCH   1  14
ATOM     14  C   UNL     1       7.159   5.067  15.505  0.00  0.00    +0.000 C 
ATOM     15  O   UNL     1       7.744   4.541  16.439  0.00  0.00    +0.000 OA
BRANCH  14  17
ATOM     16  C   UNL     1       7.425   4.938  13.183  0.00  0.00    +0.000 C 
ATOM     17  O   UNL     1       7.777   5.584  14.407  0.00  0.00    +0.000 OA
ENDBRANCH  14  17
ENDBRANCH   1  14
TORSDOF 3
ENDMDL
MODEL 2
REMARK VINA RESULT:      -7.2      1.934      2.394
REMARK  Name = 
REMARK  4 active torsions:
REMARK  status: ('A' for Active; 'I' for Inactive)
REMARK    1  A    between atoms: C_1  and  O_2
REMARK    2  A    between atoms: O_2  and  C_3
REMARK    3  A    between atoms: C_3  and  C_5
REMARK    4  A    between atoms: C_9  and  C_11
REMARK                            x       y       z     vdW  Elec       q    Type
REMARK                         _______ _______ _______ _____ _____    ______ ____
ROOT
ATOM      1  C   UNL     1       6.745   5.945  17.034  0.00  0.00    +0.000 C 
ATOM      2  C   UNL     1       5.496   6.567  16.391  0.00  0.00    +0.000 C 
ATOM      3  C   UNL     1       4.457   6.970  17.438  0.00  0.00    +0.000 C 
ATOM      4  N   UNL     1       4.130   5.833  18.300  0.00  0.00    +0.000 N 
ATOM      5  C   UNL     1       2.811   5.400  18.371  0.00  0.00    +0.000 C 
ATOM      6  O   UNL     1       1.923   5.961  17.723  0.00  0.00    +0.000 OA
ATOM      7  C   UNL     1       5.276   5.221  18.970  0.00  0.00    +0.000 C 
ATOM      8  C   UNL     1       6.326   4.784  17.950  0.00  0.00    +0.000 C 
ENDROOT
BRANCH   5   9
ATOM      9  C   UNL     1       2.480   4.178  19.233  0.00  0.00    +0.000 C 
ATOM     10  C   UNL     1       1.815   4.492  20.573  0.00  0.00    +0.000 C 
ATOM     11  C   UNL     1       1.197   3.162  20.994  0.00  0.00    +0.000 C 
ATOM     12  C   UNL     1       0.812   2.457  19.700  0.00  0.00    +0.000 C 
ATOM     13  C   UNL     1       1.421   3.281  18.571  0.00  0.00    +0.000 C 
ENDBRANCH   5   9
BRANCH   1  14
ATOM     14  C   UNL     1       7.599   6.941  17.812  0.00  0.00    +0.000 C 
ATOM     15  O   UNL     1       8.194   6.671  18.844  0.00  0.00    +0.000 OA
BRANCH  14  17
ATOM     16  C   UNL     1       8.226   9.189  17.984  0.00  0.00    +0.000 C 
ATOM     17  O   UNL     1       7.655   8.150  17.188  0.00  0.00    +0.000 OA
ENDBRANCH  14  17
ENDBRANCH   1  14
TORSDOF 3
ENDMDL
MODEL 3
REMARK VINA RESULT:      -7.0      2.326      6.254
REMARK  Name = 
REMARK  4 active torsions:
REMARK  status: ('A' for Active; 'I' for Inactive)
REMARK    1  A    between atoms: C_1  and  O_2
REMARK    2  A    between atoms: O_2  and  C_3
REMARK    3  A    between atoms: C_3  and  C_5
REMARK    4  A    between atoms: C_9  and  C_11
REMARK                            x       y       z     vdW  Elec       q    Type
REMARK                         _______ _______ _______ _____ _____    ______ ____
ROOT
ATOM      1  C   UNL     1       1.400   4.169  18.761  0.00  0.00    +0.000 C 
ATOM      2  C   UNL     1       1.903   3.839  17.347  0.00  0.00    +0.000 C 
ATOM      3  C   UNL     1       3.365   3.391  17.354  0.00  0.00    +0.000 C 
ATOM      4  N   UNL     1       4.204   4.385  18.024  0.00  0.00    +0.000 N 
ATOM      5  C   UNL     1       5.254   4.964  17.319  0.00  0.00    +0.000 C 
ATOM      6  O   UNL     1       5.483   4.648  16.148  0.00  0.00    +0.000 OA
ATOM      7  C   UNL     1       3.796   4.714  19.388  0.00  0.00    +0.000 C 
ATOM      8  C   UNL     1       2.344   5.190  19.416  0.00  0.00    +0.000 C 
ENDROOT
BRANCH   5   9
ATOM      9  C   UNL     1       6.098   6.042  18.005  0.00  0.00    +0.000 C 
ATOM     10  C   UNL     1       7.455   5.569  18.524  0.00  0.00    +0.000 C 
ATOM     11  C   UNL     1       8.241   6.861  18.721  0.00  0.00    +0.000 C 
ATOM     12  C   UNL     1       7.733   7.821  17.654  0.00  0.00    +0.000 C 
ATOM     13  C   UNL     1       6.517   7.149  17.025  0.00  0.00    +0.000 C 
ENDBRANCH   5   9
BRANCH   1  14
ATOM     14  C   UNL     1       1.246   2.948  19.662  0.00  0.00    +0.000 C 
ATOM     15  O   UNL     1       1.378   1.795  19.280  0.00  0.00    +0.000 OA
BRANCH  14  17
ATOM     16  C   UNL     1       1.796   2.616  21.912  0.00  0.00    +0.000 C 
ATOM     17  O   UNL     1       0.993   3.304  20.951  0.00  0.00    +0.000 OA
ENDBRANCH  14  17
ENDBRANCH   1  14
TORSDOF 3
ENDMDL
MODEL 4
REMARK VINA RESULT:      -6.9      2.390      3.044
REMARK  Name = 
REMARK  4 active torsions:
REMARK  status: ('A' for Active; 'I' for Inactive)
REMARK    1  A    between atoms: C_1  and  O_2
REMARK    2  A    between atoms: O_2  and  C_3
REMARK    3  A    between atoms: C_3  and  C_5
REMARK    4  A    between atoms: C_9  and  C_11
REMARK                            x       y       z     vdW  Elec       q    Type
REMARK                         _______ _______ _______ _____ _____    ______ ____
ROOT
ATOM      1  C   UNL     1       7.578   5.680  17.962  0.00  0.00    +0.000 C 
ATOM      2  C   UNL     1       6.974   4.848  16.819  0.00  0.00    +0.000 C 
ATOM      3  C   UNL     1       5.477   5.111  16.655  0.00  0.00    +0.000 C 
ATOM      4  N   UNL     1       4.776   4.904  17.922  0.00  0.00    +0.000 N 
ATOM      5  C   UNL     1       3.756   3.961  17.981  0.00  0.00    +0.000 C 
ATOM      6  O   UNL     1       3.438   3.307  16.983  0.00  0.00    +0.000 OA
ATOM      7  C   UNL     1       5.283   5.697  19.040  0.00  0.00    +0.000 C 
ATOM      8  C   UNL     1       6.774   5.441  19.250  0.00  0.00    +0.000 C 
ENDROOT
BRANCH   5   9
ATOM      9  C   UNL     1       3.059   3.708  19.321  0.00  0.00    +0.000 C 
ATOM     10  C   UNL     1       1.898   4.652  19.635  0.00  0.00    +0.000 C 
ATOM     11  C   UNL     1       1.126   3.927  20.733  0.00  0.00    +0.000 C 
ATOM     12  C   UNL     1       1.306   2.440  20.453  0.00  0.00    +0.000 C 
ATOM     13  C   UNL     1       2.357   2.342  19.352  0.00  0.00    +0.000 C 
ENDBRANCH   5   9
BRANCH   1  14
ATOM     14  C   UNL     1       7.653   7.174  17.664  0.00  0.00    +0.000 C 
ATOM     15  O   UNL     1       7.061   7.719  16.745  0.00  0.00    +0.000 OA
BRANCH  14  17
ATOM     16  C   UNL     1       8.498   9.240  18.366  0.00  0.00    +0.000 C 
ATOM     17  O   UNL     1       8.420   7.829  18.578  0.00  0.00    +0.000 OA
ENDBRANCH  14  17
ENDBRANCH   1  14
TORSDOF 3
ENDMDL
MODEL 5
REMARK VINA RESULT:      -6.8      1.076      1.470
REMARK  Name = 
REMARK  4 active torsions:
REMARK  status: ('A' for Active; 'I' for Inactive)
REMARK    1  A    between atoms: C_1  and  O_2
REMARK    2  A    between atoms: O_2  and  C_3
REMARK    3  A    between atoms: C_3  and  C_5
REMARK    4  A    between atoms: C_9  and  C_11
REMARK                            x       y       z     vdW  Elec       q    Type
REMARK                         _______ _______ _______ _____ _____    ______ ____
ROOT
ATOM      1  C   UNL     1       5.622   5.348  15.961  0.00  0.00    +0.000 C 
ATOM      2  C   UNL     1       4.762   6.540  16.408  0.00  0.00    +0.000 C 
ATOM      3  C   UNL     1       4.672   6.636  17.931  0.00  0.00    +0.000 C 
ATOM      4  N   UNL     1       4.206   5.371  18.500  0.00  0.00    +0.000 N 
ATOM      5  C   UNL     1       3.046   5.364  19.266  0.00  0.00    +0.000 C 
ATOM      6  O   UNL     1       2.414   6.405  19.470  0.00  0.00    +0.000 OA
ATOM      7  C   UNL     1       5.008   4.204  18.139  0.00  0.00    +0.000 C 
ATOM      8  C   UNL     1       5.099   4.061  16.620  0.00  0.00    +0.000 C 
ENDROOT
BRANCH   5   9
ATOM      9  C   UNL     1       2.531   4.031  19.816  0.00  0.00    +0.000 C 
ATOM     10  C   UNL     1       2.050   4.071  21.267  0.00  0.00    +0.000 C 
ATOM     11  C   UNL     1       1.201   2.813  21.405  0.00  0.00    +0.000 C 
ATOM     12  C   UNL     1       0.579   2.580  20.033  0.00  0.00    +0.000 C 
ATOM     13  C   UNL     1       1.260   3.564  19.088  0.00  0.00    +0.000 C 
ENDBRANCH   5   9
BRANCH   1  14
ATOM     14  C   UNL     1       7.109   5.516  16.253  0.00  0.00    +0.000 C 
ATOM     15  O   UNL     1       7.907   4.592  16.294  0.00  0.00    +0.000 OA
BRANCH  14  17
ATOM     16  C   UNL     1       7.892   7.155  17.729  0.00  0.00    +0.000 C 
ATOM     17  O   UNL     1       7.444   6.826  16.413  0.00  0.00    +0.000 OA
ENDBRANCH  14  17
ENDBRANCH   1  14
TORSDOF 3
ENDMDL
MODEL 6
REMARK VINA RESULT:      -6.8      1.896      2.717
REMARK  Name = 
REMARK  4 active torsions:
REMARK  status: ('A' for Active; 'I' for Inactive)
REMARK    1  A    between atoms: C_1  and  O_2
REMARK    2  A    between atoms: O_2  and  C_3
REMARK    3  A    between atoms: C_3  and  C_5
REMARK    4  A    between atoms: C_9  and  C_11
REMARK                            x       y       z     vdW  Elec       q    Type
REMARK                         _______ _______ _______ _____ _____    ______ ____
ROOT
ATOM      1  C   UNL     1       7.090   4.655  17.411  0.00  0.00    +0.000 C 
ATOM      2  C   UNL     1       6.180   3.932  16.406  0.00  0.00    +0.000 C 
ATOM      3  C   UNL     1       4.774   4.532  16.378  0.00  0.00    +0.000 C 
ATOM      4  N   UNL     1       4.201   4.562  17.724  0.00  0.00    +0.000 N 
ATOM      5  C   UNL     1       3.007   3.892  17.962  0.00  0.00    +0.000 C 
ATOM      6  O   UNL     1       2.431   3.280  17.057  0.00  0.00    +0.000 OA
ATOM      7  C   UNL     1       5.006   5.270  18.717  0.00  0.00    +0.000 C 
ATOM      8  C   UNL     1       6.413   4.680  18.791  0.00  0.00    +0.000 C 
ENDROOT
BRANCH   5   9
ATOM      9  C   UNL     1       2.436   3.881  19.383  0.00  0.00    +0.000 C 
ATOM     10  C   UNL     1       1.023   3.310  19.509  0.00  0.00    +0.000 C 
ATOM     11  C   UNL     1       0.889   2.993  20.994  0.00  0.00    +0.000 C 
ATOM     12  C   UNL     1       2.287   2.614  21.465  0.00  0.00    +0.000 C 
ATOM     13  C   UNL     1       3.226   2.943  20.309  0.00  0.00    +0.000 C 
ENDBRANCH   5   9
BRANCH   1  14
ATOM     14  C   UNL     1       7.470   6.071  16.991  0.00  0.00    +0.000 C 
ATOM     15  O   UNL     1       7.525   6.449  15.830  0.00  0.00    +0.000 OA
BRANCH  14  17
ATOM     16  C   UNL     1       7.823   8.258  17.746  0.00  0.00    +0.000 C 
ATOM     17  O   UNL     1       7.689   6.873  18.069  0.00  0.00    +0.000 OA
ENDBRANCH  14  17
ENDBRANCH   1  14
TORSDOF 3
ENDMDL
MODEL 7
REMARK VINA RESULT:      -6.7      1.743      2.449
REMARK  Name = 
REMARK  4 active torsions:
REMARK  status: ('A' for Active; 'I' for Inactive)
REMARK    1  A    between atoms: C_1  and  O_2
REMARK    2  A    between atoms: O_2  and  C_3
REMARK    3  A    between atoms: C_3  and  C_5
REMARK    4  A    between atoms: C_9  and  C_11
REMARK                            x       y       z     vdW  Elec       q    Type
REMARK                         _______ _______ _______ _____ _____    ______ ____
ROOT
ATOM      1  C   UNL     1       6.179   6.515  17.351  0.00  0.00    +0.000 C 
ATOM      2  C   UNL     1       6.923   5.370  18.054  0.00  0.00    +0.000 C 
ATOM      3  C   UNL     1       6.154   4.051  17.961  0.00  0.00    +0.000 C 
ATOM      4  N   UNL     1       4.789   4.216  18.462  0.00  0.00    +0.000 N 
ATOM      5  C   UNL     1       4.362   3.427  19.524  0.00  0.00    +0.000 C 
ATOM      6  O   UNL     1       5.115   2.596  20.041  0.00  0.00    +0.000 OA
ATOM      7  C   UNL     1       4.018   5.269  17.805  0.00  0.00    +0.000 C 
ATOM      8  C   UNL     1       4.746   6.609  17.899  0.00  0.00    +0.000 C 
ENDROOT
BRANCH   5   9
ATOM      9  C   UNL     1       2.951   3.638  20.081  0.00  0.00    +0.000 C 
ATOM     10  C   UNL     1       1.822   3.093  19.206  0.00  0.00    +0.000 C 
ATOM     11  C   UNL     1       0.631   3.013  20.156  0.00  0.00    +0.000 C 
ATOM     12  C   UNL     1       1.217   2.713  21.530  0.00  0.00    +0.000 C 
ATOM     13  C   UNL     1       2.728   2.857  21.386  0.00  0.00    +0.000 C 
ENDBRANCH   5   9
BRANCH   1  14
ATOM     14  C   UNL     1       6.149   6.391  15.831  0.00  0.00    +0.000 C 
ATOM     15  O   UNL     1       5.260   6.842  15.126  0.00  0.00    +0.000 OA
BRANCH  14  17
ATOM     16  C   UNL     1       6.989   4.804  14.330  0.00  0.00    +0.000 C 
ATOM     17  O   UNL     1       7.258   5.760  15.357  0.00  0.00    +0.000 OA
ENDBRANCH  14  17
ENDBRANCH   1  14
TORSDOF 3
ENDMDL
MODEL 8
REMARK VINA RESULT:      -6.7      1.329      1.971
REMARK  Name = 
REMARK  4 active torsions:
REMARK  status: ('A' for Active; 'I' for Inactive)
REMARK    1  A    between atoms: C_1  and  O_2
REMARK    2  A    between atoms: O_2  and  C_3
REMARK    3  A    between atoms: C_3  and  C_5
REMARK    4  A    between atoms: C_9  and  C_11
REMARK                            x       y       z     vdW  Elec       q    Type
REMARK                         _______ _______ _______ _____ _____    ______ ____
ROOT
ATOM      1  C   UNL     1       5.876   5.216  15.903  0.00  0.00    +0.000 C 
ATOM      2  C   UNL     1       5.048   6.510  15.908  0.00  0.00    +0.000 C 
ATOM      3  C   UNL     1       4.541   6.856  17.309  0.00  0.00    +0.000 C 
ATOM      4  N   UNL     1       3.809   5.726  17.883  0.00  0.00    +0.000 N 
ATOM      5  C   UNL     1       2.485   5.907  18.266  0.00  0.00    +0.000 C 
ATOM      6  O   UNL     1       1.929   7.001  18.130  0.00  0.00    +0.000 OA
ATOM      7  C   UNL     1       4.560   4.473  17.939  0.00  0.00    +0.000 C 
ATOM      8  C   UNL     1       5.062   4.084  16.550  0.00  0.00    +0.000 C 
ENDROOT
BRANCH   5   9
ATOM      9  C   UNL     1       1.705   4.711  18.818  0.00  0.00    +0.000 C 
ATOM     10  C   UNL     1       1.690   3.476  17.917  0.00  0.00    +0.000 C 
ATOM     11  C   UNL     1       1.278   2.346  18.853  0.00  0.00    +0.000 C 
ATOM     12  C   UNL     1       1.836   2.716  20.221  0.00  0.00    +0.000 C 
ATOM     13  C   UNL     1       2.350   4.147  20.094  0.00  0.00    +0.000 C 
ENDBRANCH   5   9
BRANCH   1  14
ATOM     14  C   UNL     1       7.229   5.347  16.596  0.00  0.00    +0.000 C 
ATOM     15  O   UNL     1       7.902   4.397  16.966  0.00  0.00    +0.000 OA
BRANCH  14  17
ATOM     16  C   UNL     1       7.898   7.062  18.040  0.00  0.00    +0.000 C 
ATOM     17  O   UNL     1       7.615   6.648  16.703  0.00  0.00    +0.000 OA
ENDBRANCH  14  17
ENDBRANCH   1  14
TORSDOF 3
ENDMDL
MODEL 9
REMARK VINA RESULT:      -6.6      2.301      3.383
REMARK  Name = 
REMARK  4 active torsions:
REMARK  status: ('A' for Active; 'I' for Inactive)
REMARK    1  A    between atoms: C_1  and  O_2
REMARK    2  A    between atoms: O_2  and  C_3
REMARK    3  A    between atoms: C_3  and  C_5
REMARK    4  A    between atoms: C_9  and  C_11
REMARK                            x       y       z     vdW  Elec       q    Type
REMARK                         _______ _______ _______ _____ _____    ______ ____
ROOT
ATOM      1  C   UNL     1       6.629   4.873  17.187  0.00  0.00    +0.000 C 
ATOM      2  C   UNL     1       5.461   3.965  17.603  0.00  0.00    +0.000 C 
ATOM      3  C   UNL     1       4.124   4.480  17.069  0.00  0.00    +0.000 C 
ATOM      4  N   UNL     1       3.914   5.873  17.467  0.00  0.00    +0.000 N 
ATOM      5  C   UNL     1       2.789   6.196  18.217  0.00  0.00    +0.000 C 
ATOM      6  O   UNL     1       1.974   5.328  18.545  0.00  0.00    +0.000 OA
ATOM      7  C   UNL     1       4.976   6.792  17.066  0.00  0.00    +0.000 C 
ATOM      8  C   UNL     1       6.327   6.322  17.603  0.00  0.00    +0.000 C 
ENDROOT
BRANCH   5   9
ATOM      9  C   UNL     1       2.598   7.644  18.676  0.00  0.00    +0.000 C 
ATOM     10  C   UNL     1       1.740   8.509  17.751  0.00  0.00    +0.000 C 
ATOM     11  C   UNL     1       1.339   9.692  18.626  0.00  0.00    +0.000 C 
ATOM     12  C   UNL     1       1.240   9.143  20.044  0.00  0.00    +0.000 C 
ATOM     13  C   UNL     1       1.806   7.728  19.990  0.00  0.00    +0.000 C 
ENDBRANCH   5   9
BRANCH   1  14
ATOM     14  C   UNL     1       6.956   4.815  15.698  0.00  0.00    +0.000 C 
ATOM     15  O   UNL     1       7.641   5.642  15.116  0.00  0.00    +0.000 OA
BRANCH  14  17
ATOM     16  C   UNL     1       6.148   3.860  13.721  0.00  0.00    +0.000 C 
ATOM     17  O   UNL     1       6.431   3.704  15.112  0.00  0.00    +0.000 OA
ENDBRANCH  14  17
ENDBRANCH   1  14
TORSDOF 3
ENDMDL
