MODEL 1
REMARK VINA RESULT:      -8.4      0.000      0.000
REMARK  Name = 
REMARK  5 active torsions:
REMARK  status: ('A' for Active; 'I' for Inactive)
REMARK    1  A    between atoms: C_1  and  C_2
REMARK    2  A    between atoms: C_4  and  C_5
REMARK    3  A    between atoms: C_11  and  C_12
REMARK    4  A    between atoms: C_17  and  C_18
REMARK    5  A    between atoms: C_22  and  C_24
REMARK                            x       y       z     vdW  Elec       q    Type
REMARK                         _______ _______ _______ _____ _____    ______ ____
ROOT
ATOM      1  C   UNL     1       0.188  15.144  18.764  0.00  0.00    +0.000 C 
ATOM      2  C   UNL     1      -0.146  13.695  18.950  0.00  0.00    +0.000 A 
ATOM      3  N   UNL     1      -1.448  13.357  18.884  0.00  0.00    +0.000 NA
ATOM      4  C   UNL     1      -1.746  12.055  18.814  0.00  0.00    +0.000 A 
ATOM      5  C   UNL     1      -0.764  11.089  18.927  0.00  0.00    +0.000 A 
ATOM      6  C   UNL     1       0.544  11.511  19.100  0.00  0.00    +0.000 A 
ATOM      7  N   UNL     1       0.867  12.816  19.087  0.00  0.00    +0.000 NA
ENDROOT
BRANCH   4   8
ATOM      8  C   UNL     1      -3.159  11.717  18.620  0.00  0.00    +0.000 A 
ATOM      9  C   UNL     1      -4.096  12.082  19.583  0.00  0.00    +0.000 A 
ATOM     10  N   UNL     1      -5.416  11.811  19.542  0.00  0.00    +0.000 NA
ATOM     11  C   UNL     1      -5.846  11.177  18.465  0.00  0.00    +0.000 A 
ATOM     12  N   UNL     1      -7.189  10.876  18.388  0.00  0.00    +0.000 N 
ATOM     13  N   UNL     1      -5.058  10.763  17.479  0.00  0.00    +0.000 NA
ATOM     14  C   UNL     1      -3.709  11.025  17.543  0.00  0.00    +0.000 A 
ATOM     15  H   UNL     1      -7.591  10.842  19.312  0.00  0.00    +0.000 HD
ATOM     16  H   UNL     1      -7.337  10.082  17.784  0.00  0.00    +0.000 HD
BRANCH  14  17
ATOM     17  C   UNL     1      -2.920  10.452  16.370  0.00  0.00    +0.000 C 
ATOM     18  F   UNL     1      -1.969   9.513  16.624  0.00  0.00    +0.000 F 
ATOM     19  F   UNL     1      -3.752   9.823  15.479  0.00  0.00    +0.000 F 
ATOM     20  F   UNL     1      -2.293  11.425  15.642  0.00  0.00    +0.000 F 
ENDBRANCH  14  17
ENDBRANCH   4   8
BRANCH   6  21
ATOM     21  C   UNL     1       1.607  10.454  19.304  0.00  0.00    +0.000 C 
ATOM     22  C   UNL     1       2.302  10.083  17.977  0.00  0.00    +0.000 C 
ATOM     23  C   UNL     1       2.083   8.597  17.800  0.00  0.00    +0.000 C 
ATOM     24  N   UNL     1       1.838   8.092  19.131  0.00  0.00    +0.000 N 
ATOM     25  C   UNL     1       2.043   6.819  19.637  0.00  0.00    +0.000 C 
ATOM     26  O   UNL     1       1.834   6.557  20.824  0.00  0.00    +0.000 OA
ATOM     27  C   UNL     1       1.176   9.118  19.926  0.00  0.00    +0.000 C 
BRANCH  25  28
ATOM     28  C   UNL     1       2.580   5.727  18.762  0.00  0.00    +0.000 A 
ATOM     29  C   UNL     1       1.689   4.765  18.265  0.00  0.00    +0.000 A 
ATOM     30  C   UNL     1       2.148   3.726  17.448  0.00  0.00    +0.000 A 
ATOM     31  C   UNL     1       3.503   3.630  17.134  0.00  0.00    +0.000 A 
ATOM     32  C   UNL     1       4.391   4.592  17.601  0.00  0.00    +0.000 A 
ATOM     33  C   UNL     1       3.924   5.655  18.375  0.00  0.00    +0.000 A 
ENDBRANCH  25  28
ENDBRANCH   6  21
TORSDOF 4
ENDMDL
MODEL 2
REMARK VINA RESULT:      -8.3      0.203      1.089
REMARK  Name = 
REMARK  5 active torsions:
REMARK  status: ('A' for Active; 'I' for Inactive)
REMARK    1  A    between atoms: C_1  and  C_2
REMARK    2  A    between atoms: C_4  and  C_5
REMARK    3  A    between atoms: C_11  and  C_12
REMARK    4  A    between atoms: C_17  and  C_18
REMARK    5  A    between atoms: C_22  and  C_24
REMARK                            x       y       z     vdW  Elec       q    Type
REMARK                         _______ _______ _______ _____ _____    ______ ____
ROOT
ATOM      1  C   UNL     1       0.160  15.240  18.722  0.00  0.00    +0.000 C 
ATOM      2  C   UNL     1      -0.178  13.798  18.948  0.00  0.00    +0.000 A 
ATOM      3  N   UNL     1      -1.484  13.468  18.925  0.00  0.00    +0.000 NA
ATOM      4  C   UNL     1      -1.792  12.166  18.892  0.00  0.00    +0.000 A 
ATOM      5  C   UNL     1      -0.813  11.196  18.998  0.00  0.00    +0.000 A 
ATOM      6  C   UNL     1       0.502  11.612  19.125  0.00  0.00    +0.000 A 
ATOM      7  N   UNL     1       0.833  12.914  19.075  0.00  0.00    +0.000 NA
ENDROOT
BRANCH   4   8
ATOM      8  C   UNL     1      -3.212  11.834  18.745  0.00  0.00    +0.000 A 
ATOM      9  C   UNL     1      -4.112  12.187  19.746  0.00  0.00    +0.000 A 
ATOM     10  N   UNL     1      -5.434  11.920  19.750  0.00  0.00    +0.000 NA
ATOM     11  C   UNL     1      -5.904  11.301  18.680  0.00  0.00    +0.000 A 
ATOM     12  N   UNL     1      -7.250  11.004  18.648  0.00  0.00    +0.000 N 
ATOM     13  N   UNL     1      -5.153  10.900  17.661  0.00  0.00    +0.000 NA
ATOM     14  C   UNL     1      -3.802  11.158  17.679  0.00  0.00    +0.000 A 
ATOM     15  H   UNL     1      -7.618  10.959  19.586  0.00  0.00    +0.000 HD
ATOM     16  H   UNL     1      -7.422  10.219  18.039  0.00  0.00    +0.000 HD
BRANCH  14  17
ATOM     17  C   UNL     1      -3.058  10.600  16.470  0.00  0.00    +0.000 C 
ATOM     18  F   UNL     1      -2.191  11.413  15.810  0.00  0.00    +0.000 F 
ATOM     19  F   UNL     1      -2.276   9.530  16.825  0.00  0.00    +0.000 F 
ATOM     20  F   UNL     1      -3.908  10.115  15.515  0.00  0.00    +0.000 F 
ENDBRANCH  14  17
ENDBRANCH   4   8
BRANCH   6  21
ATOM     21  C   UNL     1       1.564  10.553  19.322  0.00  0.00    +0.000 C 
ATOM     22  C   UNL     1       2.276  10.209  17.997  0.00  0.00    +0.000 C 
ATOM     23  C   UNL     1       2.061   8.726  17.788  0.00  0.00    +0.000 C 
ATOM     24  N   UNL     1       1.800   8.195  19.106  0.00  0.00    +0.000 N 
ATOM     25  C   UNL     1       2.000   6.912  19.590  0.00  0.00    +0.000 C 
ATOM     26  O   UNL     1       1.776   6.627  20.768  0.00  0.00    +0.000 OA
ATOM     27  C   UNL     1       1.126   9.204  19.912  0.00  0.00    +0.000 C 
BRANCH  25  28
ATOM     28  C   UNL     1       2.549   5.838  18.700  0.00  0.00    +0.000 A 
ATOM     29  C   UNL     1       3.895   5.907  18.316  0.00  0.00    +0.000 A 
ATOM     30  C   UNL     1       4.448   4.928  17.483  0.00  0.00    +0.000 A 
ATOM     31  C   UNL     1       3.655   3.881  17.013  0.00  0.00    +0.000 A 
ATOM     32  C   UNL     1       2.326   3.790  17.407  0.00  0.00    +0.000 A 
ATOM     33  C   UNL     1       1.789   4.740  18.278  0.00  0.00    +0.000 A 
ENDBRANCH  25  28
ENDBRANCH   6  21
TORSDOF 4
ENDMDL
MODEL 3
REMARK VINA RESULT:      -8.2      4.527      9.941
REMARK  Name = 
REMARK  5 active torsions:
REMARK  status: ('A' for Active; 'I' for Inactive)
REMARK    1  A    between atoms: C_1  and  C_2
REMARK    2  A    between atoms: C_4  and  C_5
REMARK    3  A    between atoms: C_11  and  C_12
REMARK    4  A    between atoms: C_17  and  C_18
REMARK    5  A    between atoms: C_22  and  C_24
REMARK                            x       y       z     vdW  Elec       q    Type
REMARK                         _______ _______ _______ _____ _____    ______ ____
ROOT
ATOM      1  C   UNL     1       4.555   2.366  20.274  0.00  0.00    +0.000 C 
ATOM      2  C   UNL     1       4.339   3.618  19.480  0.00  0.00    +0.000 A 
ATOM      3  N   UNL     1       5.216   3.871  18.491  0.00  0.00    +0.000 NA
ATOM      4  C   UNL     1       4.912   4.848  17.629  0.00  0.00    +0.000 A 
ATOM      5  C   UNL     1       3.800   5.647  17.817  0.00  0.00    +0.000 A 
ATOM      6  C   UNL     1       3.000   5.396  18.919  0.00  0.00    +0.000 A 
ATOM      7  N   UNL     1       3.247   4.365  19.745  0.00  0.00    +0.000 NA
ENDROOT
BRANCH   4   8
ATOM      8  C   UNL     1       5.820   5.023  16.492  0.00  0.00    +0.000 A 
ATOM      9  C   UNL     1       5.704   4.194  15.380  0.00  0.00    +0.000 A 
ATOM     10  N   UNL     1       6.488   4.229  14.283  0.00  0.00    +0.000 NA
ATOM     11  C   UNL     1       7.419   5.167  14.265  0.00  0.00    +0.000 A 
ATOM     12  N   UNL     1       8.246   5.233  13.163  0.00  0.00    +0.000 N 
ATOM     13  N   UNL     1       7.644   6.014  15.263  0.00  0.00    +0.000 NA
ATOM     14  C   UNL     1       6.853   5.954  16.386  0.00  0.00    +0.000 A 
ATOM     15  H   UNL     1       8.277   4.338  12.699  0.00  0.00    +0.000 HD
ATOM     16  H   UNL     1       9.124   5.664  13.408  0.00  0.00    +0.000 HD
BRANCH  14  17
ATOM     17  C   UNL     1       7.253   6.951  17.469  0.00  0.00    +0.000 C 
ATOM     18  F   UNL     1       7.791   6.474  18.624  0.00  0.00    +0.000 F 
ATOM     19  F   UNL     1       8.213   7.816  17.009  0.00  0.00    +0.000 F 
ATOM     20  F   UNL     1       6.210   7.749  17.850  0.00  0.00    +0.000 F 
ENDBRANCH  14  17
ENDBRANCH   4   8
BRANCH   6  21
ATOM     21  C   UNL     1       1.829   6.322  19.168  0.00  0.00    +0.000 C 
ATOM     22  C   UNL     1       1.614   7.296  17.991  0.00  0.00    +0.000 C 
ATOM     23  C   UNL     1       1.724   8.684  18.583  0.00  0.00    +0.000 C 
ATOM     24  N   UNL     1       1.427   8.519  19.986  0.00  0.00    +0.000 N 
ATOM     25  C   UNL     1       0.925   9.440  20.891  0.00  0.00    +0.000 C 
ATOM     26  O   UNL     1       0.670   9.126  22.056  0.00  0.00    +0.000 OA
ATOM     27  C   UNL     1       1.869   7.202  20.425  0.00  0.00    +0.000 C 
BRANCH  25  28
ATOM     28  C   UNL     1       0.622  10.844  20.461  0.00  0.00    +0.000 A 
ATOM     29  C   UNL     1       1.622  11.817  20.592  0.00  0.00    +0.000 A 
ATOM     30  C   UNL     1       1.380  13.141  20.208  0.00  0.00    +0.000 A 
ATOM     31  C   UNL     1       0.132  13.506  19.704  0.00  0.00    +0.000 A 
ATOM     32  C   UNL     1      -0.858  12.544  19.547  0.00  0.00    +0.000 A 
ATOM     33  C   UNL     1      -0.600  11.215  19.885  0.00  0.00    +0.000 A 
ENDBRANCH  25  28
ENDBRANCH   6  21
TORSDOF 4
ENDMDL
MODEL 4
REMARK VINA RESULT:      -8.2      4.525      9.728
REMARK  Name = 
REMARK  5 active torsions:
REMARK  status: ('A' for Active; 'I' for Inactive)
REMARK    1  A    between atoms: C_1  and  C_2
REMARK    2  A    between atoms: C_4  and  C_5
REMARK    3  A    between atoms: C_11  and  C_12
REMARK    4  A    between atoms: C_17  and  C_18
REMARK    5  A    between atoms: C_22  and  C_24
REMARK                            x       y       z     vdW  Elec       q    Type
REMARK                         _______ _______ _______ _____ _____    ______ ____
ROOT
ATOM      1  C   UNL     1       3.392   3.270  20.464  0.00  0.00    +0.000 C 
ATOM      2  C   UNL     1       3.461   4.470  19.570  0.00  0.00    +0.000 A 
ATOM      3  N   UNL     1       4.424   4.473  18.629  0.00  0.00    +0.000 NA
ATOM      4  C   UNL     1       4.359   5.415  17.681  0.00  0.00    +0.000 A 
ATOM      5  C   UNL     1       3.410   6.418  17.732  0.00  0.00    +0.000 A 
ATOM      6  C   UNL     1       2.516   6.411  18.790  0.00  0.00    +0.000 A 
ATOM      7  N   UNL     1       2.517   5.424  19.703  0.00  0.00    +0.000 NA
ENDROOT
BRANCH   4   8
ATOM      8  C   UNL     1       5.346   5.324  16.601  0.00  0.00    +0.000 A 
ATOM      9  C   UNL     1       5.129   4.454  15.536  0.00  0.00    +0.000 A 
ATOM     10  N   UNL     1       5.963   4.254  14.497  0.00  0.00    +0.000 NA
ATOM     11  C   UNL     1       7.062   4.988  14.485  0.00  0.00    +0.000 A 
ATOM     12  N   UNL     1       7.946   4.809  13.441  0.00  0.00    +0.000 N 
ATOM     13  N   UNL     1       7.396   5.846  15.442  0.00  0.00    +0.000 NA
ATOM     14  C   UNL     1       6.547   6.025  16.509  0.00  0.00    +0.000 A 
ATOM     15  H   UNL     1       7.823   3.893  13.036  0.00  0.00    +0.000 HD
ATOM     16  H   UNL     1       8.877   5.077  13.719  0.00  0.00    +0.000 HD
BRANCH  14  17
ATOM     17  C   UNL     1       7.077   7.002  17.554  0.00  0.00    +0.000 C 
ATOM     18  F   UNL     1       7.443   6.517  18.770  0.00  0.00    +0.000 F 
ATOM     19  F   UNL     1       8.215   7.626  17.110  0.00  0.00    +0.000 F 
ATOM     20  F   UNL     1       6.196   8.016  17.811  0.00  0.00    +0.000 F 
ENDBRANCH  14  17
ENDBRANCH   4   8
BRANCH   6  21
ATOM     21  C   UNL     1       1.529   7.554  18.890  0.00  0.00    +0.000 C 
ATOM     22  C   UNL     1       1.617   8.489  17.666  0.00  0.00    +0.000 C 
ATOM     23  C   UNL     1       1.940   9.859  18.218  0.00  0.00    +0.000 C 
ATOM     24  N   UNL     1       1.490   9.827  19.590  0.00  0.00    +0.000 N 
ATOM     25  C   UNL     1       1.095  10.873  20.408  0.00  0.00    +0.000 C 
ATOM     26  O   UNL     1       0.679  10.675  21.552  0.00  0.00    +0.000 OA
ATOM     27  C   UNL     1       1.624   8.475  20.115  0.00  0.00    +0.000 C 
BRANCH  25  28
ATOM     28  C   UNL     1       1.111  12.285  19.903  0.00  0.00    +0.000 A 
ATOM     29  C   UNL     1      -0.030  12.780  19.257  0.00  0.00    +0.000 A 
ATOM     30  C   UNL     1      -0.057  14.090  18.766  0.00  0.00    +0.000 A 
ATOM     31  C   UNL     1       1.063  14.910  18.903  0.00  0.00    +0.000 A 
ATOM     32  C   UNL     1       2.190  14.438  19.563  0.00  0.00    +0.000 A 
ATOM     33  C   UNL     1       2.197  13.148  20.095  0.00  0.00    +0.000 A 
ENDBRANCH  25  28
ENDBRANCH   6  21
TORSDOF 4
ENDMDL
MODEL 5
REMARK VINA RESULT:      -8.1      4.881      9.835
REMARK  Name = 
REMARK  5 active torsions:
REMARK  status: ('A' for Active; 'I' for Inactive)
REMARK    1  A    between atoms: C_1  and  C_2
REMARK    2  A    between atoms: C_4  and  C_5
REMARK    3  A    between atoms: C_11  and  C_12
REMARK    4  A    between atoms: C_17  and  C_18
REMARK    5  A    between atoms: C_22  and  C_24
REMARK                            x       y       z     vdW  Elec       q    Type
REMARK                         _______ _______ _______ _____ _____    ______ ____
ROOT
ATOM      1  C   UNL     1       3.030   3.456  20.586  0.00  0.00    +0.000 C 
ATOM      2  C   UNL     1       3.192   4.680  19.738  0.00  0.00    +0.000 A 
ATOM      3  N   UNL     1       4.216   4.682  18.862  0.00  0.00    +0.000 NA
ATOM      4  C   UNL     1       4.240   5.653  17.943  0.00  0.00    +0.000 A 
ATOM      5  C   UNL     1       3.319   6.683  17.965  0.00  0.00    +0.000 A 
ATOM      6  C   UNL     1       2.357   6.672  18.961  0.00  0.00    +0.000 A 
ATOM      7  N   UNL     1       2.270   5.658  19.840  0.00  0.00    +0.000 NA
ENDROOT
BRANCH   4   8
ATOM      8  C   UNL     1       5.293   5.565  16.927  0.00  0.00    +0.000 A 
ATOM      9  C   UNL     1       4.958   5.287  15.605  0.00  0.00    +0.000 A 
ATOM     10  N   UNL     1       5.825   5.152  14.581  0.00  0.00    +0.000 NA
ATOM     11  C   UNL     1       7.100   5.343  14.872  0.00  0.00    +0.000 A 
ATOM     12  N   UNL     1       8.020   5.208  13.854  0.00  0.00    +0.000 N 
ATOM     13  N   UNL     1       7.556   5.602  16.092  0.00  0.00    +0.000 NA
ATOM     14  C   UNL     1       6.664   5.715  17.133  0.00  0.00    +0.000 A 
ATOM     15  H   UNL     1       7.645   4.623  13.123  0.00  0.00    +0.000 HD
ATOM     16  H   UNL     1       8.925   4.968  14.228  0.00  0.00    +0.000 HD
BRANCH  14  17
ATOM     17  C   UNL     1       7.328   5.966  18.483  0.00  0.00    +0.000 C 
ATOM     18  F   UNL     1       6.572   5.861  19.608  0.00  0.00    +0.000 F 
ATOM     19  F   UNL     1       8.345   5.072  18.703  0.00  0.00    +0.000 F 
ATOM     20  F   UNL     1       7.919   7.197  18.549  0.00  0.00    +0.000 F 
ENDBRANCH  14  17
ENDBRANCH   4   8
BRANCH   6  21
ATOM     21  C   UNL     1       1.400   7.841  19.034  0.00  0.00    +0.000 C 
ATOM     22  C   UNL     1       1.530   8.759  17.801  0.00  0.00    +0.000 C 
ATOM     23  C   UNL     1       1.881  10.127  18.343  0.00  0.00    +0.000 C 
ATOM     24  N   UNL     1       1.409  10.122  19.708  0.00  0.00    +0.000 N 
ATOM     25  C   UNL     1       1.029  11.188  20.509  0.00  0.00    +0.000 C 
ATOM     26  O   UNL     1       0.591  11.013  21.648  0.00  0.00    +0.000 OA
ATOM     27  C   UNL     1       1.500   8.773  20.250  0.00  0.00    +0.000 C 
BRANCH  25  28
ATOM     28  C   UNL     1       1.090  12.593  19.989  0.00  0.00    +0.000 A 
ATOM     29  C   UNL     1       2.257  13.339  20.205  0.00  0.00    +0.000 A 
ATOM     30  C   UNL     1       2.354  14.655  19.741  0.00  0.00    +0.000 A 
ATOM     31  C   UNL     1       1.281  15.242  19.071  0.00  0.00    +0.000 A 
ATOM     32  C   UNL     1       0.129  14.503  18.829  0.00  0.00    +0.000 A 
ATOM     33  C   UNL     1       0.052  13.174  19.250  0.00  0.00    +0.000 A 
ENDBRANCH  25  28
ENDBRANCH   6  21
TORSDOF 4
ENDMDL
MODEL 6
REMARK VINA RESULT:      -8.1      4.470      9.845
REMARK  Name = 
REMARK  5 active torsions:
REMARK  status: ('A' for Active; 'I' for Inactive)
REMARK    1  A    between atoms: C_1  and  C_2
REMARK    2  A    between atoms: C_4  and  C_5
REMARK    3  A    between atoms: C_11  and  C_12
REMARK    4  A    between atoms: C_17  and  C_18
REMARK    5  A    between atoms: C_22  and  C_24
REMARK                            x       y       z     vdW  Elec       q    Type
REMARK                         _______ _______ _______ _____ _____    ______ ____
ROOT
ATOM      1  C   UNL     1       4.044   2.491  20.171  0.00  0.00    +0.000 C 
ATOM      2  C   UNL     1       3.958   3.763  19.385  0.00  0.00    +0.000 A 
ATOM      3  N   UNL     1       4.889   3.953  18.431  0.00  0.00    +0.000 NA
ATOM      4  C   UNL     1       4.696   4.959  17.570  0.00  0.00    +0.000 A 
ATOM      5  C   UNL     1       3.646   5.843  17.727  0.00  0.00    +0.000 A 
ATOM      6  C   UNL     1       2.788   5.648  18.797  0.00  0.00    +0.000 A 
ATOM      7  N   UNL     1       2.921   4.593  19.619  0.00  0.00    +0.000 NA
ENDROOT
BRANCH   4   8
ATOM      8  C   UNL     1       5.656   5.070  16.468  0.00  0.00    +0.000 A 
ATOM      9  C   UNL     1       5.563   4.207  15.380  0.00  0.00    +0.000 A 
ATOM     10  N   UNL     1       6.393   4.183  14.318  0.00  0.00    +0.000 NA
ATOM     11  C   UNL     1       7.351   5.094  14.309  0.00  0.00    +0.000 A 
ATOM     12  N   UNL     1       8.225   5.099  13.242  0.00  0.00    +0.000 N 
ATOM     13  N   UNL     1       7.558   5.968  15.287  0.00  0.00    +0.000 NA
ATOM     14  C   UNL     1       6.718   5.967  16.377  0.00  0.00    +0.000 A 
ATOM     15  H   UNL     1       8.249   4.188  12.809  0.00  0.00    +0.000 HD
ATOM     16  H   UNL     1       9.104   5.514  13.511  0.00  0.00    +0.000 HD
BRANCH  14  17
ATOM     17  C   UNL     1       7.101   6.989  17.443  0.00  0.00    +0.000 C 
ATOM     18  F   UNL     1       6.169   7.898  17.834  0.00  0.00    +0.000 F 
ATOM     19  F   UNL     1       7.447   6.369  18.616  0.00  0.00    +0.000 F 
ATOM     20  F   UNL     1       8.203   7.719  17.091  0.00  0.00    +0.000 F 
ENDBRANCH  14  17
ENDBRANCH   4   8
BRANCH   6  21
ATOM     21  C   UNL     1       1.687   6.663  19.015  0.00  0.00    +0.000 C 
ATOM     22  C   UNL     1       1.521   7.593  17.795  0.00  0.00    +0.000 C 
ATOM     23  C   UNL     1       1.735   8.996  18.317  0.00  0.00    +0.000 C 
ATOM     24  N   UNL     1       1.450   8.919  19.730  0.00  0.00    +0.000 N 
ATOM     25  C   UNL     1       1.025   9.915  20.595  0.00  0.00    +0.000 C 
ATOM     26  O   UNL     1       0.768   9.676  21.777  0.00  0.00    +0.000 OA
ATOM     27  C   UNL     1       1.807   7.597  20.228  0.00  0.00    +0.000 C 
BRANCH  25  28
ATOM     28  C   UNL     1       0.812  11.315  20.101  0.00  0.00    +0.000 A 
ATOM     29  C   UNL     1      -0.327  11.589  19.331  0.00  0.00    +0.000 A 
ATOM     30  C   UNL     1      -0.562  12.880  18.845  0.00  0.00    +0.000 A 
ATOM     31  C   UNL     1       0.346  13.904  19.112  0.00  0.00    +0.000 A 
ATOM     32  C   UNL     1       1.465  13.649  19.895  0.00  0.00    +0.000 A 
ATOM     33  C   UNL     1       1.673  12.372  20.419  0.00  0.00    +0.000 A 
ENDBRANCH  25  28
ENDBRANCH   6  21
TORSDOF 4
ENDMDL
MODEL 7
REMARK VINA RESULT:      -8.0      4.465      9.404
REMARK  Name = 
REMARK  5 active torsions:
REMARK  status: ('A' for Active; 'I' for Inactive)
REMARK    1  A    between atoms: C_1  and  C_2
REMARK    2  A    between atoms: C_4  and  C_5
REMARK    3  A    between atoms: C_11  and  C_12
REMARK    4  A    between atoms: C_17  and  C_18
REMARK    5  A    between atoms: C_22  and  C_24
REMARK                            x       y       z     vdW  Elec       q    Type
REMARK                         _______ _______ _______ _____ _____    ______ ____
ROOT
ATOM      1  C   UNL     1       2.207   4.383  21.513  0.00  0.00    +0.000 C 
ATOM      2  C   UNL     1       2.482   5.483  20.535  0.00  0.00    +0.000 A 
ATOM      3  N   UNL     1       3.506   5.296  19.681  0.00  0.00    +0.000 NA
ATOM      4  C   UNL     1       3.622   6.151  18.658  0.00  0.00    +0.000 A 
ATOM      5  C   UNL     1       2.797   7.253  18.550  0.00  0.00    +0.000 A 
ATOM      6  C   UNL     1       1.833   7.440  19.526  0.00  0.00    +0.000 A 
ATOM      7  N   UNL     1       1.650   6.544  20.512  0.00  0.00    +0.000 NA
ENDROOT
BRANCH   4   8
ATOM      8  C   UNL     1       4.669   5.855  17.675  0.00  0.00    +0.000 A 
ATOM      9  C   UNL     1       5.523   6.868  17.248  0.00  0.00    +0.000 A 
ATOM     10  N   UNL     1       6.505   6.740  16.333  0.00  0.00    +0.000 NA
ATOM     11  C   UNL     1       6.682   5.527  15.838  0.00  0.00    +0.000 A 
ATOM     12  N   UNL     1       7.673   5.355  14.894  0.00  0.00    +0.000 N 
ATOM     13  N   UNL     1       5.931   4.477  16.150  0.00  0.00    +0.000 NA
ATOM     14  C   UNL     1       4.917   4.625  17.068  0.00  0.00    +0.000 A 
ATOM     15  H   UNL     1       7.874   6.232  14.438  0.00  0.00    +0.000 HD
ATOM     16  H   UNL     1       7.467   4.560  14.310  0.00  0.00    +0.000 HD
BRANCH  14  17
ATOM     17  C   UNL     1       4.108   3.352  17.295  0.00  0.00    +0.000 C 
ATOM     18  F   UNL     1       2.762   3.398  17.110  0.00  0.00    +0.000 F 
ATOM     19  F   UNL     1       4.509   2.357  16.440  0.00  0.00    +0.000 F 
ATOM     20  F   UNL     1       4.292   2.837  18.548  0.00  0.00    +0.000 F 
ENDBRANCH  14  17
ENDBRANCH   4   8
BRANCH   6  21
ATOM     21  C   UNL     1       0.983   8.690  19.452  0.00  0.00    +0.000 C 
ATOM     22  C   UNL     1       1.237   9.473  18.147  0.00  0.00    +0.000 C 
ATOM     23  C   UNL     1       1.691  10.850  18.576  0.00  0.00    +0.000 C 
ATOM     24  N   UNL     1       1.176  11.015  19.915  0.00  0.00    +0.000 N 
ATOM     25  C   UNL     1       0.868  12.180  20.599  0.00  0.00    +0.000 C 
ATOM     26  O   UNL     1       0.378  12.152  21.730  0.00  0.00    +0.000 OA
ATOM     27  C   UNL     1       1.127   9.720  20.581  0.00  0.00    +0.000 C 
BRANCH  25  28
ATOM     28  C   UNL     1       1.073  13.519  19.956  0.00  0.00    +0.000 A 
ATOM     29  C   UNL     1      -0.026  14.151  19.358  0.00  0.00    +0.000 A 
ATOM     30  C   UNL     1       0.122  15.400  18.742  0.00  0.00    +0.000 A 
ATOM     31  C   UNL     1       1.371  16.018  18.706  0.00  0.00    +0.000 A 
ATOM     32  C   UNL     1       2.461  15.411  19.317  0.00  0.00    +0.000 A 
ATOM     33  C   UNL     1       2.302  14.189  19.973  0.00  0.00    +0.000 A 
ENDBRANCH  25  28
ENDBRANCH   6  21
TORSDOF 4
ENDMDL
MODEL 8
REMARK VINA RESULT:      -7.9      4.499      9.821
REMARK  Name = 
REMARK  5 active torsions:
REMARK  status: ('A' for Active; 'I' for Inactive)
REMARK    1  A    between atoms: C_1  and  C_2
REMARK    2  A    between atoms: C_4  and  C_5
REMARK    3  A    between atoms: C_11  and  C_12
REMARK    4  A    between atoms: C_17  and  C_18
REMARK    5  A    between atoms: C_22  and  C_24
REMARK                            x       y       z     vdW  Elec       q    Type
REMARK                         _______ _______ _______ _____ _____    ______ ____
ROOT
ATOM      1  C   UNL     1       1.383   3.362  18.858  0.00  0.00    +0.000 C 
ATOM      2  C   UNL     1       2.255   4.575  18.752  0.00  0.00    +0.000 A 
ATOM      3  N   UNL     1       3.341   4.477  17.962  0.00  0.00    +0.000 NA
ATOM      4  C   UNL     1       3.998   5.605  17.672  0.00  0.00    +0.000 A 
ATOM      5  C   UNL     1       3.648   6.808  18.255  0.00  0.00    +0.000 A 
ATOM      6  C   UNL     1       2.584   6.813  19.141  0.00  0.00    +0.000 A 
ATOM      7  N   UNL     1       1.863   5.703  19.378  0.00  0.00    +0.000 NA
ENDROOT
BRANCH   4   8
ATOM      8  C   UNL     1       5.102   5.491  16.714  0.00  0.00    +0.000 A 
ATOM      9  C   UNL     1       4.831   5.222  15.375  0.00  0.00    +0.000 A 
ATOM     10  N   UNL     1       5.749   5.066  14.400  0.00  0.00    +0.000 NA
ATOM     11  C   UNL     1       7.011   5.224  14.760  0.00  0.00    +0.000 A 
ATOM     12  N   UNL     1       7.981   5.066  13.792  0.00  0.00    +0.000 N 
ATOM     13  N   UNL     1       7.407   5.471  16.003  0.00  0.00    +0.000 NA
ATOM     14  C   UNL     1       6.462   5.606  16.994  0.00  0.00    +0.000 A 
ATOM     15  H   UNL     1       7.632   4.490  13.041  0.00  0.00    +0.000 HD
ATOM     16  H   UNL     1       8.858   4.803  14.214  0.00  0.00    +0.000 HD
BRANCH  14  17
ATOM     17  C   UNL     1       7.059   5.839  18.378  0.00  0.00    +0.000 C 
ATOM     18  F   UNL     1       6.268   5.646  19.467  0.00  0.00    +0.000 F 
ATOM     19  F   UNL     1       8.117   4.996  18.605  0.00  0.00    +0.000 F 
ATOM     20  F   UNL     1       7.574   7.098  18.516  0.00  0.00    +0.000 F 
ENDBRANCH  14  17
ENDBRANCH   4   8
BRANCH   6  21
ATOM     21  C   UNL     1       2.252   8.113  19.841  0.00  0.00    +0.000 C 
ATOM     22  C   UNL     1       1.186   7.912  20.938  0.00  0.00    +0.000 C 
ATOM     23  C   UNL     1       0.036   8.822  20.564  0.00  0.00    +0.000 C 
ATOM     24  N   UNL     1       0.621   9.841  19.726  0.00  0.00    +0.000 N 
ATOM     25  C   UNL     1       0.194  11.139  19.494  0.00  0.00    +0.000 C 
ATOM     26  O   UNL     1       0.841  11.914  18.786  0.00  0.00    +0.000 OA
ATOM     27  C   UNL     1       1.739   9.277  18.981  0.00  0.00    +0.000 C 
BRANCH  25  28
ATOM     28  C   UNL     1      -1.052  11.660  20.147  0.00  0.00    +0.000 A 
ATOM     29  C   UNL     1      -1.040  11.885  21.531  0.00  0.00    +0.000 A 
ATOM     30  C   UNL     1      -2.182  12.366  22.181  0.00  0.00    +0.000 A 
ATOM     31  C   UNL     1      -3.348  12.610  21.458  0.00  0.00    +0.000 A 
ATOM     32  C   UNL     1      -3.363  12.414  20.082  0.00  0.00    +0.000 A 
ATOM     33  C   UNL     1      -2.209  11.981  19.427  0.00  0.00    +0.000 A 
ENDBRANCH  25  28
ENDBRANCH   6  21
TORSDOF 4
ENDMDL
MODEL 9
REMARK VINA RESULT:      -7.9      3.984      9.361
REMARK  Name = 
REMARK  5 active torsions:
REMARK  status: ('A' for Active; 'I' for Inactive)
REMARK    1  A    between atoms: C_1  and  C_2
REMARK    2  A    between atoms: C_4  and  C_5
REMARK    3  A    between atoms: C_11  and  C_12
REMARK    4  A    between atoms: C_17  and  C_18
REMARK    5  A    between atoms: C_22  and  C_24
REMARK                            x       y       z     vdW  Elec       q    Type
REMARK                         _______ _______ _______ _____ _____    ______ ____
ROOT
ATOM      1  C   UNL     1       2.059   5.115  21.220  0.00  0.00    +0.000 C 
ATOM      2  C   UNL     1       2.419   6.062  20.116  0.00  0.00    +0.000 A 
ATOM      3  N   UNL     1       3.301   5.620  19.199  0.00  0.00    +0.000 NA
ATOM      4  C   UNL     1       3.457   6.352  18.090  0.00  0.00    +0.000 A 
ATOM      5  C   UNL     1       2.829   7.574  17.944  0.00  0.00    +0.000 A 
ATOM      6  C   UNL     1       2.019   8.014  18.978  0.00  0.00    +0.000 A 
ATOM      7  N   UNL     1       1.786   7.252  20.060  0.00  0.00    +0.000 NA
ENDROOT
BRANCH   4   8
ATOM      8  C   UNL     1       4.329   5.790  17.054  0.00  0.00    +0.000 A 
ATOM      9  C   UNL     1       5.052   6.641  16.222  0.00  0.00    +0.000 A 
ATOM     10  N   UNL     1       5.864   6.259  15.217  0.00  0.00    +0.000 NA
ATOM     11  C   UNL     1       6.005   4.955  15.048  0.00  0.00    +0.000 A 
ATOM     12  N   UNL     1       6.824   4.523  14.025  0.00  0.00    +0.000 N 
ATOM     13  N   UNL     1       5.367   4.037  15.763  0.00  0.00    +0.000 NA
ATOM     14  C   UNL     1       4.522   4.439  16.771  0.00  0.00    +0.000 A 
ATOM     15  H   UNL     1       6.905   5.239  13.319  0.00  0.00    +0.000 HD
ATOM     16  H   UNL     1       6.554   3.599  13.726  0.00  0.00    +0.000 HD
BRANCH  14  17
ATOM     17  C   UNL     1       3.821   3.283  17.478  0.00  0.00    +0.000 C 
ATOM     18  F   UNL     1       2.461   3.261  17.492  0.00  0.00    +0.000 F 
ATOM     19  F   UNL     1       4.148   2.083  16.900  0.00  0.00    +0.000 F 
ATOM     20  F   UNL     1       4.205   3.163  18.784  0.00  0.00    +0.000 F 
ENDBRANCH  14  17
ENDBRANCH   4   8
BRANCH   6  21
ATOM     21  C   UNL     1       1.396   9.388  18.853  0.00  0.00    +0.000 C 
ATOM     22  C   UNL     1       0.962   9.942  20.226  0.00  0.00    +0.000 C 
ATOM     23  C   UNL     1      -0.523  10.207  20.111  0.00  0.00    +0.000 C 
ATOM     24  N   UNL     1      -0.768  10.363  18.696  0.00  0.00    +0.000 N 
ATOM     25  C   UNL     1      -1.778  11.061  18.053  0.00  0.00    +0.000 C 
ATOM     26  O   UNL     1      -1.819  11.147  16.823  0.00  0.00    +0.000 OA
ATOM     27  C   UNL     1       0.166   9.535  17.946  0.00  0.00    +0.000 C 
BRANCH  25  28
ATOM     28  C   UNL     1      -2.829  11.782  18.842  0.00  0.00    +0.000 A 
ATOM     29  C   UNL     1      -4.174  11.600  18.493  0.00  0.00    +0.000 A 
ATOM     30  C   UNL     1      -5.187  12.257  19.199  0.00  0.00    +0.000 A 
ATOM     31  C   UNL     1      -4.863  13.115  20.250  0.00  0.00    +0.000 A 
ATOM     32  C   UNL     1      -3.534  13.284  20.620  0.00  0.00    +0.000 A 
ATOM     33  C   UNL     1      -2.529  12.590  19.946  0.00  0.00    +0.000 A 
ENDBRANCH  25  28
ENDBRANCH   6  21
TORSDOF 4
ENDMDL
