MODEL 1
REMARK VINA RESULT:      -8.3      0.000      0.000
REMARK  Name = 
REMARK  6 active torsions:
REMARK  status: ('A' for Active; 'I' for Inactive)
REMARK    1  A    between atoms: C_1  and  C_2
REMARK    2  A    between atoms: C_2  and  N_3
REMARK    3  A    between atoms: C_5  and  C_6
REMARK    4  A    between atoms: C_10  and  C_11
REMARK    5  A    between atoms: C_18  and  C_19
REMARK    6  A    between atoms: N_21  and  C_22
REMARK                            x       y       z     vdW  Elec       q    Type
REMARK                         _______ _______ _______ _____ _____    ______ ____
ROOT
ATOM      1  N   UNL     1       2.847   3.975  19.535  0.00  0.00    +0.000 N 
ATOM      2  C   UNL     1       3.872   4.085  18.594  0.00  0.00    +0.000 A 
ATOM      3  C   UNL     1       4.173   5.235  17.950  0.00  0.00    +0.000 A 
ATOM      4  C   UNL     1       3.354   6.356  18.287  0.00  0.00    +0.000 A 
ATOM      5  S   UNL     1       3.500   7.895  17.575  0.00  0.00    +0.000 S 
ATOM      6  C   UNL     1       2.153   8.517  18.443  0.00  0.00    +0.000 A 
ATOM      7  C   UNL     1       1.664   7.579  19.334  0.00  0.00    +0.000 A 
ATOM      8  C   UNL     1       2.340   6.320  19.226  0.00  0.00    +0.000 A 
ATOM      9  C   UNL     1       2.056   5.071  19.937  0.00  0.00    +0.000 A 
ATOM     10  O   UNL     1       1.180   5.008  20.791  0.00  0.00    +0.000 OA
ENDROOT
BRANCH   3  11
ATOM     11  C   UNL     1       5.261   5.209  16.959  0.00  0.00    +0.000 A 
ATOM     12  C   UNL     1       6.474   5.859  17.225  0.00  0.00    +0.000 A 
ATOM     13  C   UNL     1       7.500   5.843  16.282  0.00  0.00    +0.000 A 
ATOM     14  C   UNL     1       7.319   5.191  15.061  0.00  0.00    +0.000 A 
ATOM     15  C   UNL     1       6.109   4.544  14.773  0.00  0.00    +0.000 A 
ATOM     16  C   UNL     1       5.089   4.546  15.739  0.00  0.00    +0.000 A 
BRANCH  15  17
ATOM     17  C   UNL     1       5.877   3.873  13.442  0.00  0.00    +0.000 C 
ATOM     18  F   UNL     1       4.608   4.021  12.968  0.00  0.00    +0.000 F 
ATOM     19  F   UNL     1       6.700   4.343  12.465  0.00  0.00    +0.000 F 
ATOM     20  F   UNL     1       6.096   2.530  13.501  0.00  0.00    +0.000 F 
ENDBRANCH  15  17
ENDBRANCH   3  11
BRANCH   6  21
ATOM     21  C   UNL     1       1.681   9.862  18.121  0.00  0.00    +0.000 C 
ATOM     22  N   UNL     1       2.369  10.602  17.308  0.00  0.00    +0.000 NA
ATOM     23  N   UNL     1       0.536  10.370  18.687  0.00  0.00    +0.000 N 
ATOM     24  H   UNL     1       3.203  10.106  16.981  0.00  0.00    +0.000 HD
ATOM     25  H   UNL     1      -0.239   9.716  18.642  0.00  0.00    +0.000 HD
BRANCH  23  26
ATOM     26  C   UNL     1       0.200  11.783  18.773  0.00  0.00    +0.000 C 
ATOM     27  C   UNL     1       1.199  12.509  19.696  0.00  0.00    +0.000 C 
ATOM     28  C   UNL     1       1.236  11.983  21.125  0.00  0.00    +0.000 C 
ATOM     29  S   UNL     1      -0.366  11.924  21.902  0.00  0.00    +0.000 S 
ATOM     30  O   UNL     1      -0.300  10.974  23.000  0.00  0.00    +0.000 OA
ATOM     31  O   UNL     1      -0.808  13.284  22.127  0.00  0.00    +0.000 OA
ATOM     32  C   UNL     1      -1.416  11.223  20.650  0.00  0.00    +0.000 C 
ATOM     33  C   UNL     1      -1.227  11.941  19.319  0.00  0.00    +0.000 C 
ENDBRANCH  23  26
ENDBRANCH   6  21
BRANCH   1  35
ATOM     34  C   UNL     1       1.623   1.825  19.255  0.00  0.00    +0.000 C 
ATOM     35  C   UNL     1       2.561   2.659  20.112  0.00  0.00    +0.000 C 
ENDBRANCH   1  35
TORSDOF 5
ENDMDL
MODEL 2
REMARK VINA RESULT:      -7.6      0.763      1.093
REMARK  Name = 
REMARK  6 active torsions:
REMARK  status: ('A' for Active; 'I' for Inactive)
REMARK    1  A    between atoms: C_1  and  C_2
REMARK    2  A    between atoms: C_2  and  N_3
REMARK    3  A    between atoms: C_5  and  C_6
REMARK    4  A    between atoms: C_10  and  C_11
REMARK    5  A    between atoms: C_18  and  C_19
REMARK    6  A    between atoms: N_21  and  C_22
REMARK                            x       y       z     vdW  Elec       q    Type
REMARK                         _______ _______ _______ _____ _____    ______ ____
ROOT
ATOM      1  N   UNL     1       2.452   3.778  19.652  0.00  0.00    +0.000 N 
ATOM      2  C   UNL     1       3.571   3.842  18.820  0.00  0.00    +0.000 A 
ATOM      3  C   UNL     1       4.012   4.984  18.248  0.00  0.00    +0.000 A 
ATOM      4  C   UNL     1       3.242   6.151  18.542  0.00  0.00    +0.000 A 
ATOM      5  S   UNL     1       3.561   7.694  17.900  0.00  0.00    +0.000 S 
ATOM      6  C   UNL     1       2.179   8.386  18.652  0.00  0.00    +0.000 A 
ATOM      7  C   UNL     1       1.541   7.461  19.458  0.00  0.00    +0.000 A 
ATOM      8  C   UNL     1       2.138   6.161  19.374  0.00  0.00    +0.000 A 
ATOM      9  C   UNL     1       1.700   4.916  20.011  0.00  0.00    +0.000 A 
ATOM     10  O   UNL     1       0.741   4.892  20.773  0.00  0.00    +0.000 OA
ENDROOT
BRANCH   3  11
ATOM     11  C   UNL     1       5.190   4.908  17.369  0.00  0.00    +0.000 A 
ATOM     12  C   UNL     1       6.452   5.292  17.844  0.00  0.00    +0.000 A 
ATOM     13  C   UNL     1       7.565   5.230  17.008  0.00  0.00    +0.000 A 
ATOM     14  C   UNL     1       7.425   4.798  15.687  0.00  0.00    +0.000 A 
ATOM     15  C   UNL     1       6.170   4.421  15.192  0.00  0.00    +0.000 A 
ATOM     16  C   UNL     1       5.058   4.464  16.049  0.00  0.00    +0.000 A 
BRANCH  15  17
ATOM     17  C   UNL     1       5.991   3.995  13.756  0.00  0.00    +0.000 C 
ATOM     18  F   UNL     1       6.767   4.691  12.877  0.00  0.00    +0.000 F 
ATOM     19  F   UNL     1       6.283   2.680  13.556  0.00  0.00    +0.000 F 
ATOM     20  F   UNL     1       4.708   4.161  13.328  0.00  0.00    +0.000 F 
ENDBRANCH  15  17
ENDBRANCH   3  11
BRANCH   6  21
ATOM     21  C   UNL     1       1.833   9.769  18.330  0.00  0.00    +0.000 C 
ATOM     22  N   UNL     1       2.225  10.279  17.204  0.00  0.00    +0.000 NA
ATOM     23  N   UNL     1       1.127  10.551  19.214  0.00  0.00    +0.000 N 
ATOM     24  H   UNL     1       2.754   9.594  16.658  0.00  0.00    +0.000 HD
ATOM     25  H   UNL     1       0.313  10.073  19.585  0.00  0.00    +0.000 HD
BRANCH  23  26
ATOM     26  C   UNL     1       1.086  12.005  19.196  0.00  0.00    +0.000 C 
ATOM     27  C   UNL     1       1.377  12.560  20.605  0.00  0.00    +0.000 C 
ATOM     28  C   UNL     1       0.393  12.110  21.677  0.00  0.00    +0.000 C 
ATOM     29  S   UNL     1      -1.309  12.414  21.251  0.00  0.00    +0.000 S 
ATOM     30  O   UNL     1      -2.139  11.526  22.049  0.00  0.00    +0.000 OA
ATOM     31  O   UNL     1      -1.529  13.844  21.268  0.00  0.00    +0.000 OA
ATOM     32  C   UNL     1      -1.423  11.878  19.561  0.00  0.00    +0.000 C 
ATOM     33  C   UNL     1      -0.298  12.475  18.725  0.00  0.00    +0.000 C 
ENDBRANCH  23  26
ENDBRANCH   6  21
BRANCH   1  35
ATOM     34  C   UNL     1       2.305   2.278  21.634  0.00  0.00    +0.000 C 
ATOM     35  C   UNL     1       2.021   2.471  20.153  0.00  0.00    +0.000 C 
ENDBRANCH   1  35
TORSDOF 5
ENDMDL
MODEL 3
REMARK VINA RESULT:      -7.4      5.334      9.670
REMARK  Name = 
REMARK  6 active torsions:
REMARK  status: ('A' for Active; 'I' for Inactive)
REMARK    1  A    between atoms: C_1  and  C_2
REMARK    2  A    between atoms: C_2  and  N_3
REMARK    3  A    between atoms: C_5  and  C_6
REMARK    4  A    between atoms: C_10  and  C_11
REMARK    5  A    between atoms: C_18  and  C_19
REMARK    6  A    between atoms: N_21  and  C_22
REMARK                            x       y       z     vdW  Elec       q    Type
REMARK                         _______ _______ _______ _____ _____    ______ ____
ROOT
ATOM      1  N   UNL     1      -0.845  11.087  21.778  0.00  0.00    +0.000 N 
ATOM      2  C   UNL     1      -1.602  11.202  20.610  0.00  0.00    +0.000 A 
ATOM      3  C   UNL     1      -1.328  10.525  19.474  0.00  0.00    +0.000 A 
ATOM      4  C   UNL     1      -0.184   9.670  19.532  0.00  0.00    +0.000 A 
ATOM      5  S   UNL     1       0.396   8.757  18.219  0.00  0.00    +0.000 S 
ATOM      6  C   UNL     1       1.748   8.178  19.109  0.00  0.00    +0.000 A 
ATOM      7  C   UNL     1       1.695   8.609  20.422  0.00  0.00    +0.000 A 
ATOM      8  C   UNL     1       0.593   9.494  20.661  0.00  0.00    +0.000 A 
ATOM      9  C   UNL     1       0.256  10.213  21.893  0.00  0.00    +0.000 A 
ATOM     10  O   UNL     1       0.909  10.063  22.919  0.00  0.00    +0.000 OA
ENDROOT
BRANCH   3  11
ATOM     11  C   UNL     1      -2.190  10.758  18.303  0.00  0.00    +0.000 A 
ATOM     12  C   UNL     1      -1.746  10.411  17.019  0.00  0.00    +0.000 A 
ATOM     13  C   UNL     1      -2.559  10.641  15.911  0.00  0.00    +0.000 A 
ATOM     14  C   UNL     1      -3.814  11.233  16.073  0.00  0.00    +0.000 A 
ATOM     15  C   UNL     1      -4.269  11.596  17.348  0.00  0.00    +0.000 A 
ATOM     16  C   UNL     1      -3.453  11.338  18.461  0.00  0.00    +0.000 A 
BRANCH  15  17
ATOM     17  C   UNL     1      -5.601  12.277  17.538  0.00  0.00    +0.000 C 
ATOM     18  F   UNL     1      -6.662  11.420  17.518  0.00  0.00    +0.000 F 
ATOM     19  F   UNL     1      -5.684  12.950  18.718  0.00  0.00    +0.000 F 
ATOM     20  F   UNL     1      -5.850  13.197  16.566  0.00  0.00    +0.000 F 
ENDBRANCH  15  17
ENDBRANCH   3  11
BRANCH   6  21
ATOM     21  C   UNL     1       2.757   7.390  18.403  0.00  0.00    +0.000 C 
ATOM     22  N   UNL     1       3.401   7.920  17.411  0.00  0.00    +0.000 NA
ATOM     23  N   UNL     1       3.014   6.086  18.753  0.00  0.00    +0.000 N 
ATOM     24  H   UNL     1       3.094   8.884  17.250  0.00  0.00    +0.000 HD
ATOM     25  H   UNL     1       3.130   5.972  19.755  0.00  0.00    +0.000 HD
BRANCH  23  26
ATOM     26  C   UNL     1       3.663   5.103  17.899  0.00  0.00    +0.000 C 
ATOM     27  C   UNL     1       2.604   4.225  17.204  0.00  0.00    +0.000 C 
ATOM     28  C   UNL     1       1.703   3.448  18.155  0.00  0.00    +0.000 C 
ATOM     29  S   UNL     1       2.601   2.475  19.347  0.00  0.00    +0.000 S 
ATOM     30  O   UNL     1       1.717   2.209  20.470  0.00  0.00    +0.000 OA
ATOM     31  O   UNL     1       3.251   1.390  18.644  0.00  0.00    +0.000 OA
ATOM     32  C   UNL     1       3.873   3.577  19.918  0.00  0.00    +0.000 C 
ATOM     33  C   UNL     1       4.598   4.224  18.744  0.00  0.00    +0.000 C 
ENDBRANCH  23  26
ENDBRANCH   6  21
BRANCH   1  35
ATOM     34  C   UNL     1      -2.684  12.169  23.060  0.00  0.00    +0.000 C 
ATOM     35  C   UNL     1      -1.189  11.930  22.925  0.00  0.00    +0.000 C 
ENDBRANCH   1  35
TORSDOF 5
ENDMDL
MODEL 4
REMARK VINA RESULT:      -7.4      1.266      1.628
REMARK  Name = 
REMARK  6 active torsions:
REMARK  status: ('A' for Active; 'I' for Inactive)
REMARK    1  A    between atoms: C_1  and  C_2
REMARK    2  A    between atoms: C_2  and  N_3
REMARK    3  A    between atoms: C_5  and  C_6
REMARK    4  A    between atoms: C_10  and  C_11
REMARK    5  A    between atoms: C_18  and  C_19
REMARK    6  A    between atoms: N_21  and  C_22
REMARK                            x       y       z     vdW  Elec       q    Type
REMARK                         _______ _______ _______ _____ _____    ______ ____
ROOT
ATOM      1  N   UNL     1       2.613   3.450  18.603  0.00  0.00    +0.000 N 
ATOM      2  C   UNL     1       3.651   3.640  17.690  0.00  0.00    +0.000 A 
ATOM      3  C   UNL     1       4.068   4.857  17.276  0.00  0.00    +0.000 A 
ATOM      4  C   UNL     1       3.361   5.967  17.833  0.00  0.00    +0.000 A 
ATOM      5  S   UNL     1       3.662   7.592  17.429  0.00  0.00    +0.000 S 
ATOM      6  C   UNL     1       2.375   8.164  18.415  0.00  0.00    +0.000 A 
ATOM      7  C   UNL     1       1.790   7.124  19.113  0.00  0.00    +0.000 A 
ATOM      8  C   UNL     1       2.341   5.849  18.757  0.00  0.00    +0.000 A 
ATOM      9  C   UNL     1       1.929   4.520  19.217  0.00  0.00    +0.000 A 
ATOM     10  O   UNL     1       1.044   4.379  20.052  0.00  0.00    +0.000 OA
ENDROOT
BRANCH   3  11
ATOM     11  C   UNL     1       5.157   4.916  16.287  0.00  0.00    +0.000 A 
ATOM     12  C   UNL     1       6.327   5.637  16.568  0.00  0.00    +0.000 A 
ATOM     13  C   UNL     1       7.353   5.702  15.627  0.00  0.00    +0.000 A 
ATOM     14  C   UNL     1       7.215   5.060  14.394  0.00  0.00    +0.000 A 
ATOM     15  C   UNL     1       6.049   4.344  14.093  0.00  0.00    +0.000 A 
ATOM     16  C   UNL     1       5.030   4.265  15.056  0.00  0.00    +0.000 A 
BRANCH  15  17
ATOM     17  C   UNL     1       5.861   3.682  12.750  0.00  0.00    +0.000 C 
ATOM     18  F   UNL     1       6.117   2.343  12.760  0.00  0.00    +0.000 F 
ATOM     19  F   UNL     1       4.596   3.820  12.267  0.00  0.00    +0.000 F 
ATOM     20  F   UNL     1       6.683   4.209  11.800  0.00  0.00    +0.000 F 
ENDBRANCH  15  17
ENDBRANCH   3  11
BRANCH   6  21
ATOM     21  C   UNL     1       2.040   9.585  18.362  0.00  0.00    +0.000 C 
ATOM     22  N   UNL     1       2.473  10.307  17.376  0.00  0.00    +0.000 NA
ATOM     23  N   UNL     1       1.300  10.179  19.357  0.00  0.00    +0.000 N 
ATOM     24  H   UNL     1       3.024   9.741  16.725  0.00  0.00    +0.000 HD
ATOM     25  H   UNL     1       0.472   9.642  19.594  0.00  0.00    +0.000 HD
BRANCH  23  26
ATOM     26  C   UNL     1       1.257  11.607  19.628  0.00  0.00    +0.000 C 
ATOM     27  C   UNL     1       0.512  11.873  20.952  0.00  0.00    +0.000 C 
ATOM     28  C   UNL     1      -0.929  11.382  20.976  0.00  0.00    +0.000 C 
ATOM     29  S   UNL     1      -1.904  11.977  19.609  0.00  0.00    +0.000 S 
ATOM     30  O   UNL     1      -3.040  11.084  19.444  0.00  0.00    +0.000 OA
ATOM     31  O   UNL     1      -2.102  13.400  19.782  0.00  0.00    +0.000 OA
ATOM     32  C   UNL     1      -0.840  11.753  18.203  0.00  0.00    +0.000 C 
ATOM     33  C   UNL     1       0.545  12.330  18.474  0.00  0.00    +0.000 C 
ENDBRANCH  23  26
ENDBRANCH   6  21
BRANCH   1  35
ATOM     34  C   UNL     1       3.329   1.076  18.827  0.00  0.00    +0.000 C 
ATOM     35  C   UNL     1       2.194   2.083  18.918  0.00  0.00    +0.000 C 
ENDBRANCH   1  35
TORSDOF 5
ENDMDL
MODEL 5
REMARK VINA RESULT:      -7.4      0.878      1.221
REMARK  Name = 
REMARK  6 active torsions:
REMARK  status: ('A' for Active; 'I' for Inactive)
REMARK    1  A    between atoms: C_1  and  C_2
REMARK    2  A    between atoms: C_2  and  N_3
REMARK    3  A    between atoms: C_5  and  C_6
REMARK    4  A    between atoms: C_10  and  C_11
REMARK    5  A    between atoms: C_18  and  C_19
REMARK    6  A    between atoms: N_21  and  C_22
REMARK                            x       y       z     vdW  Elec       q    Type
REMARK                         _______ _______ _______ _____ _____    ______ ____
ROOT
ATOM      1  N   UNL     1       3.332   3.876  19.903  0.00  0.00    +0.000 N 
ATOM      2  C   UNL     1       4.271   4.089  18.891  0.00  0.00    +0.000 A 
ATOM      3  C   UNL     1       4.369   5.243  18.195  0.00  0.00    +0.000 A 
ATOM      4  C   UNL     1       3.426   6.255  18.553  0.00  0.00    +0.000 A 
ATOM      5  S   UNL     1       3.312   7.770  17.787  0.00  0.00    +0.000 S 
ATOM      6  C   UNL     1       1.949   8.236  18.725  0.00  0.00    +0.000 A 
ATOM      7  C   UNL     1       1.651   7.275  19.674  0.00  0.00    +0.000 A 
ATOM      8  C   UNL     1       2.488   6.117  19.558  0.00  0.00    +0.000 A 
ATOM      9  C   UNL     1       2.424   4.869  20.324  0.00  0.00    +0.000 A 
ATOM     10  O   UNL     1       1.620   4.721  21.236  0.00  0.00    +0.000 OA
ENDROOT
BRANCH   3  11
ATOM     11  C   UNL     1       5.386   5.327  17.134  0.00  0.00    +0.000 A 
ATOM     12  C   UNL     1       6.521   6.131  17.307  0.00  0.00    +0.000 A 
ATOM     13  C   UNL     1       7.479   6.219  16.298  0.00  0.00    +0.000 A 
ATOM     14  C   UNL     1       7.305   5.516  15.104  0.00  0.00    +0.000 A 
ATOM     15  C   UNL     1       6.171   4.715  14.910  0.00  0.00    +0.000 A 
ATOM     16  C   UNL     1       5.223   4.615  15.941  0.00  0.00    +0.000 A 
BRANCH  15  17
ATOM     17  C   UNL     1       5.942   3.985  13.610  0.00  0.00    +0.000 C 
ATOM     18  F   UNL     1       6.216   2.651  13.676  0.00  0.00    +0.000 F 
ATOM     19  F   UNL     1       4.658   4.083  13.169  0.00  0.00    +0.000 F 
ATOM     20  F   UNL     1       6.720   4.473  12.604  0.00  0.00    +0.000 F 
ENDBRANCH  15  17
ENDBRANCH   3  11
BRANCH   6  21
ATOM     21  C   UNL     1       1.276   9.491  18.394  0.00  0.00    +0.000 C 
ATOM     22  N   UNL     1       0.452   9.529  17.394  0.00  0.00    +0.000 NA
ATOM     23  N   UNL     1       1.524  10.640  19.107  0.00  0.00    +0.000 N 
ATOM     24  H   UNL     1       0.381   8.611  16.946  0.00  0.00    +0.000 HD
ATOM     25  H   UNL     1       1.489  10.487  20.109  0.00  0.00    +0.000 HD
BRANCH  23  26
ATOM     26  C   UNL     1       1.253  11.990  18.637  0.00  0.00    +0.000 C 
ATOM     27  C   UNL     1       2.068  13.010  19.457  0.00  0.00    +0.000 C 
ATOM     28  C   UNL     1       1.771  13.001  20.951  0.00  0.00    +0.000 C 
ATOM     29  S   UNL     1       0.039  13.172  21.331  0.00  0.00    +0.000 S 
ATOM     30  O   UNL     1      -0.182  12.652  22.671  0.00  0.00    +0.000 OA
ATOM     31  O   UNL     1      -0.368  14.516  20.983  0.00  0.00    +0.000 OA
ATOM     32  C   UNL     1      -0.754  12.063  20.190  0.00  0.00    +0.000 C 
ATOM     33  C   UNL     1      -0.247  12.291  18.771  0.00  0.00    +0.000 C 
ENDBRANCH  23  26
ENDBRANCH   6  21
BRANCH   1  35
ATOM     34  C   UNL     1       4.585   1.802  20.474  0.00  0.00    +0.000 C 
ATOM     35  C   UNL     1       3.267   2.558  20.536  0.00  0.00    +0.000 C 
ENDBRANCH   1  35
TORSDOF 5
ENDMDL
MODEL 6
REMARK VINA RESULT:      -7.4      5.295      9.594
REMARK  Name = 
REMARK  6 active torsions:
REMARK  status: ('A' for Active; 'I' for Inactive)
REMARK    1  A    between atoms: C_1  and  C_2
REMARK    2  A    between atoms: C_2  and  N_3
REMARK    3  A    between atoms: C_5  and  C_6
REMARK    4  A    between atoms: C_10  and  C_11
REMARK    5  A    between atoms: C_18  and  C_19
REMARK    6  A    between atoms: N_21  and  C_22
REMARK                            x       y       z     vdW  Elec       q    Type
REMARK                         _______ _______ _______ _____ _____    ______ ____
ROOT
ATOM      1  N   UNL     1      -0.588  11.095  22.101  0.00  0.00    +0.000 N 
ATOM      2  C   UNL     1      -0.118  12.170  21.345  0.00  0.00    +0.000 A 
ATOM      3  C   UNL     1       0.636  12.027  20.233  0.00  0.00    +0.000 A 
ATOM      4  C   UNL     1       0.942  10.679  19.871  0.00  0.00    +0.000 A 
ATOM      5  S   UNL     1       1.917  10.242  18.547  0.00  0.00    +0.000 S 
ATOM      6  C   UNL     1       1.826   8.568  18.924  0.00  0.00    +0.000 A 
ATOM      7  C   UNL     1       0.980   8.349  19.995  0.00  0.00    +0.000 A 
ATOM      8  C   UNL     1       0.490   9.571  20.561  0.00  0.00    +0.000 A 
ATOM      9  C   UNL     1      -0.356   9.750  21.744  0.00  0.00    +0.000 A 
ATOM     10  O   UNL     1      -0.794   8.790  22.368  0.00  0.00    +0.000 OA
ENDROOT
BRANCH   3  11
ATOM     11  C   UNL     1       1.091  13.246  19.543  0.00  0.00    +0.000 A 
ATOM     12  C   UNL     1       2.399  13.329  19.047  0.00  0.00    +0.000 A 
ATOM     13  C   UNL     1       2.832  14.487  18.403  0.00  0.00    +0.000 A 
ATOM     14  C   UNL     1       1.968  15.575  18.262  0.00  0.00    +0.000 A 
ATOM     15  C   UNL     1       0.660  15.513  18.762  0.00  0.00    +0.000 A 
ATOM     16  C   UNL     1       0.226  14.334  19.389  0.00  0.00    +0.000 A 
BRANCH  15  17
ATOM     17  C   UNL     1      -0.273  16.694  18.661  0.00  0.00    +0.000 C 
ATOM     18  F   UNL     1       0.244  17.846  19.175  0.00  0.00    +0.000 F 
ATOM     19  F   UNL     1      -0.624  16.979  17.377  0.00  0.00    +0.000 F 
ATOM     20  F   UNL     1      -1.441  16.482  19.329  0.00  0.00    +0.000 F 
ENDBRANCH  15  17
ENDBRANCH   3  11
BRANCH   6  21
ATOM     21  C   UNL     1       2.643   7.637  18.147  0.00  0.00    +0.000 C 
ATOM     22  N   UNL     1       3.267   8.061  17.094  0.00  0.00    +0.000 NA
ATOM     23  N   UNL     1       2.736   6.310  18.497  0.00  0.00    +0.000 N 
ATOM     24  H   UNL     1       3.092   9.059  16.944  0.00  0.00    +0.000 HD
ATOM     25  H   UNL     1       2.922   6.184  19.486  0.00  0.00    +0.000 HD
BRANCH  23  26
ATOM     26  C   UNL     1       3.155   5.238  17.607  0.00  0.00    +0.000 C 
ATOM     27  C   UNL     1       2.075   4.140  17.554  0.00  0.00    +0.000 C 
ATOM     28  C   UNL     1       1.765   3.493  18.898  0.00  0.00    +0.000 C 
ATOM     29  S   UNL     1       3.209   2.876  19.738  0.00  0.00    +0.000 S 
ATOM     30  O   UNL     1       2.894   2.763  21.153  0.00  0.00    +0.000 OA
ATOM     31  O   UNL     1       3.707   1.735  18.999  0.00  0.00    +0.000 OA
ATOM     32  C   UNL     1       4.396   4.187  19.557  0.00  0.00    +0.000 C 
ATOM     33  C   UNL     1       4.482   4.644  18.106  0.00  0.00    +0.000 C 
ENDBRANCH  23  26
ENDBRANCH   6  21
BRANCH   1  35
ATOM     34  C   UNL     1      -2.548  12.254  23.107  0.00  0.00    +0.000 C 
ATOM     35  C   UNL     1      -1.331  11.372  23.332  0.00  0.00    +0.000 C 
ENDBRANCH   1  35
TORSDOF 5
ENDMDL
MODEL 7
REMARK VINA RESULT:      -7.4      1.388      1.713
REMARK  Name = 
REMARK  6 active torsions:
REMARK  status: ('A' for Active; 'I' for Inactive)
REMARK    1  A    between atoms: C_1  and  C_2
REMARK    2  A    between atoms: C_2  and  N_3
REMARK    3  A    between atoms: C_5  and  C_6
REMARK    4  A    between atoms: C_10  and  C_11
REMARK    5  A    between atoms: C_18  and  C_19
REMARK    6  A    between atoms: N_21  and  C_22
REMARK                            x       y       z     vdW  Elec       q    Type
REMARK                         _______ _______ _______ _____ _____    ______ ____
ROOT
ATOM      1  N   UNL     1       2.926   4.324  20.001  0.00  0.00    +0.000 N 
ATOM      2  C   UNL     1       3.941   4.485  19.055  0.00  0.00    +0.000 A 
ATOM      3  C   UNL     1       4.135   5.626  18.358  0.00  0.00    +0.000 A 
ATOM      4  C   UNL     1       3.215   6.681  18.643  0.00  0.00    +0.000 A 
ATOM      5  S   UNL     1       3.219   8.192  17.860  0.00  0.00    +0.000 S 
ATOM      6  C   UNL     1       1.816   8.725  18.697  0.00  0.00    +0.000 A 
ATOM      7  C   UNL     1       1.413   7.789  19.631  0.00  0.00    +0.000 A 
ATOM      8  C   UNL     1       2.205   6.595  19.582  0.00  0.00    +0.000 A 
ATOM      9  C   UNL     1       2.035   5.359  20.351  0.00  0.00    +0.000 A 
ATOM     10  O   UNL     1       1.165   5.254  21.207  0.00  0.00    +0.000 OA
ENDROOT
BRANCH   3  11
ATOM     11  C   UNL     1       5.225   5.656  17.369  0.00  0.00    +0.000 A 
ATOM     12  C   UNL     1       6.358   6.452  17.591  0.00  0.00    +0.000 A 
ATOM     13  C   UNL     1       7.385   6.487  16.649  0.00  0.00    +0.000 A 
ATOM     14  C   UNL     1       7.284   5.740  15.474  0.00  0.00    +0.000 A 
ATOM     15  C   UNL     1       6.154   4.948  15.231  0.00  0.00    +0.000 A 
ATOM     16  C   UNL     1       5.135   4.900  16.196  0.00  0.00    +0.000 A 
BRANCH  15  17
ATOM     17  C   UNL     1       6.005   4.170  13.947  0.00  0.00    +0.000 C 
ATOM     18  F   UNL     1       6.821   4.605  12.945  0.00  0.00    +0.000 F 
ATOM     19  F   UNL     1       6.272   2.844  14.100  0.00  0.00    +0.000 F 
ATOM     20  F   UNL     1       4.739   4.240  13.449  0.00  0.00    +0.000 F 
ENDBRANCH  15  17
ENDBRANCH   3  11
BRANCH   6  21
ATOM     21  C   UNL     1       1.223  10.004  18.312  0.00  0.00    +0.000 C 
ATOM     22  N   UNL     1       0.153  10.016  17.580  0.00  0.00    +0.000 NA
ATOM     23  N   UNL     1       1.796  11.197  18.686  0.00  0.00    +0.000 N 
ATOM     24  H   UNL     1      -0.150   9.063  17.361  0.00  0.00    +0.000 HD
ATOM     25  H   UNL     1       2.038  11.215  19.671  0.00  0.00    +0.000 HD
BRANCH  23  26
ATOM     26  C   UNL     1       1.554  12.479  18.043  0.00  0.00    +0.000 C 
ATOM     27  C   UNL     1       2.745  13.427  18.288  0.00  0.00    +0.000 C 
ATOM     28  C   UNL     1       3.026  13.723  19.755  0.00  0.00    +0.000 C 
ATOM     29  S   UNL     1       1.600  14.307  20.648  0.00  0.00    +0.000 S 
ATOM     30  O   UNL     1       1.826  14.068  22.065  0.00  0.00    +0.000 OA
ATOM     31  O   UNL     1       1.278  15.632  20.164  0.00  0.00    +0.000 OA
ATOM     32  C   UNL     1       0.298  13.216  20.123  0.00  0.00    +0.000 C 
ATOM     33  C   UNL     1       0.266  13.101  18.604  0.00  0.00    +0.000 C 
ENDBRANCH  23  26
ENDBRANCH   6  21
BRANCH   1  35
ATOM     34  C   UNL     1       1.888   2.067  19.834  0.00  0.00    +0.000 C 
ATOM     35  C   UNL     1       2.761   3.016  20.639  0.00  0.00    +0.000 C 
ENDBRANCH   1  35
TORSDOF 5
ENDMDL
MODEL 8
REMARK VINA RESULT:      -7.3      4.388      9.014
REMARK  Name = 
REMARK  6 active torsions:
REMARK  status: ('A' for Active; 'I' for Inactive)
REMARK    1  A    between atoms: C_1  and  C_2
REMARK    2  A    between atoms: C_2  and  N_3
REMARK    3  A    between atoms: C_5  and  C_6
REMARK    4  A    between atoms: C_10  and  C_11
REMARK    5  A    between atoms: C_18  and  C_19
REMARK    6  A    between atoms: N_21  and  C_22
REMARK                            x       y       z     vdW  Elec       q    Type
REMARK                         _______ _______ _______ _____ _____    ______ ____
ROOT
ATOM      1  N   UNL     1      -0.759  10.885  22.163  0.00  0.00    +0.000 N 
ATOM      2  C   UNL     1      -0.376  11.996  21.409  0.00  0.00    +0.000 A 
ATOM      3  C   UNL     1       0.374  11.914  20.288  0.00  0.00    +0.000 A 
ATOM      4  C   UNL     1       0.772  10.594  19.914  0.00  0.00    +0.000 A 
ATOM      5  S   UNL     1       1.761  10.236  18.576  0.00  0.00    +0.000 S 
ATOM      6  C   UNL     1       1.794   8.557  18.943  0.00  0.00    +0.000 A 
ATOM      7  C   UNL     1       0.978   8.271  20.023  0.00  0.00    +0.000 A 
ATOM      8  C   UNL     1       0.408   9.452  20.602  0.00  0.00    +0.000 A 
ATOM      9  C   UNL     1      -0.435   9.563  21.796  0.00  0.00    +0.000 A 
ATOM     10  O   UNL     1      -0.796   8.570  22.417  0.00  0.00    +0.000 OA
ENDROOT
BRANCH   3  11
ATOM     11  C   UNL     1       0.732  13.166  19.602  0.00  0.00    +0.000 A 
ATOM     12  C   UNL     1      -0.259  14.107  19.286  0.00  0.00    +0.000 A 
ATOM     13  C   UNL     1       0.079  15.287  18.627  0.00  0.00    +0.000 A 
ATOM     14  C   UNL     1       1.405  15.532  18.265  0.00  0.00    +0.000 A 
ATOM     15  C   UNL     1       2.407  14.598  18.563  0.00  0.00    +0.000 A 
ATOM     16  C   UNL     1       2.061  13.422  19.248  0.00  0.00    +0.000 A 
BRANCH  15  17
ATOM     17  C   UNL     1       3.838  14.823  18.140  0.00  0.00    +0.000 C 
ATOM     18  F   UNL     1       4.582  15.495  19.063  0.00  0.00    +0.000 F 
ATOM     19  F   UNL     1       4.503  13.662  17.893  0.00  0.00    +0.000 F 
ATOM     20  F   UNL     1       3.924  15.553  16.993  0.00  0.00    +0.000 F 
ENDBRANCH  15  17
ENDBRANCH   3  11
BRANCH   6  21
ATOM     21  C   UNL     1       2.667   7.691  18.152  0.00  0.00    +0.000 C 
ATOM     22  N   UNL     1       3.228   8.159  17.081  0.00  0.00    +0.000 NA
ATOM     23  N   UNL     1       2.878   6.379  18.506  0.00  0.00    +0.000 N 
ATOM     24  H   UNL     1       2.967   9.137  16.931  0.00  0.00    +0.000 HD
ATOM     25  H   UNL     1       3.097   6.276  19.491  0.00  0.00    +0.000 HD
BRANCH  23  26
ATOM     26  C   UNL     1       3.364   5.340  17.611  0.00  0.00    +0.000 C 
ATOM     27  C   UNL     1       2.304   4.231  17.463  0.00  0.00    +0.000 C 
ATOM     28  C   UNL     1       1.925   3.540  18.767  0.00  0.00    +0.000 C 
ATOM     29  S   UNL     1       3.325   2.915  19.672  0.00  0.00    +0.000 S 
ATOM     30  O   UNL     1       2.929   2.757  21.062  0.00  0.00    +0.000 OA
ATOM     31  O   UNL     1       3.881   1.804  18.931  0.00  0.00    +0.000 OA
ATOM     32  C   UNL     1       4.502   4.245  19.600  0.00  0.00    +0.000 C 
ATOM     33  C   UNL     1       4.667   4.747  18.171  0.00  0.00    +0.000 C 
ENDBRANCH  23  26
ENDBRANCH   6  21
BRANCH   1  35
ATOM     34  C   UNL     1      -2.634  12.108  23.253  0.00  0.00    +0.000 C 
ATOM     35  C   UNL     1      -1.506  11.101  23.404  0.00  0.00    +0.000 C 
ENDBRANCH   1  35
TORSDOF 5
ENDMDL
MODEL 9
REMARK VINA RESULT:      -7.3      6.054     10.344
REMARK  Name = 
REMARK  6 active torsions:
REMARK  status: ('A' for Active; 'I' for Inactive)
REMARK    1  A    between atoms: C_1  and  C_2
REMARK    2  A    between atoms: C_2  and  N_3
REMARK    3  A    between atoms: C_5  and  C_6
REMARK    4  A    between atoms: C_10  and  C_11
REMARK    5  A    between atoms: C_18  and  C_19
REMARK    6  A    between atoms: N_21  and  C_22
REMARK                            x       y       z     vdW  Elec       q    Type
REMARK                         _______ _______ _______ _____ _____    ______ ____
ROOT
ATOM      1  N   UNL     1      -3.367  11.022  17.655  0.00  0.00    +0.000 N 
ATOM      2  C   UNL     1      -3.022  11.684  18.835  0.00  0.00    +0.000 A 
ATOM      3  C   UNL     1      -1.816  11.564  19.432  0.00  0.00    +0.000 A 
ATOM      4  C   UNL     1      -0.893  10.692  18.776  0.00  0.00    +0.000 A 
ATOM      5  S   UNL     1       0.665  10.335  19.358  0.00  0.00    +0.000 S 
ATOM      6  C   UNL     1       0.975   9.216  18.091  0.00  0.00    +0.000 A 
ATOM      7  C   UNL     1      -0.071   9.193  17.186  0.00  0.00    +0.000 A 
ATOM      8  C   UNL     1      -1.163  10.026  17.595  0.00  0.00    +0.000 A 
ATOM      9  C   UNL     1      -2.467  10.199  16.948  0.00  0.00    +0.000 A 
ATOM     10  O   UNL     1      -2.733   9.642  15.889  0.00  0.00    +0.000 OA
ENDROOT
BRANCH   3  11
ATOM     11  C   UNL     1      -1.589  12.295  20.689  0.00  0.00    +0.000 A 
ATOM     12  C   UNL     1      -0.349  12.897  20.943  0.00  0.00    +0.000 A 
ATOM     13  C   UNL     1      -0.132  13.580  22.138  0.00  0.00    +0.000 A 
ATOM     14  C   UNL     1      -1.146  13.656  23.095  0.00  0.00    +0.000 A 
ATOM     15  C   UNL     1      -2.389  13.052  22.863  0.00  0.00    +0.000 A 
ATOM     16  C   UNL     1      -2.606  12.386  21.646  0.00  0.00    +0.000 A 
BRANCH  15  17
ATOM     17  C   UNL     1      -3.481  13.084  23.903  0.00  0.00    +0.000 C 
ATOM     18  F   UNL     1      -3.743  11.868  24.460  0.00  0.00    +0.000 F 
ATOM     19  F   UNL     1      -3.197  13.919  24.940  0.00  0.00    +0.000 F 
ATOM     20  F   UNL     1      -4.666  13.517  23.389  0.00  0.00    +0.000 F 
ENDBRANCH  15  17
ENDBRANCH   3  11
BRANCH   6  21
ATOM     21  C   UNL     1       2.207   8.431  18.144  0.00  0.00    +0.000 C 
ATOM     22  N   UNL     1       3.298   8.923  17.646  0.00  0.00    +0.000 NA
ATOM     23  N   UNL     1       2.223   7.167  18.685  0.00  0.00    +0.000 N 
ATOM     24  H   UNL     1       3.134   9.858  17.262  0.00  0.00    +0.000 HD
ATOM     25  H   UNL     1       1.754   7.127  19.584  0.00  0.00    +0.000 HD
BRANCH  23  26
ATOM     26  C   UNL     1       3.242   6.161  18.429  0.00  0.00    +0.000 C 
ATOM     27  C   UNL     1       2.680   5.061  17.507  0.00  0.00    +0.000 C 
ATOM     28  C   UNL     1       1.472   4.323  18.067  0.00  0.00    +0.000 C 
ATOM     29  S   UNL     1       1.739   3.661  19.699  0.00  0.00    +0.000 S 
ATOM     30  O   UNL     1       0.440   3.451  20.319  0.00  0.00    +0.000 OA
ATOM     31  O   UNL     1       2.692   2.576  19.595  0.00  0.00    +0.000 OA
ATOM     32  C   UNL     1       2.537   4.990  20.568  0.00  0.00    +0.000 C 
ATOM     33  C   UNL     1       3.703   5.545  19.759  0.00  0.00    +0.000 C 
ENDBRANCH  23  26
ENDBRANCH   6  21
BRANCH   1  35
ATOM     34  C   UNL     1      -5.711  11.671  18.188  0.00  0.00    +0.000 C 
ATOM     35  C   UNL     1      -4.731  11.166  17.142  0.00  0.00    +0.000 C 
ENDBRANCH   1  35
TORSDOF 5
ENDMDL
