MODEL 1
REMARK VINA RESULT:      -8.3      0.000      0.000
REMARK  Name = 
REMARK  7 active torsions:
REMARK  status: ('A' for Active; 'I' for Inactive)
REMARK    1  A    between atoms: C_1  and  C_2
REMARK    2  A    between atoms: C_2  and  N_3
REMARK    3  A    between atoms: C_2  and  C_15
REMARK    4  A    between atoms: C_4  and  C_6
REMARK    5  A    between atoms: C_6  and  C_7
REMARK    6  A    between atoms: N_17  and  C_18
REMARK    7  A    between atoms: N_21  and  C_22
REMARK                            x       y       z     vdW  Elec       q    Type
REMARK                         _______ _______ _______ _____ _____    ______ ____
ROOT
ATOM      1  C   UNL     1       1.685   8.253  18.860  0.00  0.00    +0.000 C 
ATOM      2  O   UNL     1       1.255   8.485  17.734  0.00  0.00    +0.000 OA
ATOM      3  N   UNL     1       2.347   7.084  19.173  0.00  0.00    +0.000 N 
ATOM      4  H   UNL     1       2.608   6.897  20.128  0.00  0.00    +0.000 HD
ENDROOT
BRANCH   3   5
ATOM      5  C   UNL     1       2.644   6.053  18.156  0.00  0.00    +0.000 C 
ATOM      6  C   UNL     1       4.115   6.339  17.775  0.00  0.00    +0.000 C 
ATOM      7  O   UNL     1       4.493   7.454  17.411  0.00  0.00    +0.000 OA
ATOM      8  N   UNL     1       4.998   5.298  18.090  0.00  0.00    +0.000 N 
ATOM      9  C   UNL     1       6.325   5.681  18.529  0.00  0.00    +0.000 C 
ATOM     10  N   UNL     1       4.988   4.237  17.211  0.00  0.00    +0.000 NA
ATOM     11  C   UNL     1       3.985   3.421  17.300  0.00  0.00    +0.000 C 
ATOM     12  C   UNL     1       2.904   3.482  18.294  0.00  0.00    +0.000 A 
ATOM     13  C   UNL     1       2.546   2.246  18.858  0.00  0.00    +0.000 A 
ATOM     14  C   UNL     1       1.579   2.183  19.856  0.00  0.00    +0.000 A 
ATOM     15  C   UNL     1       0.922   3.342  20.245  0.00  0.00    +0.000 A 
ATOM     16  C   UNL     1       1.254   4.562  19.658  0.00  0.00    +0.000 A 
ATOM     17  C   UNL     1       2.297   4.676  18.713  0.00  0.00    +0.000 A 
ENDBRANCH   3   5
BRANCH   1  19
ATOM     18  C   UNL     1       1.262   8.592  21.347  0.00  0.00    +0.000 C 
ATOM     19  C   UNL     1       1.581   9.267  20.021  0.00  0.00    +0.000 C 
BRANCH  19  20
ATOM     20  N   UNL     1       0.566  10.274  19.722  0.00  0.00    +0.000 N 
ATOM     21  C   UNL     1       0.884  11.399  19.003  0.00  0.00    +0.000 C 
ATOM     22  O   UNL     1       2.037  11.650  18.639  0.00  0.00    +0.000 OA
ATOM     23  H   UNL     1      -0.327  10.218  20.196  0.00  0.00    +0.000 HD
BRANCH  21  24
ATOM     24  C   UNL     1      -0.268  12.330  18.684  0.00  0.00    +0.000 C 
BRANCH  24  25
ATOM     25  C   UNL     1      -1.513  11.605  18.240  0.00  0.00    +0.000 A 
ATOM     26  C   UNL     1      -2.749  11.874  18.849  0.00  0.00    +0.000 A 
ATOM     27  C   UNL     1      -3.905  11.242  18.394  0.00  0.00    +0.000 A 
ATOM     28  F   UNL     1      -5.078  11.523  18.977  0.00  0.00    +0.000 F 
ATOM     29  C   UNL     1      -3.864  10.342  17.341  0.00  0.00    +0.000 A 
ATOM     30  C   UNL     1      -2.642  10.072  16.744  0.00  0.00    +0.000 A 
ATOM     31  F   UNL     1      -2.585   9.210  15.720  0.00  0.00    +0.000 F 
ATOM     32  C   UNL     1      -1.471  10.692  17.178  0.00  0.00    +0.000 A 
ENDBRANCH  24  25
ENDBRANCH  21  24
ENDBRANCH  19  20
ENDBRANCH   1  19
TORSDOF 5
ENDMDL
MODEL 2
REMARK VINA RESULT:      -8.2      0.826      1.664
REMARK  Name = 
REMARK  7 active torsions:
REMARK  status: ('A' for Active; 'I' for Inactive)
REMARK    1  A    between atoms: C_1  and  C_2
REMARK    2  A    between atoms: C_2  and  N_3
REMARK    3  A    between atoms: C_2  and  C_15
REMARK    4  A    between atoms: C_4  and  C_6
REMARK    5  A    between atoms: C_6  and  C_7
REMARK    6  A    between atoms: N_17  and  C_18
REMARK    7  A    between atoms: N_21  and  C_22
REMARK                            x       y       z     vdW  Elec       q    Type
REMARK                         _______ _______ _______ _____ _____    ______ ____
ROOT
ATOM      1  C   UNL     1       1.593   8.169  18.897  0.00  0.00    +0.000 C 
ATOM      2  O   UNL     1       1.177   8.459  17.780  0.00  0.00    +0.000 OA
ATOM      3  N   UNL     1       2.294   7.007  19.148  0.00  0.00    +0.000 N 
ATOM      4  H   UNL     1       2.543   6.767  20.094  0.00  0.00    +0.000 HD
ENDROOT
BRANCH   3   5
ATOM      5  C   UNL     1       2.650   6.058  18.072  0.00  0.00    +0.000 C 
ATOM      6  C   UNL     1       4.128   6.398  17.770  0.00  0.00    +0.000 C 
ATOM      7  O   UNL     1       4.496   7.543  17.502  0.00  0.00    +0.000 OA
ATOM      8  N   UNL     1       5.020   5.353  18.044  0.00  0.00    +0.000 N 
ATOM      9  C   UNL     1       6.321   5.726  18.561  0.00  0.00    +0.000 C 
ATOM     10  N   UNL     1       5.065   4.358  17.092  0.00  0.00    +0.000 NA
ATOM     11  C   UNL     1       4.077   3.519  17.083  0.00  0.00    +0.000 C 
ATOM     12  C   UNL     1       2.959   3.488  18.036  0.00  0.00    +0.000 A 
ATOM     13  C   UNL     1       2.606   2.209  18.495  0.00  0.00    +0.000 A 
ATOM     14  C   UNL     1       1.603   2.056  19.447  0.00  0.00    +0.000 A 
ATOM     15  C   UNL     1       0.908   3.172  19.893  0.00  0.00    +0.000 A 
ATOM     16  C   UNL     1       1.236   4.437  19.408  0.00  0.00    +0.000 A 
ATOM     17  C   UNL     1       2.311   4.638  18.515  0.00  0.00    +0.000 A 
ENDBRANCH   3   5
BRANCH   1  19
ATOM     18  C   UNL     1       1.743   8.389  21.429  0.00  0.00    +0.000 C 
ATOM     19  C   UNL     1       1.427   9.098  20.120  0.00  0.00    +0.000 C 
BRANCH  19  20
ATOM     20  N   UNL     1       0.069   9.636  20.165  0.00  0.00    +0.000 N 
ATOM     21  C   UNL     1      -0.193  10.915  19.743  0.00  0.00    +0.000 C 
ATOM     22  O   UNL     1       0.697  11.689  19.377  0.00  0.00    +0.000 OA
ATOM     23  H   UNL     1      -0.641   9.119  20.669  0.00  0.00    +0.000 HD
BRANCH  21  24
ATOM     24  C   UNL     1      -1.650  11.333  19.757  0.00  0.00    +0.000 C 
BRANCH  24  25
ATOM     25  C   UNL     1      -2.340  11.128  18.432  0.00  0.00    +0.000 A 
ATOM     26  C   UNL     1      -1.811  10.240  17.484  0.00  0.00    +0.000 A 
ATOM     27  C   UNL     1      -2.485  10.011  16.286  0.00  0.00    +0.000 A 
ATOM     28  F   UNL     1      -1.973   9.148  15.399  0.00  0.00    +0.000 F 
ATOM     29  C   UNL     1      -3.682  10.650  16.003  0.00  0.00    +0.000 A 
ATOM     30  C   UNL     1      -4.202  11.533  16.939  0.00  0.00    +0.000 A 
ATOM     31  F   UNL     1      -5.362  12.153  16.686  0.00  0.00    +0.000 F 
ATOM     32  C   UNL     1      -3.549  11.777  18.146  0.00  0.00    +0.000 A 
ENDBRANCH  24  25
ENDBRANCH  21  24
ENDBRANCH  19  20
ENDBRANCH   1  19
TORSDOF 5
ENDMDL
MODEL 3
REMARK VINA RESULT:      -8.2      4.955      7.526
REMARK  Name = 
REMARK  7 active torsions:
REMARK  status: ('A' for Active; 'I' for Inactive)
REMARK    1  A    between atoms: C_1  and  C_2
REMARK    2  A    between atoms: C_2  and  N_3
REMARK    3  A    between atoms: C_2  and  C_15
REMARK    4  A    between atoms: C_4  and  C_6
REMARK    5  A    between atoms: C_6  and  C_7
REMARK    6  A    between atoms: N_17  and  C_18
REMARK    7  A    between atoms: N_21  and  C_22
REMARK                            x       y       z     vdW  Elec       q    Type
REMARK                         _______ _______ _______ _____ _____    ______ ____
ROOT
ATOM      1  C   UNL     1      -2.897  13.570  22.056  0.00  0.00    +0.000 C 
ATOM      2  O   UNL     1      -2.163  14.533  21.862  0.00  0.00    +0.000 OA
ATOM      3  N   UNL     1      -2.648  12.327  21.510  0.00  0.00    +0.000 N 
ATOM      4  H   UNL     1      -3.321  11.586  21.625  0.00  0.00    +0.000 HD
ENDROOT
BRANCH   3   5
ATOM      5  C   UNL     1      -1.441  12.052  20.703  0.00  0.00    +0.000 C 
ATOM      6  C   UNL     1      -0.565  11.198  21.649  0.00  0.00    +0.000 C 
ATOM      7  O   UNL     1      -0.273  11.570  22.786  0.00  0.00    +0.000 OA
ATOM      8  N   UNL     1      -0.330   9.896  21.186  0.00  0.00    +0.000 N 
ATOM      9  C   UNL     1      -0.268   8.851  22.188  0.00  0.00    +0.000 C 
ATOM     10  N   UNL     1       0.637   9.789  20.211  0.00  0.00    +0.000 NA
ATOM     11  C   UNL     1       0.298  10.158  19.016  0.00  0.00    +0.000 C 
ATOM     12  C   UNL     1      -1.036  10.608  18.594  0.00  0.00    +0.000 A 
ATOM     13  C   UNL     1      -1.481  10.080  17.371  0.00  0.00    +0.000 A 
ATOM     14  C   UNL     1      -2.754  10.383  16.896  0.00  0.00    +0.000 A 
ATOM     15  C   UNL     1      -3.556  11.264  17.608  0.00  0.00    +0.000 A 
ATOM     16  C   UNL     1      -3.097  11.815  18.804  0.00  0.00    +0.000 A 
ATOM     17  C   UNL     1      -1.852  11.453  19.362  0.00  0.00    +0.000 A 
ENDBRANCH   3   5
BRANCH   1  19
ATOM     18  C   UNL     1      -4.039  12.661  24.142  0.00  0.00    +0.000 C 
ATOM     19  C   UNL     1      -4.137  13.633  22.976  0.00  0.00    +0.000 C 
BRANCH  19  20
ATOM     20  N   UNL     1      -5.350  13.361  22.207  0.00  0.00    +0.000 N 
ATOM     21  C   UNL     1      -6.540  13.956  22.540  0.00  0.00    +0.000 C 
ATOM     22  O   UNL     1      -6.665  14.682  23.531  0.00  0.00    +0.000 OA
ATOM     23  H   UNL     1      -5.339  12.601  21.537  0.00  0.00    +0.000 HD
BRANCH  21  24
ATOM     24  C   UNL     1      -7.709  13.664  21.621  0.00  0.00    +0.000 C 
BRANCH  24  25
ATOM     25  C   UNL     1      -7.415  12.583  20.611  0.00  0.00    +0.000 A 
ATOM     26  C   UNL     1      -7.406  11.233  20.994  0.00  0.00    +0.000 A 
ATOM     27  C   UNL     1      -7.191  10.237  20.044  0.00  0.00    +0.000 A 
ATOM     28  F   UNL     1      -7.202   8.953  20.426  0.00  0.00    +0.000 F 
ATOM     29  C   UNL     1      -6.982  10.551  18.710  0.00  0.00    +0.000 A 
ATOM     30  C   UNL     1      -6.986  11.886  18.333  0.00  0.00    +0.000 A 
ATOM     31  F   UNL     1      -6.793  12.206  17.046  0.00  0.00    +0.000 F 
ATOM     32  C   UNL     1      -7.200  12.901  19.263  0.00  0.00    +0.000 A 
ENDBRANCH  24  25
ENDBRANCH  21  24
ENDBRANCH  19  20
ENDBRANCH   1  19
TORSDOF 5
ENDMDL
MODEL 4
REMARK VINA RESULT:      -8.1      1.028      1.134
REMARK  Name = 
REMARK  7 active torsions:
REMARK  status: ('A' for Active; 'I' for Inactive)
REMARK    1  A    between atoms: C_1  and  C_2
REMARK    2  A    between atoms: C_2  and  N_3
REMARK    3  A    between atoms: C_2  and  C_15
REMARK    4  A    between atoms: C_4  and  C_6
REMARK    5  A    between atoms: C_6  and  C_7
REMARK    6  A    between atoms: N_17  and  C_18
REMARK    7  A    between atoms: N_21  and  C_22
REMARK                            x       y       z     vdW  Elec       q    Type
REMARK                         _______ _______ _______ _____ _____    ______ ____
ROOT
ATOM      1  C   UNL     1       1.878   8.123  18.694  0.00  0.00    +0.000 C 
ATOM      2  O   UNL     1       1.606   8.407  17.532  0.00  0.00    +0.000 OA
ATOM      3  N   UNL     1       2.500   6.941  19.041  0.00  0.00    +0.000 N 
ATOM      4  H   UNL     1       2.629   6.710  20.013  0.00  0.00    +0.000 HD
ENDROOT
BRANCH   3   5
ATOM      5  C   UNL     1       2.942   5.960  18.028  0.00  0.00    +0.000 C 
ATOM      6  C   UNL     1       4.454   6.252  17.883  0.00  0.00    +0.000 C 
ATOM      7  O   UNL     1       4.882   7.380  17.636  0.00  0.00    +0.000 OA
ATOM      8  N   UNL     1       5.279   5.189  18.271  0.00  0.00    +0.000 N 
ATOM      9  C   UNL     1       6.527   5.537  18.919  0.00  0.00    +0.000 C 
ATOM     10  N   UNL     1       5.397   4.173  17.347  0.00  0.00    +0.000 NA
ATOM     11  C   UNL     1       4.391   3.363  17.246  0.00  0.00    +0.000 C 
ATOM     12  C   UNL     1       3.176   3.383  18.071  0.00  0.00    +0.000 A 
ATOM     13  C   UNL     1       2.737   2.124  18.512  0.00  0.00    +0.000 A 
ATOM     14  C   UNL     1       1.632   2.019  19.352  0.00  0.00    +0.000 A 
ATOM     15  C   UNL     1       0.927   3.163  19.699  0.00  0.00    +0.000 A 
ATOM     16  C   UNL     1       1.344   4.408  19.230  0.00  0.00    +0.000 A 
ATOM     17  C   UNL     1       2.515   4.560  18.456  0.00  0.00    +0.000 A 
ENDBRANCH   3   5
BRANCH   1  19
ATOM     18  C   UNL     1       0.853   8.398  21.008  0.00  0.00    +0.000 C 
ATOM     19  C   UNL     1       1.607   9.080  19.876  0.00  0.00    +0.000 C 
BRANCH  19  20
ATOM     20  N   UNL     1       0.859  10.249  19.417  0.00  0.00    +0.000 N 
ATOM     21  C   UNL     1       0.837  11.403  20.158  0.00  0.00    +0.000 C 
ATOM     22  O   UNL     1       1.378  11.492  21.265  0.00  0.00    +0.000 OA
ATOM     23  H   UNL     1       0.220  10.141  18.639  0.00  0.00    +0.000 HD
BRANCH  21  24
ATOM     24  C   UNL     1       0.098  12.574  19.542  0.00  0.00    +0.000 C 
BRANCH  24  25
ATOM     25  C   UNL     1      -1.347  12.271  19.239  0.00  0.00    +0.000 A 
ATOM     26  C   UNL     1      -2.346  12.548  20.185  0.00  0.00    +0.000 A 
ATOM     27  C   UNL     1      -3.686  12.320  19.877  0.00  0.00    +0.000 A 
ATOM     28  F   UNL     1      -4.626  12.605  20.786  0.00  0.00    +0.000 F 
ATOM     29  C   UNL     1      -4.062  11.818  18.640  0.00  0.00    +0.000 A 
ATOM     30  C   UNL     1      -3.074  11.540  17.707  0.00  0.00    +0.000 A 
ATOM     31  F   UNL     1      -3.420  11.062  16.504  0.00  0.00    +0.000 F 
ATOM     32  C   UNL     1      -1.727  11.761  17.990  0.00  0.00    +0.000 A 
ENDBRANCH  24  25
ENDBRANCH  21  24
ENDBRANCH  19  20
ENDBRANCH   1  19
TORSDOF 5
ENDMDL
MODEL 5
REMARK VINA RESULT:      -8.1      1.780      2.520
REMARK  Name = 
REMARK  7 active torsions:
REMARK  status: ('A' for Active; 'I' for Inactive)
REMARK    1  A    between atoms: C_1  and  C_2
REMARK    2  A    between atoms: C_2  and  N_3
REMARK    3  A    between atoms: C_2  and  C_15
REMARK    4  A    between atoms: C_4  and  C_6
REMARK    5  A    between atoms: C_6  and  C_7
REMARK    6  A    between atoms: N_17  and  C_18
REMARK    7  A    between atoms: N_21  and  C_22
REMARK                            x       y       z     vdW  Elec       q    Type
REMARK                         _______ _______ _______ _____ _____    ______ ____
ROOT
ATOM      1  C   UNL     1       2.080   8.124  18.444  0.00  0.00    +0.000 C 
ATOM      2  O   UNL     1       2.012   8.548  17.294  0.00  0.00    +0.000 OA
ATOM      3  N   UNL     1       2.603   6.883  18.745  0.00  0.00    +0.000 N 
ATOM      4  H   UNL     1       2.563   6.539  19.691  0.00  0.00    +0.000 HD
ENDROOT
BRANCH   3   5
ATOM      5  C   UNL     1       3.180   6.001  17.708  0.00  0.00    +0.000 C 
ATOM      6  C   UNL     1       4.692   6.317  17.770  0.00  0.00    +0.000 C 
ATOM      7  O   UNL     1       5.125   7.467  17.677  0.00  0.00    +0.000 OA
ATOM      8  N   UNL     1       5.486   5.230  18.157  0.00  0.00    +0.000 N 
ATOM      9  C   UNL     1       6.642   5.528  18.978  0.00  0.00    +0.000 C 
ATOM     10  N   UNL     1       5.730   4.303  17.168  0.00  0.00    +0.000 NA
ATOM     11  C   UNL     1       4.759   3.497  16.876  0.00  0.00    +0.000 C 
ATOM     12  C   UNL     1       3.454   3.433  17.550  0.00  0.00    +0.000 A 
ATOM     13  C   UNL     1       2.990   2.135  17.822  0.00  0.00    +0.000 A 
ATOM     14  C   UNL     1       1.797   1.946  18.513  0.00  0.00    +0.000 A 
ATOM     15  C   UNL     1       1.035   3.049  18.874  0.00  0.00    +0.000 A 
ATOM     16  C   UNL     1       1.480   4.334  18.570  0.00  0.00    +0.000 A 
ATOM     17  C   UNL     1       2.731   4.564  17.957  0.00  0.00    +0.000 A 
ENDBRANCH   3   5
BRANCH   1  19
ATOM     18  C   UNL     1       1.407   8.089  20.899  0.00  0.00    +0.000 C 
ATOM     19  C   UNL     1       1.644   8.955  19.671  0.00  0.00    +0.000 C 
BRANCH  19  20
ATOM     20  N   UNL     1       0.435   9.715  19.361  0.00  0.00    +0.000 N 
ATOM     21  C   UNL     1       0.500  11.058  19.087  0.00  0.00    +0.000 C 
ATOM     22  O   UNL     1       1.553  11.699  19.156  0.00  0.00    +0.000 OA
ATOM     23  H   UNL     1      -0.466   9.279  19.521  0.00  0.00    +0.000 HD
BRANCH  21  24
ATOM     24  C   UNL     1      -0.806  11.720  18.699  0.00  0.00    +0.000 C 
BRANCH  24  25
ATOM     25  C   UNL     1      -1.693  12.023  19.880  0.00  0.00    +0.000 A 
ATOM     26  C   UNL     1      -1.184  11.963  21.187  0.00  0.00    +0.000 A 
ATOM     27  C   UNL     1      -1.993  12.301  22.269  0.00  0.00    +0.000 A 
ATOM     28  F   UNL     1      -1.486  12.253  23.508  0.00  0.00    +0.000 F 
ATOM     29  C   UNL     1      -3.308  12.700  22.085  0.00  0.00    +0.000 A 
ATOM     30  C   UNL     1      -3.812  12.755  20.794  0.00  0.00    +0.000 A 
ATOM     31  F   UNL     1      -5.079  13.146  20.598  0.00  0.00    +0.000 F 
ATOM     32  C   UNL     1      -3.023  12.424  19.694  0.00  0.00    +0.000 A 
ENDBRANCH  24  25
ENDBRANCH  21  24
ENDBRANCH  19  20
ENDBRANCH   1  19
TORSDOF 5
ENDMDL
MODEL 6
REMARK VINA RESULT:      -8.0      1.784      2.497
REMARK  Name = 
REMARK  7 active torsions:
REMARK  status: ('A' for Active; 'I' for Inactive)
REMARK    1  A    between atoms: C_1  and  C_2
REMARK    2  A    between atoms: C_2  and  N_3
REMARK    3  A    between atoms: C_2  and  C_15
REMARK    4  A    between atoms: C_4  and  C_6
REMARK    5  A    between atoms: C_6  and  C_7
REMARK    6  A    between atoms: N_17  and  C_18
REMARK    7  A    between atoms: N_21  and  C_22
REMARK                            x       y       z     vdW  Elec       q    Type
REMARK                         _______ _______ _______ _____ _____    ______ ____
ROOT
ATOM      1  C   UNL     1       1.905   8.037  18.578  0.00  0.00    +0.000 C 
ATOM      2  O   UNL     1       1.689   8.369  17.417  0.00  0.00    +0.000 OA
ATOM      3  N   UNL     1       2.534   6.854  18.905  0.00  0.00    +0.000 N 
ATOM      4  H   UNL     1       2.616   6.580  19.871  0.00  0.00    +0.000 HD
ENDROOT
BRANCH   3   5
ATOM      5  C   UNL     1       3.054   5.930  17.874  0.00  0.00    +0.000 C 
ATOM      6  C   UNL     1       4.567   6.245  17.841  0.00  0.00    +0.000 C 
ATOM      7  O   UNL     1       4.995   7.388  17.680  0.00  0.00    +0.000 OA
ATOM      8  N   UNL     1       5.381   5.171  18.228  0.00  0.00    +0.000 N 
ATOM      9  C   UNL     1       6.580   5.499  18.971  0.00  0.00    +0.000 C 
ATOM     10  N   UNL     1       5.571   4.206  17.264  0.00  0.00    +0.000 NA
ATOM     11  C   UNL     1       4.585   3.391  17.057  0.00  0.00    +0.000 C 
ATOM     12  C   UNL     1       3.319   3.356  17.803  0.00  0.00    +0.000 A 
ATOM     13  C   UNL     1       2.870   2.072  18.151  0.00  0.00    +0.000 A 
ATOM     14  C   UNL     1       1.716   1.913  18.912  0.00  0.00    +0.000 A 
ATOM     15  C   UNL     1       0.975   3.031  19.270  0.00  0.00    +0.000 A 
ATOM     16  C   UNL     1       1.404   4.302  18.892  0.00  0.00    +0.000 A 
ATOM     17  C   UNL     1       2.619   4.505  18.204  0.00  0.00    +0.000 A 
ENDBRANCH   3   5
BRANCH   1  19
ATOM     18  C   UNL     1       1.321   8.124  21.055  0.00  0.00    +0.000 C 
ATOM     19  C   UNL     1       1.548   8.932  19.786  0.00  0.00    +0.000 C 
BRANCH  19  20
ATOM     20  N   UNL     1       0.361   9.730  19.489  0.00  0.00    +0.000 N 
ATOM     21  C   UNL     1       0.467  11.068  19.206  0.00  0.00    +0.000 C 
ATOM     22  O   UNL     1       1.541  11.674  19.256  0.00  0.00    +0.000 OA
ATOM     23  H   UNL     1      -0.552   9.326  19.664  0.00  0.00    +0.000 HD
BRANCH  21  24
ATOM     24  C   UNL     1      -0.822  11.772  18.832  0.00  0.00    +0.000 C 
BRANCH  24  25
ATOM     25  C   UNL     1      -1.684  12.107  20.023  0.00  0.00    +0.000 A 
ATOM     26  C   UNL     1      -3.019  12.501  19.848  0.00  0.00    +0.000 A 
ATOM     27  C   UNL     1      -3.826  12.753  20.956  0.00  0.00    +0.000 A 
ATOM     28  F   UNL     1      -5.102  13.113  20.769  0.00  0.00    +0.000 F 
ATOM     29  C   UNL     1      -3.334  12.622  22.246  0.00  0.00    +0.000 A 
ATOM     30  C   UNL     1      -2.013  12.237  22.418  0.00  0.00    +0.000 A 
ATOM     31  F   UNL     1      -1.524  12.099  23.658  0.00  0.00    +0.000 F 
ATOM     32  C   UNL     1      -1.186  11.978  21.327  0.00  0.00    +0.000 A 
ENDBRANCH  24  25
ENDBRANCH  21  24
ENDBRANCH  19  20
ENDBRANCH   1  19
TORSDOF 5
ENDMDL
MODEL 7
REMARK VINA RESULT:      -8.0      2.895      3.575
REMARK  Name = 
REMARK  7 active torsions:
REMARK  status: ('A' for Active; 'I' for Inactive)
REMARK    1  A    between atoms: C_1  and  C_2
REMARK    2  A    between atoms: C_2  and  N_3
REMARK    3  A    between atoms: C_2  and  C_15
REMARK    4  A    between atoms: C_4  and  C_6
REMARK    5  A    between atoms: C_6  and  C_7
REMARK    6  A    between atoms: N_17  and  C_18
REMARK    7  A    between atoms: N_21  and  C_22
REMARK                            x       y       z     vdW  Elec       q    Type
REMARK                         _______ _______ _______ _____ _____    ______ ____
ROOT
ATOM      1  C   UNL     1       1.891   8.069  18.762  0.00  0.00    +0.000 C 
ATOM      2  O   UNL     1       1.627   8.404  17.612  0.00  0.00    +0.000 OA
ATOM      3  N   UNL     1       2.510   6.872  19.061  0.00  0.00    +0.000 N 
ATOM      4  H   UNL     1       2.632   6.598  20.022  0.00  0.00    +0.000 HD
ENDROOT
BRANCH   3   5
ATOM      5  C   UNL     1       2.957   5.935  18.008  0.00  0.00    +0.000 C 
ATOM      6  C   UNL     1       4.465   6.246  17.870  0.00  0.00    +0.000 C 
ATOM      7  O   UNL     1       4.884   7.387  17.667  0.00  0.00    +0.000 OA
ATOM      8  N   UNL     1       5.301   5.175  18.213  0.00  0.00    +0.000 N 
ATOM      9  C   UNL     1       6.548   5.508  18.871  0.00  0.00    +0.000 C 
ATOM     10  N   UNL     1       5.424   4.198  17.250  0.00  0.00    +0.000 NA
ATOM     11  C   UNL     1       4.425   3.383  17.120  0.00  0.00    +0.000 C 
ATOM     12  C   UNL     1       3.212   3.361  17.950  0.00  0.00    +0.000 A 
ATOM     13  C   UNL     1       2.785   2.081  18.342  0.00  0.00    +0.000 A 
ATOM     14  C   UNL     1       1.685   1.934  19.180  0.00  0.00    +0.000 A 
ATOM     15  C   UNL     1       0.971   3.058  19.574  0.00  0.00    +0.000 A 
ATOM     16  C   UNL     1       1.376   4.323  19.153  0.00  0.00    +0.000 A 
ATOM     17  C   UNL     1       2.543   4.516  18.383  0.00  0.00    +0.000 A 
ENDBRANCH   3   5
BRANCH   1  19
ATOM     18  C   UNL     1       0.897   8.231  21.100  0.00  0.00    +0.000 C 
ATOM     19  C   UNL     1       1.615   8.974  19.983  0.00  0.00    +0.000 C 
BRANCH  19  20
ATOM     20  N   UNL     1       0.830  10.139  19.580  0.00  0.00    +0.000 N 
ATOM     21  C   UNL     1       0.839  11.286  20.332  0.00  0.00    +0.000 C 
ATOM     22  O   UNL     1       1.443  11.371  21.406  0.00  0.00    +0.000 OA
ATOM     23  H   UNL     1       0.148  10.031  18.839  0.00  0.00    +0.000 HD
BRANCH  21  24
ATOM     24  C   UNL     1       0.054  12.454  19.771  0.00  0.00    +0.000 C 
BRANCH  24  25
ATOM     25  C   UNL     1       0.931  13.549  19.218  0.00  0.00    +0.000 A 
ATOM     26  C   UNL     1       0.479  14.877  19.189  0.00  0.00    +0.000 A 
ATOM     27  C   UNL     1       1.316  15.892  18.731  0.00  0.00    +0.000 A 
ATOM     28  F   UNL     1       0.873  17.156  18.725  0.00  0.00    +0.000 F 
ATOM     29  C   UNL     1       2.604  15.618  18.296  0.00  0.00    +0.000 A 
ATOM     30  C   UNL     1       3.049  14.304  18.321  0.00  0.00    +0.000 A 
ATOM     31  F   UNL     1       4.293  14.023  17.911  0.00  0.00    +0.000 F 
ATOM     32  C   UNL     1       2.231  13.271  18.776  0.00  0.00    +0.000 A 
ENDBRANCH  24  25
ENDBRANCH  21  24
ENDBRANCH  19  20
ENDBRANCH   1  19
TORSDOF 5
ENDMDL
MODEL 8
REMARK VINA RESULT:      -8.0      1.002      1.106
REMARK  Name = 
REMARK  7 active torsions:
REMARK  status: ('A' for Active; 'I' for Inactive)
REMARK    1  A    between atoms: C_1  and  C_2
REMARK    2  A    between atoms: C_2  and  N_3
REMARK    3  A    between atoms: C_2  and  C_15
REMARK    4  A    between atoms: C_4  and  C_6
REMARK    5  A    between atoms: C_6  and  C_7
REMARK    6  A    between atoms: N_17  and  C_18
REMARK    7  A    between atoms: N_21  and  C_22
REMARK                            x       y       z     vdW  Elec       q    Type
REMARK                         _______ _______ _______ _____ _____    ______ ____
ROOT
ATOM      1  C   UNL     1       1.984   8.096  18.744  0.00  0.00    +0.000 C 
ATOM      2  O   UNL     1       1.617   8.382  17.608  0.00  0.00    +0.000 OA
ATOM      3  N   UNL     1       2.628   6.911  19.037  0.00  0.00    +0.000 N 
ATOM      4  H   UNL     1       2.836   6.679  19.995  0.00  0.00    +0.000 HD
ENDROOT
BRANCH   3   5
ATOM      5  C   UNL     1       2.981   5.930  17.990  0.00  0.00    +0.000 C 
ATOM      6  C   UNL     1       4.491   6.175  17.763  0.00  0.00    +0.000 C 
ATOM      7  O   UNL     1       4.941   7.292  17.505  0.00  0.00    +0.000 OA
ATOM      8  N   UNL     1       5.302   5.081  18.092  0.00  0.00    +0.000 N 
ATOM      9  C   UNL     1       6.595   5.381  18.673  0.00  0.00    +0.000 C 
ATOM     10  N   UNL     1       5.335   4.074  17.152  0.00  0.00    +0.000 NA
ATOM     11  C   UNL     1       4.299   3.297  17.099  0.00  0.00    +0.000 C 
ATOM     12  C   UNL     1       3.133   3.346  17.992  0.00  0.00    +0.000 A 
ATOM     13  C   UNL     1       2.679   2.096  18.443  0.00  0.00    +0.000 A 
ATOM     14  C   UNL     1       1.620   2.016  19.343  0.00  0.00    +0.000 A 
ATOM     15  C   UNL     1       0.973   3.177  19.741  0.00  0.00    +0.000 A 
ATOM     16  C   UNL     1       1.403   4.414  19.263  0.00  0.00    +0.000 A 
ATOM     17  C   UNL     1       2.533   4.538  18.427  0.00  0.00    +0.000 A 
ENDBRANCH   3   5
BRANCH   1  19
ATOM     18  C   UNL     1       1.301   8.336  21.184  0.00  0.00    +0.000 C 
ATOM     19  C   UNL     1       1.816   9.053  19.945  0.00  0.00    +0.000 C 
BRANCH  19  20
ATOM     20  N   UNL     1       0.913  10.147  19.595  0.00  0.00    +0.000 N 
ATOM     21  C   UNL     1      -0.409  10.110  19.960  0.00  0.00    +0.000 C 
ATOM     22  O   UNL     1      -0.914   9.138  20.529  0.00  0.00    +0.000 OA
ATOM     23  H   UNL     1       1.232  10.847  18.935  0.00  0.00    +0.000 HD
BRANCH  21  24
ATOM     24  C   UNL     1      -1.227  11.338  19.615  0.00  0.00    +0.000 C 
BRANCH  24  25
ATOM     25  C   UNL     1      -2.201  11.106  18.488  0.00  0.00    +0.000 A 
ATOM     26  C   UNL     1      -3.446  11.755  18.477  0.00  0.00    +0.000 A 
ATOM     27  C   UNL     1      -4.317  11.581  17.404  0.00  0.00    +0.000 A 
ATOM     28  F   UNL     1      -5.494  12.220  17.403  0.00  0.00    +0.000 F 
ATOM     29  C   UNL     1      -3.979  10.771  16.330  0.00  0.00    +0.000 A 
ATOM     30  C   UNL     1      -2.751  10.126  16.344  0.00  0.00    +0.000 A 
ATOM     31  F   UNL     1      -2.406   9.346  15.311  0.00  0.00    +0.000 F 
ATOM     32  C   UNL     1      -1.861  10.285  17.405  0.00  0.00    +0.000 A 
ENDBRANCH  24  25
ENDBRANCH  21  24
ENDBRANCH  19  20
ENDBRANCH   1  19
TORSDOF 5
ENDMDL
MODEL 9
REMARK VINA RESULT:      -8.0      2.871      3.802
REMARK  Name = 
REMARK  7 active torsions:
REMARK  status: ('A' for Active; 'I' for Inactive)
REMARK    1  A    between atoms: C_1  and  C_2
REMARK    2  A    between atoms: C_2  and  N_3
REMARK    3  A    between atoms: C_2  and  C_15
REMARK    4  A    between atoms: C_4  and  C_6
REMARK    5  A    between atoms: C_6  and  C_7
REMARK    6  A    between atoms: N_17  and  C_18
REMARK    7  A    between atoms: N_21  and  C_22
REMARK                            x       y       z     vdW  Elec       q    Type
REMARK                         _______ _______ _______ _____ _____    ______ ____
ROOT
ATOM      1  C   UNL     1       1.906   8.073  18.752  0.00  0.00    +0.000 C 
ATOM      2  O   UNL     1       1.664   8.425  17.602  0.00  0.00    +0.000 OA
ATOM      3  N   UNL     1       2.503   6.865  19.047  0.00  0.00    +0.000 N 
ATOM      4  H   UNL     1       2.607   6.579  20.007  0.00  0.00    +0.000 HD
ENDROOT
BRANCH   3   5
ATOM      5  C   UNL     1       2.955   5.934  17.991  0.00  0.00    +0.000 C 
ATOM      6  C   UNL     1       4.464   6.245  17.860  0.00  0.00    +0.000 C 
ATOM      7  O   UNL     1       4.882   7.387  17.664  0.00  0.00    +0.000 OA
ATOM      8  N   UNL     1       5.298   5.173  18.200  0.00  0.00    +0.000 N 
ATOM      9  C   UNL     1       6.543   5.503  18.864  0.00  0.00    +0.000 C 
ATOM     10  N   UNL     1       5.425   4.201  17.232  0.00  0.00    +0.000 NA
ATOM     11  C   UNL     1       4.426   3.387  17.094  0.00  0.00    +0.000 C 
ATOM     12  C   UNL     1       3.211   3.359  17.919  0.00  0.00    +0.000 A 
ATOM     13  C   UNL     1       2.783   2.078  18.303  0.00  0.00    +0.000 A 
ATOM     14  C   UNL     1       1.679   1.926  19.137  0.00  0.00    +0.000 A 
ATOM     15  C   UNL     1       0.964   3.047  19.535  0.00  0.00    +0.000 A 
ATOM     16  C   UNL     1       1.370   4.316  19.122  0.00  0.00    +0.000 A 
ATOM     17  C   UNL     1       2.540   4.512  18.356  0.00  0.00    +0.000 A 
ENDBRANCH   3   5
BRANCH   1  19
ATOM     18  C   UNL     1       0.920   8.210  21.095  0.00  0.00    +0.000 C 
ATOM     19  C   UNL     1       1.623   8.968  19.979  0.00  0.00    +0.000 C 
BRANCH  19  20
ATOM     20  N   UNL     1       0.819  10.124  19.585  0.00  0.00    +0.000 N 
ATOM     21  C   UNL     1       0.808  11.264  20.348  0.00  0.00    +0.000 C 
ATOM     22  O   UNL     1       1.407  11.348  21.425  0.00  0.00    +0.000 OA
ATOM     23  H   UNL     1       0.141  10.012  18.841  0.00  0.00    +0.000 HD
BRANCH  21  24
ATOM     24  C   UNL     1       0.005  12.424  19.797  0.00  0.00    +0.000 C 
BRANCH  24  25
ATOM     25  C   UNL     1       0.863  13.570  19.325  0.00  0.00    +0.000 A 
ATOM     26  C   UNL     1       2.161  13.337  18.844  0.00  0.00    +0.000 A 
ATOM     27  C   UNL     1       2.927  14.394  18.356  0.00  0.00    +0.000 A 
ATOM     28  F   UNL     1       4.158  14.150  17.887  0.00  0.00    +0.000 F 
ATOM     29  C   UNL     1       2.432  15.689  18.334  0.00  0.00    +0.000 A 
ATOM     30  C   UNL     1       1.152  15.920  18.815  0.00  0.00    +0.000 A 
ATOM     31  F   UNL     1       0.655  17.164  18.794  0.00  0.00    +0.000 F 
ATOM     32  C   UNL     1       0.364  14.880  19.307  0.00  0.00    +0.000 A 
ENDBRANCH  24  25
ENDBRANCH  21  24
ENDBRANCH  19  20
ENDBRANCH   1  19
TORSDOF 5
ENDMDL
