MODEL 1
REMARK VINA RESULT:      -6.5      0.000      0.000
REMARK  Name = 
REMARK  6 active torsions:
REMARK  status: ('A' for Active; 'I' for Inactive)
REMARK    1  A    between atoms: C_1  and  N_2
REMARK    2  A    between atoms: N_2  and  C_3
REMARK    3  A    between atoms: C_9  and  O_10
REMARK    4  A    between atoms: C_11  and  C_12
REMARK    5  A    between atoms: C_12  and  C_13
REMARK    6  A    between atoms: N_16  and  C_17
REMARK                            x       y       z     vdW  Elec       q    Type
REMARK                         _______ _______ _______ _____ _____    ______ ____
ROOT
ATOM      1  C   UNL     1       1.964   7.745  19.737  0.00  0.00    +0.000 C 
ATOM      2  N   UNL     1       2.478   6.498  19.180  0.00  0.00    +0.000 N 
ATOM      3  C   UNL     1       2.618   6.471  17.736  0.00  0.00    +0.000 C 
ATOM      4  C   UNL     1       2.420   5.406  20.023  0.00  0.00    +0.000 C 
ATOM      5  O   UNL     1       1.928   5.524  21.149  0.00  0.00    +0.000 OA
ATOM      6  N   UNL     1       2.891   4.176  19.625  0.00  0.00    +0.000 N 
ATOM      7  C   UNL     1       2.667   3.050  20.534  0.00  0.00    +0.000 C 
ATOM      8  C   UNL     1       3.456   1.876  19.970  0.00  0.00    +0.000 C 
ATOM      9  C   UNL     1       3.593   2.227  18.498  0.00  0.00    +0.000 C 
ATOM     10  C   UNL     1       3.760   3.761  18.506  0.00  0.00    +0.000 C 
ENDROOT
BRANCH   9  11
ATOM     11  O   UNL     1       2.382   1.869  17.818  0.00  0.00    +0.000 OA
ATOM     12  H   UNL     1       1.865   2.686  17.689  0.00  0.00    +0.000 HD
ENDBRANCH   9  11
BRANCH  10  13
ATOM     13  C   UNL     1       5.221   4.211  18.717  0.00  0.00    +0.000 C 
BRANCH  13  14
ATOM     14  C   UNL     1       5.990   4.303  17.441  0.00  0.00    +0.000 A 
ATOM     15  C   UNL     1       7.366   4.585  17.268  0.00  0.00    +0.000 A 
ATOM     16  N   UNL     1       7.728   4.620  15.986  0.00  0.00    +0.000 NA
ATOM     17  N   UNL     1       6.586   4.359  15.326  0.00  0.00    +0.000 N 
ATOM     18  C   UNL     1       6.577   4.317  13.883  0.00  0.00    +0.000 C 
ATOM     19  C   UNL     1       5.520   4.153  16.152  0.00  0.00    +0.000 A 
ENDBRANCH  13  14
ENDBRANCH  10  13
TORSDOF 3
ENDMDL
MODEL 2
REMARK VINA RESULT:      -6.3      1.046      1.119
REMARK  Name = 
REMARK  6 active torsions:
REMARK  status: ('A' for Active; 'I' for Inactive)
REMARK    1  A    between atoms: C_1  and  N_2
REMARK    2  A    between atoms: N_2  and  C_3
REMARK    3  A    between atoms: C_9  and  O_10
REMARK    4  A    between atoms: C_11  and  C_12
REMARK    5  A    between atoms: C_12  and  C_13
REMARK    6  A    between atoms: N_16  and  C_17
REMARK                            x       y       z     vdW  Elec       q    Type
REMARK                         _______ _______ _______ _____ _____    ______ ____
ROOT
ATOM      1  C   UNL     1       1.557   8.477  20.306  0.00  0.00    +0.000 C 
ATOM      2  N   UNL     1       2.124   7.447  19.442  0.00  0.00    +0.000 N 
ATOM      3  C   UNL     1       2.230   7.799  18.038  0.00  0.00    +0.000 C 
ATOM      4  C   UNL     1       2.145   6.173  19.976  0.00  0.00    +0.000 C 
ATOM      5  O   UNL     1       1.673   5.969  21.099  0.00  0.00    +0.000 OA
ATOM      6  N   UNL     1       2.671   5.115  19.271  0.00  0.00    +0.000 N 
ATOM      7  C   UNL     1       2.530   3.783  19.861  0.00  0.00    +0.000 C 
ATOM      8  C   UNL     1       3.366   2.841  19.007  0.00  0.00    +0.000 C 
ATOM      9  C   UNL     1       3.449   3.565  17.674  0.00  0.00    +0.000 C 
ATOM     10  C   UNL     1       3.534   5.053  18.074  0.00  0.00    +0.000 C 
ENDROOT
BRANCH   9  11
ATOM     11  O   UNL     1       2.244   3.324  16.935  0.00  0.00    +0.000 OA
ATOM     12  H   UNL     1       2.242   3.928  16.169  0.00  0.00    +0.000 HD
ENDBRANCH   9  11
BRANCH  10  13
ATOM     13  C   UNL     1       4.973   5.517  18.380  0.00  0.00    +0.000 C 
BRANCH  13  14
ATOM     14  C   UNL     1       5.934   5.189  17.286  0.00  0.00    +0.000 A 
ATOM     15  C   UNL     1       7.194   4.554  17.391  0.00  0.00    +0.000 A 
ATOM     16  N   UNL     1       7.812   4.437  16.216  0.00  0.00    +0.000 NA
ATOM     17  N   UNL     1       6.951   4.993  15.347  0.00  0.00    +0.000 N 
ATOM     18  C   UNL     1       7.279   5.060  13.943  0.00  0.00    +0.000 C 
ATOM     19  C   UNL     1       5.808   5.450  15.937  0.00  0.00    +0.000 A 
ENDBRANCH  13  14
ENDBRANCH  10  13
TORSDOF 3
ENDMDL
MODEL 3
REMARK VINA RESULT:      -6.3      0.932      1.103
REMARK  Name = 
REMARK  6 active torsions:
REMARK  status: ('A' for Active; 'I' for Inactive)
REMARK    1  A    between atoms: C_1  and  N_2
REMARK    2  A    between atoms: N_2  and  C_3
REMARK    3  A    between atoms: C_9  and  O_10
REMARK    4  A    between atoms: C_11  and  C_12
REMARK    5  A    between atoms: C_12  and  C_13
REMARK    6  A    between atoms: N_16  and  C_17
REMARK                            x       y       z     vdW  Elec       q    Type
REMARK                         _______ _______ _______ _____ _____    ______ ____
ROOT
ATOM      1  C   UNL     1       1.905   7.193  20.579  0.00  0.00    +0.000 C 
ATOM      2  N   UNL     1       2.357   6.148  19.666  0.00  0.00    +0.000 N 
ATOM      3  C   UNL     1       2.205   6.444  18.253  0.00  0.00    +0.000 C 
ATOM      4  C   UNL     1       2.523   4.900  20.233  0.00  0.00    +0.000 C 
ATOM      5  O   UNL     1       2.261   4.726  21.427  0.00  0.00    +0.000 OA
ATOM      6  N   UNL     1       2.964   3.833  19.484  0.00  0.00    +0.000 N 
ATOM      7  C   UNL     1       2.984   2.522  20.137  0.00  0.00    +0.000 C 
ATOM      8  C   UNL     1       3.700   1.576  19.183  0.00  0.00    +0.000 C 
ATOM      9  C   UNL     1       3.521   2.246  17.832  0.00  0.00    +0.000 C 
ATOM     10  C   UNL     1       3.611   3.751  18.159  0.00  0.00    +0.000 C 
ENDROOT
BRANCH   9  11
ATOM     11  O   UNL     1       2.218   1.931  17.322  0.00  0.00    +0.000 OA
ATOM     12  H   UNL     1       1.565   2.231  17.981  0.00  0.00    +0.000 HD
ENDBRANCH   9  11
BRANCH  10  13
ATOM     13  C   UNL     1       5.060   4.278  18.194  0.00  0.00    +0.000 C 
BRANCH  13  14
ATOM     14  C   UNL     1       5.527   4.784  16.869  0.00  0.00    +0.000 A 
ATOM     15  C   UNL     1       5.346   6.072  16.313  0.00  0.00    +0.000 A 
ATOM     16  N   UNL     1       5.867   6.183  15.091  0.00  0.00    +0.000 NA
ATOM     17  N   UNL     1       6.389   4.968  14.855  0.00  0.00    +0.000 N 
ATOM     18  C   UNL     1       7.049   4.692  13.602  0.00  0.00    +0.000 C 
ATOM     19  C   UNL     1       6.219   4.097  15.893  0.00  0.00    +0.000 A 
ENDBRANCH  13  14
ENDBRANCH  10  13
TORSDOF 3
ENDMDL
MODEL 4
REMARK VINA RESULT:      -6.1      1.432      1.893
REMARK  Name = 
REMARK  6 active torsions:
REMARK  status: ('A' for Active; 'I' for Inactive)
REMARK    1  A    between atoms: C_1  and  N_2
REMARK    2  A    between atoms: N_2  and  C_3
REMARK    3  A    between atoms: C_9  and  O_10
REMARK    4  A    between atoms: C_11  and  C_12
REMARK    5  A    between atoms: C_12  and  C_13
REMARK    6  A    between atoms: N_16  and  C_17
REMARK                            x       y       z     vdW  Elec       q    Type
REMARK                         _______ _______ _______ _____ _____    ______ ____
ROOT
ATOM      1  C   UNL     1       1.904   7.553  20.381  0.00  0.00    +0.000 C 
ATOM      2  N   UNL     1       2.462   6.496  19.543  0.00  0.00    +0.000 N 
ATOM      3  C   UNL     1       2.917   6.915  18.230  0.00  0.00    +0.000 C 
ATOM      4  C   UNL     1       2.160   5.208  19.939  0.00  0.00    +0.000 C 
ATOM      5  O   UNL     1       1.437   5.019  20.922  0.00  0.00    +0.000 OA
ATOM      6  N   UNL     1       2.641   4.121  19.246  0.00  0.00    +0.000 N 
ATOM      7  C   UNL     1       2.163   2.800  19.659  0.00  0.00    +0.000 C 
ATOM      8  C   UNL     1       2.993   1.780  18.893  0.00  0.00    +0.000 C 
ATOM      9  C   UNL     1       3.471   2.564  17.682  0.00  0.00    +0.000 C 
ATOM     10  C   UNL     1       3.714   3.982  18.240  0.00  0.00    +0.000 C 
ENDROOT
BRANCH   9  11
ATOM     11  O   UNL     1       2.425   2.595  16.702  0.00  0.00    +0.000 OA
ATOM     12  H   UNL     1       2.144   1.674  16.543  0.00  0.00    +0.000 HD
ENDBRANCH   9  11
BRANCH  10  13
ATOM     13  C   UNL     1       5.114   4.155  18.867  0.00  0.00    +0.000 C 
BRANCH  13  14
ATOM     14  C   UNL     1       5.968   5.125  18.120  0.00  0.00    +0.000 A 
ATOM     15  C   UNL     1       6.440   5.029  16.790  0.00  0.00    +0.000 A 
ATOM     16  N   UNL     1       7.207   6.062  16.440  0.00  0.00    +0.000 NA
ATOM     17  N   UNL     1       7.231   6.829  17.543  0.00  0.00    +0.000 N 
ATOM     18  C   UNL     1       7.983   8.060  17.553  0.00  0.00    +0.000 C 
ATOM     19  C   UNL     1       6.497   6.315  18.573  0.00  0.00    +0.000 A 
ENDBRANCH  13  14
ENDBRANCH  10  13
TORSDOF 3
ENDMDL
MODEL 5
REMARK VINA RESULT:      -6.1      2.384      3.808
REMARK  Name = 
REMARK  6 active torsions:
REMARK  status: ('A' for Active; 'I' for Inactive)
REMARK    1  A    between atoms: C_1  and  N_2
REMARK    2  A    between atoms: N_2  and  C_3
REMARK    3  A    between atoms: C_9  and  O_10
REMARK    4  A    between atoms: C_11  and  C_12
REMARK    5  A    between atoms: C_12  and  C_13
REMARK    6  A    between atoms: N_16  and  C_17
REMARK                            x       y       z     vdW  Elec       q    Type
REMARK                         _______ _______ _______ _____ _____    ______ ____
ROOT
ATOM      1  C   UNL     1       1.863   4.150  18.733  0.00  0.00    +0.000 C 
ATOM      2  N   UNL     1       3.192   4.146  18.131  0.00  0.00    +0.000 N 
ATOM      3  C   UNL     1       3.551   2.934  17.417  0.00  0.00    +0.000 C 
ATOM      4  C   UNL     1       4.060   5.107  18.608  0.00  0.00    +0.000 C 
ATOM      5  O   UNL     1       3.697   5.872  19.508  0.00  0.00    +0.000 OA
ATOM      6  N   UNL     1       5.338   5.223  18.110  0.00  0.00    +0.000 N 
ATOM      7  C   UNL     1       6.227   6.182  18.767  0.00  0.00    +0.000 C 
ATOM      8  C   UNL     1       7.480   6.269  17.907  0.00  0.00    +0.000 C 
ATOM      9  C   UNL     1       7.476   4.949  17.156  0.00  0.00    +0.000 C 
ATOM     10  C   UNL     1       5.979   4.685  16.893  0.00  0.00    +0.000 C 
ENDROOT
BRANCH   9  11
ATOM     11  O   UNL     1       8.012   3.926  18.006  0.00  0.00    +0.000 OA
ATOM     12  H   UNL     1       8.983   4.019  18.001  0.00  0.00    +0.000 HD
ENDBRANCH   9  11
BRANCH  10  13
ATOM     13  C   UNL     1       5.457   5.377  15.616  0.00  0.00    +0.000 C 
BRANCH  13  14
ATOM     14  C   UNL     1       5.859   4.668  14.365  0.00  0.00    +0.000 A 
ATOM     15  C   UNL     1       7.038   4.842  13.603  0.00  0.00    +0.000 A 
ATOM     16  N   UNL     1       7.072   4.064  12.521  0.00  0.00    +0.000 NA
ATOM     17  N   UNL     1       5.915   3.383  12.583  0.00  0.00    +0.000 N 
ATOM     18  C   UNL     1       5.582   2.425  11.557  0.00  0.00    +0.000 C 
ATOM     19  C   UNL     1       5.158   3.702  13.673  0.00  0.00    +0.000 A 
ENDBRANCH  13  14
ENDBRANCH  10  13
TORSDOF 3
ENDMDL
MODEL 6
REMARK VINA RESULT:      -6.0      2.094      5.660
REMARK  Name = 
REMARK  6 active torsions:
REMARK  status: ('A' for Active; 'I' for Inactive)
REMARK    1  A    between atoms: C_1  and  N_2
REMARK    2  A    between atoms: N_2  and  C_3
REMARK    3  A    between atoms: C_9  and  O_10
REMARK    4  A    between atoms: C_11  and  C_12
REMARK    5  A    between atoms: C_12  and  C_13
REMARK    6  A    between atoms: N_16  and  C_17
REMARK                            x       y       z     vdW  Elec       q    Type
REMARK                         _______ _______ _______ _____ _____    ______ ____
ROOT
ATOM      1  C   UNL     1       7.476   4.587  17.096  0.00  0.00    +0.000 C 
ATOM      2  N   UNL     1       6.199   4.841  17.756  0.00  0.00    +0.000 N 
ATOM      3  C   UNL     1       6.287   5.415  19.086  0.00  0.00    +0.000 C 
ATOM      4  C   UNL     1       5.112   4.186  17.211  0.00  0.00    +0.000 C 
ATOM      5  O   UNL     1       5.270   3.424  16.252  0.00  0.00    +0.000 OA
ATOM      6  N   UNL     1       3.848   4.356  17.727  0.00  0.00    +0.000 N 
ATOM      7  C   UNL     1       2.782   3.522  17.171  0.00  0.00    +0.000 C 
ATOM      8  C   UNL     1       1.475   4.047  17.750  0.00  0.00    +0.000 C 
ATOM      9  C   UNL     1       1.918   4.743  19.025  0.00  0.00    +0.000 C 
ATOM     10  C   UNL     1       3.280   5.363  18.646  0.00  0.00    +0.000 C 
ENDROOT
BRANCH   9  11
ATOM     11  O   UNL     1       2.095   3.763  20.056  0.00  0.00    +0.000 OA
ATOM     12  H   UNL     1       2.615   4.178  20.770  0.00  0.00    +0.000 HD
ENDBRANCH   9  11
BRANCH  10  13
ATOM     13  C   UNL     1       3.150   6.745  17.973  0.00  0.00    +0.000 C 
BRANCH  13  14
ATOM     14  C   UNL     1       2.342   7.710  18.777  0.00  0.00    +0.000 A 
ATOM     15  C   UNL     1       1.986   7.624  20.143  0.00  0.00    +0.000 A 
ATOM     16  N   UNL     1       1.230   8.647  20.544  0.00  0.00    +0.000 NA
ATOM     17  N   UNL     1       1.098   9.397  19.437  0.00  0.00    +0.000 N 
ATOM     18  C   UNL     1       0.324  10.614  19.475  0.00  0.00    +0.000 C 
ATOM     19  C   UNL     1       1.753   8.884  18.355  0.00  0.00    +0.000 A 
ENDBRANCH  13  14
ENDBRANCH  10  13
TORSDOF 3
ENDMDL
MODEL 7
REMARK VINA RESULT:      -5.8      2.475      5.585
REMARK  Name = 
REMARK  6 active torsions:
REMARK  status: ('A' for Active; 'I' for Inactive)
REMARK    1  A    between atoms: C_1  and  N_2
REMARK    2  A    between atoms: N_2  and  C_3
REMARK    3  A    between atoms: C_9  and  O_10
REMARK    4  A    between atoms: C_11  and  C_12
REMARK    5  A    between atoms: C_12  and  C_13
REMARK    6  A    between atoms: N_16  and  C_17
REMARK                            x       y       z     vdW  Elec       q    Type
REMARK                         _______ _______ _______ _____ _____    ______ ____
ROOT
ATOM      1  C   UNL     1       1.706   1.994  19.121  0.00  0.00    +0.000 C 
ATOM      2  N   UNL     1       2.250   3.254  18.624  0.00  0.00    +0.000 N 
ATOM      3  C   UNL     1       1.361   4.027  17.776  0.00  0.00    +0.000 C 
ATOM      4  C   UNL     1       3.622   3.379  18.710  0.00  0.00    +0.000 C 
ATOM      5  O   UNL     1       4.299   2.446  19.155  0.00  0.00    +0.000 OA
ATOM      6  N   UNL     1       4.259   4.526  18.294  0.00  0.00    +0.000 N 
ATOM      7  C   UNL     1       5.723   4.517  18.300  0.00  0.00    +0.000 C 
ATOM      8  C   UNL     1       6.165   5.944  18.009  0.00  0.00    +0.000 C 
ATOM      9  C   UNL     1       4.967   6.536  17.286  0.00  0.00    +0.000 C 
ATOM     10  C   UNL     1       3.760   5.882  17.990  0.00  0.00    +0.000 C 
ENDROOT
BRANCH   9  11
ATOM     11  O   UNL     1       5.008   6.138  15.910  0.00  0.00    +0.000 OA
ATOM     12  H   UNL     1       4.306   5.475  15.774  0.00  0.00    +0.000 HD
ENDBRANCH   9  11
BRANCH  10  13
ATOM     13  C   UNL     1       3.322   6.632  19.265  0.00  0.00    +0.000 C 
BRANCH  13  14
ATOM     14  C   UNL     1       2.397   7.769  18.981  0.00  0.00    +0.000 A 
ATOM     15  C   UNL     1       2.202   8.452  17.758  0.00  0.00    +0.000 A 
ATOM     16  N   UNL     1       1.317   9.444  17.857  0.00  0.00    +0.000 NA
ATOM     17  N   UNL     1       0.935   9.402  19.145  0.00  0.00    +0.000 N 
ATOM     18  C   UNL     1      -0.034  10.348  19.645  0.00  0.00    +0.000 C 
ATOM     19  C   UNL     1       1.546   8.411  19.857  0.00  0.00    +0.000 A 
ENDBRANCH  13  14
ENDBRANCH  10  13
TORSDOF 3
ENDMDL
MODEL 8
REMARK VINA RESULT:      -5.8      2.750      5.615
REMARK  Name = 
REMARK  6 active torsions:
REMARK  status: ('A' for Active; 'I' for Inactive)
REMARK    1  A    between atoms: C_1  and  N_2
REMARK    2  A    between atoms: N_2  and  C_3
REMARK    3  A    between atoms: C_9  and  O_10
REMARK    4  A    between atoms: C_11  and  C_12
REMARK    5  A    between atoms: C_12  and  C_13
REMARK    6  A    between atoms: N_16  and  C_17
REMARK                            x       y       z     vdW  Elec       q    Type
REMARK                         _______ _______ _______ _____ _____    ______ ____
ROOT
ATOM      1  C   UNL     1       8.389   7.475  18.962  0.00  0.00    +0.000 C 
ATOM      2  N   UNL     1       7.435   6.480  18.482  0.00  0.00    +0.000 N 
ATOM      3  C   UNL     1       7.111   5.422  19.421  0.00  0.00    +0.000 C 
ATOM      4  C   UNL     1       7.248   6.454  17.114  0.00  0.00    +0.000 C 
ATOM      5  O   UNL     1       7.892   7.219  16.390  0.00  0.00    +0.000 OA
ATOM      6  N   UNL     1       6.361   5.576  16.536  0.00  0.00    +0.000 N 
ATOM      7  C   UNL     1       6.325   5.530  15.073  0.00  0.00    +0.000 C 
ATOM      8  C   UNL     1       5.137   4.656  14.697  0.00  0.00    +0.000 C 
ATOM      9  C   UNL     1       4.932   3.799  15.934  0.00  0.00    +0.000 C 
ATOM     10  C   UNL     1       5.268   4.756  17.097  0.00  0.00    +0.000 C 
ENDROOT
BRANCH   9  11
ATOM     11  O   UNL     1       5.866   2.711  15.909  0.00  0.00    +0.000 OA
ATOM     12  H   UNL     1       5.766   2.258  15.051  0.00  0.00    +0.000 HD
ENDBRANCH   9  11
BRANCH  10  13
ATOM     13  C   UNL     1       4.069   5.621  17.536  0.00  0.00    +0.000 C 
BRANCH  13  14
ATOM     14  C   UNL     1       3.041   4.847  18.295  0.00  0.00    +0.000 A 
ATOM     15  C   UNL     1       1.796   4.362  17.832  0.00  0.00    +0.000 A 
ATOM     16  N   UNL     1       1.105   3.730  18.781  0.00  0.00    +0.000 NA
ATOM     17  N   UNL     1       1.903   3.804  19.860  0.00  0.00    +0.000 N 
ATOM     18  C   UNL     1       1.485   3.225  21.113  0.00  0.00    +0.000 C 
ATOM     19  C   UNL     1       3.078   4.455  19.617  0.00  0.00    +0.000 A 
ENDBRANCH  13  14
ENDBRANCH  10  13
TORSDOF 3
ENDMDL
MODEL 9
REMARK VINA RESULT:      -5.7      2.600      5.075
REMARK  Name = 
REMARK  6 active torsions:
REMARK  status: ('A' for Active; 'I' for Inactive)
REMARK    1  A    between atoms: C_1  and  N_2
REMARK    2  A    between atoms: N_2  and  C_3
REMARK    3  A    between atoms: C_9  and  O_10
REMARK    4  A    between atoms: C_11  and  C_12
REMARK    5  A    between atoms: C_12  and  C_13
REMARK    6  A    between atoms: N_16  and  C_17
REMARK                            x       y       z     vdW  Elec       q    Type
REMARK                         _______ _______ _______ _____ _____    ______ ____
ROOT
ATOM      1  C   UNL     1       1.998   8.176  17.852  0.00  0.00    +0.000 C 
ATOM      2  N   UNL     1       2.952   7.120  18.180  0.00  0.00    +0.000 N 
ATOM      3  C   UNL     1       2.845   6.577  19.521  0.00  0.00    +0.000 C 
ATOM      4  C   UNL     1       4.042   7.027  17.338  0.00  0.00    +0.000 C 
ATOM      5  O   UNL     1       4.170   7.827  16.406  0.00  0.00    +0.000 OA
ATOM      6  N   UNL     1       5.005   6.062  17.526  0.00  0.00    +0.000 N 
ATOM      7  C   UNL     1       6.188   6.123  16.666  0.00  0.00    +0.000 C 
ATOM      8  C   UNL     1       6.977   4.847  16.925  0.00  0.00    +0.000 C 
ATOM      9  C   UNL     1       6.515   4.431  18.312  0.00  0.00    +0.000 C 
ATOM     10  C   UNL     1       5.023   4.823  18.330  0.00  0.00    +0.000 C 
ENDROOT
BRANCH   9  11
ATOM     11  O   UNL     1       7.234   5.192  19.292  0.00  0.00    +0.000 OA
ATOM     12  H   UNL     1       6.827   5.013  20.160  0.00  0.00    +0.000 HD
ENDBRANCH   9  11
BRANCH  10  13
ATOM     13  C   UNL     1       4.103   3.738  17.732  0.00  0.00    +0.000 C 
BRANCH  13  14
ATOM     14  C   UNL     1       2.999   3.340  18.654  0.00  0.00    +0.000 A 
ATOM     15  C   UNL     1       1.632   3.143  18.346  0.00  0.00    +0.000 A 
ATOM     16  N   UNL     1       0.906   2.816  19.416  0.00  0.00    +0.000 NA
ATOM     17  N   UNL     1       1.802   2.798  20.416  0.00  0.00    +0.000 N 
ATOM     18  C   UNL     1       1.382   2.484  21.761  0.00  0.00    +0.000 C 
ATOM     19  C   UNL     1       3.071   3.096  20.010  0.00  0.00    +0.000 A 
ENDBRANCH  13  14
ENDBRANCH  10  13
TORSDOF 3
ENDMDL
