MODEL 1
REMARK VINA RESULT:      -6.7      0.000      0.000
REMARK  Name = 
REMARK  4 active torsions:
REMARK  status: ('A' for Active; 'I' for Inactive)
REMARK    1  A    between atoms: C_1  and  O_2
REMARK    2  A    between atoms: O_2  and  C_3
REMARK    3  A    between atoms: C_6  and  C_7
REMARK    4  A    between atoms: C_7  and  N_8
REMARK                            x       y       z     vdW  Elec       q    Type
REMARK                         _______ _______ _______ _____ _____    ______ ____
ROOT
ATOM      1  N   UNL     1      -1.195  11.446  19.640  0.00  0.00    +0.000 NA
ATOM      2  C   UNL     1      -1.357  12.891  19.426  0.00  0.00    +0.000 C 
ATOM      3  C   UNL     1      -2.458  13.534  20.279  0.00  0.00    +0.000 C 
ATOM      4  C   UNL     1      -2.711  12.898  21.645  0.00  0.00    +0.000 C 
ATOM      5  C   UNL     1      -3.556  13.555  22.479  0.00  0.00    +0.000 C 
ATOM      6  C   UNL     1      -2.941  14.480  23.512  0.00  0.00    +0.000 A 
ATOM      7  C   UNL     1      -1.539  14.637  23.599  0.00  0.00    +0.000 A 
ATOM      8  C   UNL     1      -0.931  15.379  24.611  0.00  0.00    +0.000 A 
ATOM      9  C   UNL     1      -1.710  15.998  25.567  0.00  0.00    +0.000 A 
ATOM     10 CL   UNL     1      -0.971  16.875  26.846  0.00  0.00    +0.000 Cl
ATOM     11  C   UNL     1      -3.089  15.981  25.443  0.00  0.00    +0.000 A 
ATOM     12  C   UNL     1      -3.700  15.311  24.362  0.00  0.00    +0.000 A 
ATOM     13  C   UNL     1      -5.135  15.695  24.074  0.00  0.00    +0.000 C 
ATOM     14  C   UNL     1      -5.341  15.933  22.570  0.00  0.00    +0.000 C 
ATOM     15  C   UNL     1      -5.830  14.626  22.031  0.00  0.00    +0.000 A 
ATOM     16  C   UNL     1      -7.195  14.504  21.714  0.00  0.00    +0.000 A 
ATOM     17  C   UNL     1      -7.753  13.243  21.610  0.00  0.00    +0.000 A 
ATOM     18  C   UNL     1      -6.911  12.159  21.777  0.00  0.00    +0.000 A 
ATOM     19  N   UNL     1      -5.567  12.248  21.965  0.00  0.00    +0.000 NA
ATOM     20  C   UNL     1      -5.022  13.487  22.096  0.00  0.00    +0.000 A 
ATOM     21  C   UNL     1      -1.725  11.821  22.109  0.00  0.00    +0.000 C 
ATOM     22  C   UNL     1      -0.759  11.272  21.039  0.00  0.00    +0.000 C 
ENDROOT
BRANCH   1  23
ATOM     23  C   UNL     1      -2.433  10.684  19.363  0.00  0.00    +0.000 C 
BRANCH  23  27
ATOM     24  C   UNL     1      -3.441  10.581  15.238  0.00  0.00    +0.000 A 
ATOM     25  C   UNL     1      -2.389   9.797  15.671  0.00  0.00    +0.000 A 
ATOM     26  C   UNL     1      -2.038   9.847  17.011  0.00  0.00    +0.000 A 
ATOM     27  C   UNL     1      -2.785  10.624  17.900  0.00  0.00    +0.000 A 
ATOM     28  C   UNL     1      -3.859  11.355  17.360  0.00  0.00    +0.000 A 
ATOM     29  N   UNL     1      -4.197  11.356  16.051  0.00  0.00    +0.000 NA
BRANCH  24  31
ATOM     30  C   UNL     1      -2.888   9.600  13.214  0.00  0.00    +0.000 C 
ATOM     31  O   UNL     1      -3.739  10.516  13.891  0.00  0.00    +0.000 OA
ENDBRANCH  24  31
ENDBRANCH  23  27
ENDBRANCH   1  23
TORSDOF 3
ENDMDL
MODEL 2
REMARK VINA RESULT:      -6.7      4.770      6.910
REMARK  Name = 
REMARK  4 active torsions:
REMARK  status: ('A' for Active; 'I' for Inactive)
REMARK    1  A    between atoms: C_1  and  O_2
REMARK    2  A    between atoms: O_2  and  C_3
REMARK    3  A    between atoms: C_6  and  C_7
REMARK    4  A    between atoms: C_7  and  N_8
REMARK                            x       y       z     vdW  Elec       q    Type
REMARK                         _______ _______ _______ _____ _____    ______ ____
ROOT
ATOM      1  N   UNL     1       1.054   7.934  21.251  0.00  0.00    +0.000 NA
ATOM      2  C   UNL     1       1.510   8.797  22.350  0.00  0.00    +0.000 C 
ATOM      3  C   UNL     1       1.457  10.298  22.036  0.00  0.00    +0.000 C 
ATOM      4  C   UNL     1       0.358  10.747  21.076  0.00  0.00    +0.000 C 
ATOM      5  C   UNL     1       0.189  12.085  20.923  0.00  0.00    +0.000 C 
ATOM      6  C   UNL     1      -0.879  12.756  21.764  0.00  0.00    +0.000 A 
ATOM      7  C   UNL     1      -1.669  12.004  22.665  0.00  0.00    +0.000 A 
ATOM      8  C   UNL     1      -2.741  12.560  23.364  0.00  0.00    +0.000 A 
ATOM      9  C   UNL     1      -3.051  13.893  23.190  0.00  0.00    +0.000 A 
ATOM     10 CL   UNL     1      -4.399  14.577  24.008  0.00  0.00    +0.000 Cl
ATOM     11  C   UNL     1      -2.226  14.695  22.421  0.00  0.00    +0.000 A 
ATOM     12  C   UNL     1      -1.085  14.151  21.794  0.00  0.00    +0.000 A 
ATOM     13  C   UNL     1      -0.037  15.148  21.349  0.00  0.00    +0.000 C 
ATOM     14  C   UNL     1       1.366  14.683  21.765  0.00  0.00    +0.000 C 
ATOM     15  C   UNL     1       1.903  13.946  20.579  0.00  0.00    +0.000 A 
ATOM     16  C   UNL     1       2.869  14.582  19.781  0.00  0.00    +0.000 A 
ATOM     17  C   UNL     1       3.083  14.129  18.491  0.00  0.00    +0.000 A 
ATOM     18  C   UNL     1       2.357  13.029  18.075  0.00  0.00    +0.000 A 
ATOM     19  N   UNL     1       1.504  12.324  18.866  0.00  0.00    +0.000 NA
ATOM     20  C   UNL     1       1.272  12.784  20.124  0.00  0.00    +0.000 A 
ATOM     21  C   UNL     1      -0.693   9.706  20.678  0.00  0.00    +0.000 C 
ATOM     22  C   UNL     1      -0.374   8.240  21.040  0.00  0.00    +0.000 C 
ENDROOT
BRANCH   1  23
ATOM     23  C   UNL     1       1.836   8.126  20.011  0.00  0.00    +0.000 C 
BRANCH  23  27
ATOM     24  C   UNL     1       3.317   4.475  18.424  0.00  0.00    +0.000 A 
ATOM     25  C   UNL     1       3.542   5.636  17.707  0.00  0.00    +0.000 A 
ATOM     26  C   UNL     1       3.038   6.827  18.207  0.00  0.00    +0.000 A 
ATOM     27  C   UNL     1       2.381   6.843  19.440  0.00  0.00    +0.000 A 
ATOM     28  C   UNL     1       2.238   5.611  20.103  0.00  0.00    +0.000 A 
ATOM     29  N   UNL     1       2.684   4.430  19.619  0.00  0.00    +0.000 NA
BRANCH  24  31
ATOM     30  C   UNL     1       2.844   2.274  17.880  0.00  0.00    +0.000 C 
ATOM     31  O   UNL     1       3.817   3.311  17.875  0.00  0.00    +0.000 OA
ENDBRANCH  24  31
ENDBRANCH  23  27
ENDBRANCH   1  23
TORSDOF 3
ENDMDL
MODEL 3
REMARK VINA RESULT:      -6.6      4.420      8.256
REMARK  Name = 
REMARK  4 active torsions:
REMARK  status: ('A' for Active; 'I' for Inactive)
REMARK    1  A    between atoms: C_1  and  O_2
REMARK    2  A    between atoms: O_2  and  C_3
REMARK    3  A    between atoms: C_6  and  C_7
REMARK    4  A    between atoms: C_7  and  N_8
REMARK                            x       y       z     vdW  Elec       q    Type
REMARK                         _______ _______ _______ _____ _____    ______ ____
ROOT
ATOM      1  N   UNL     1      -0.831  13.774  22.933  0.00  0.00    +0.000 NA
ATOM      2  C   UNL     1      -1.353  12.400  22.925  0.00  0.00    +0.000 C 
ATOM      3  C   UNL     1      -2.678  12.233  22.169  0.00  0.00    +0.000 C 
ATOM      4  C   UNL     1      -2.904  13.177  20.990  0.00  0.00    +0.000 C 
ATOM      5  C   UNL     1      -3.986  12.931  20.208  0.00  0.00    +0.000 C 
ATOM      6  C   UNL     1      -3.768  12.117  18.948  0.00  0.00    +0.000 A 
ATOM      7  C   UNL     1      -2.480  11.643  18.606  0.00  0.00    +0.000 A 
ATOM      8  C   UNL     1      -2.216  10.998  17.398  0.00  0.00    +0.000 A 
ATOM      9  C   UNL     1      -3.239  10.797  16.494  0.00  0.00    +0.000 A 
ATOM     10 CL   UNL     1      -2.917  10.047  14.982  0.00  0.00    +0.000 Cl
ATOM     11  C   UNL     1      -4.537  11.125  16.843  0.00  0.00    +0.000 A 
ATOM     12  C   UNL     1      -4.815  11.688  18.107  0.00  0.00    +0.000 A 
ATOM     13  C   UNL     1      -6.258  11.615  18.559  0.00  0.00    +0.000 C 
ATOM     14  C   UNL     1      -6.347  11.133  20.015  0.00  0.00    +0.000 C 
ATOM     15  C   UNL     1      -6.398  12.381  20.838  0.00  0.00    +0.000 A 
ATOM     16  C   UNL     1      -7.632  12.765  21.390  0.00  0.00    +0.000 A 
ATOM     17  C   UNL     1      -7.812  14.075  21.795  0.00  0.00    +0.000 A 
ATOM     18  C   UNL     1      -6.733  14.931  21.676  0.00  0.00    +0.000 A 
ATOM     19  N   UNL     1      -5.494  14.557  21.257  0.00  0.00    +0.000 NA
ATOM     20  C   UNL     1      -5.324  13.276  20.833  0.00  0.00    +0.000 A 
ATOM     21  C   UNL     1      -1.723  14.052  20.557  0.00  0.00    +0.000 C 
ATOM     22  C   UNL     1      -0.528  14.118  21.530  0.00  0.00    +0.000 C 
ENDROOT
BRANCH   1  23
ATOM     23  C   UNL     1      -1.776  14.741  23.533  0.00  0.00    +0.000 C 
BRANCH  23  27
ATOM     24  C   UNL     1       0.016  17.368  26.349  0.00  0.00    +0.000 A 
ATOM     25  C   UNL     1      -0.792  16.353  26.827  0.00  0.00    +0.000 A 
ATOM     26  C   UNL     1      -1.401  15.510  25.911  0.00  0.00    +0.000 A 
ATOM     27  C   UNL     1      -1.137  15.653  24.547  0.00  0.00    +0.000 A 
ATOM     28  C   UNL     1      -0.271  16.697  24.171  0.00  0.00    +0.000 A 
ATOM     29  N   UNL     1       0.303  17.558  25.040  0.00  0.00    +0.000 NA
BRANCH  24  31
ATOM     30  C   UNL     1       1.238  17.452  28.315  0.00  0.00    +0.000 C 
ATOM     31  O   UNL     1       0.582  18.197  27.297  0.00  0.00    +0.000 OA
ENDBRANCH  24  31
ENDBRANCH  23  27
ENDBRANCH   1  23
TORSDOF 3
ENDMDL
MODEL 4
REMARK VINA RESULT:      -6.4      4.898      7.215
REMARK  Name = 
REMARK  4 active torsions:
REMARK  status: ('A' for Active; 'I' for Inactive)
REMARK    1  A    between atoms: C_1  and  O_2
REMARK    2  A    between atoms: O_2  and  C_3
REMARK    3  A    between atoms: C_6  and  C_7
REMARK    4  A    between atoms: C_7  and  N_8
REMARK                            x       y       z     vdW  Elec       q    Type
REMARK                         _______ _______ _______ _____ _____    ______ ____
ROOT
ATOM      1  N   UNL     1       0.225   9.622  19.499  0.00  0.00    +0.000 NA
ATOM      2  C   UNL     1       0.394  10.222  20.830  0.00  0.00    +0.000 C 
ATOM      3  C   UNL     1       0.850  11.687  20.807  0.00  0.00    +0.000 C 
ATOM      4  C   UNL     1       0.388  12.518  19.611  0.00  0.00    +0.000 C 
ATOM      5  C   UNL     1       0.635  13.852  19.660  0.00  0.00    +0.000 C 
ATOM      6  C   UNL     1      -0.479  14.752  20.158  0.00  0.00    +0.000 A 
ATOM      7  C   UNL     1      -1.727  14.212  20.546  0.00  0.00    +0.000 A 
ATOM      8  C   UNL     1      -2.815  15.015  20.891  0.00  0.00    +0.000 A 
ATOM      9  C   UNL     1      -2.684  16.388  20.868  0.00  0.00    +0.000 A 
ATOM     10 CL   UNL     1      -4.030  17.387  21.244  0.00  0.00    +0.000 Cl
ATOM     11  C   UNL     1      -1.445  16.955  20.623  0.00  0.00    +0.000 A 
ATOM     12  C   UNL     1      -0.324  16.137  20.371  0.00  0.00    +0.000 A 
ATOM     13  C   UNL     1       1.027  16.799  20.540  0.00  0.00    +0.000 C 
ATOM     14  C   UNL     1       1.974  15.901  21.350  0.00  0.00    +0.000 C 
ATOM     15  C   UNL     1       2.745  15.124  20.330  0.00  0.00    +0.000 A 
ATOM     16  C   UNL     1       4.078  15.493  20.079  0.00  0.00    +0.000 A 
ATOM     17  C   UNL     1       4.679  15.092  18.899  0.00  0.00    +0.000 A 
ATOM     18  C   UNL     1       3.936  14.298  18.045  0.00  0.00    +0.000 A 
ATOM     19  N   UNL     1       2.688  13.829  18.318  0.00  0.00    +0.000 NA
ATOM     20  C   UNL     1       2.087  14.245  19.464  0.00  0.00    +0.000 A 
ATOM     21  C   UNL     1      -0.634  11.877  18.666  0.00  0.00    +0.000 C 
ATOM     22  C   UNL     1      -0.867  10.361  18.837  0.00  0.00    +0.000 C 
ENDROOT
BRANCH   1  23
ATOM     23  C   UNL     1       1.466   9.657  18.694  0.00  0.00    +0.000 C 
BRANCH  23  27
ATOM     24  C   UNL     1       3.530   5.945  18.714  0.00  0.00    +0.000 A 
ATOM     25  C   UNL     1       3.753   6.809  17.658  0.00  0.00    +0.000 A 
ATOM     26  C   UNL     1       3.062   8.010  17.633  0.00  0.00    +0.000 A 
ATOM     27  C   UNL     1       2.217   8.352  18.692  0.00  0.00    +0.000 A 
ATOM     28  C   UNL     1       2.090   7.416  19.734  0.00  0.00    +0.000 A 
ATOM     29  N   UNL     1       2.721   6.220  19.764  0.00  0.00    +0.000 NA
BRANCH  24  31
ATOM     30  C   UNL     1       5.575   4.925  19.087  0.00  0.00    +0.000 C 
ATOM     31  O   UNL     1       4.223   4.751  18.685  0.00  0.00    +0.000 OA
ENDBRANCH  24  31
ENDBRANCH  23  27
ENDBRANCH   1  23
TORSDOF 3
ENDMDL
MODEL 5
REMARK VINA RESULT:      -6.3      5.016      7.212
REMARK  Name = 
REMARK  4 active torsions:
REMARK  status: ('A' for Active; 'I' for Inactive)
REMARK    1  A    between atoms: C_1  and  O_2
REMARK    2  A    between atoms: O_2  and  C_3
REMARK    3  A    between atoms: C_6  and  C_7
REMARK    4  A    between atoms: C_7  and  N_8
REMARK                            x       y       z     vdW  Elec       q    Type
REMARK                         _______ _______ _______ _____ _____    ______ ____
ROOT
ATOM      1  N   UNL     1       1.779  13.218  19.898  0.00  0.00    +0.000 NA
ATOM      2  C   UNL     1       1.183  12.069  20.594  0.00  0.00    +0.000 C 
ATOM      3  C   UNL     1      -0.130  12.386  21.323  0.00  0.00    +0.000 C 
ATOM      4  C   UNL     1      -0.998  13.479  20.704  0.00  0.00    +0.000 C 
ATOM      5  C   UNL     1      -2.235  13.652  21.235  0.00  0.00    +0.000 C 
ATOM      6  C   UNL     1      -3.394  12.954  20.550  0.00  0.00    +0.000 A 
ATOM      7  C   UNL     1      -3.183  12.163  19.397  0.00  0.00    +0.000 A 
ATOM      8  C   UNL     1      -4.234  11.607  18.668  0.00  0.00    +0.000 A 
ATOM      9  C   UNL     1      -5.535  11.819  19.077  0.00  0.00    +0.000 A 
ATOM     10 CL   UNL     1      -6.840  11.180  18.160  0.00  0.00    +0.000 Cl
ATOM     11  C   UNL     1      -5.781  12.474  20.270  0.00  0.00    +0.000 A 
ATOM     12  C   UNL     1      -4.710  12.950  21.056  0.00  0.00    +0.000 A 
ATOM     13  C   UNL     1      -5.037  13.256  22.502  0.00  0.00    +0.000 C 
ATOM     14  C   UNL     1      -3.973  12.662  23.437  0.00  0.00    +0.000 C 
ATOM     15  C   UNL     1      -2.995  13.770  23.670  0.00  0.00    +0.000 A 
ATOM     16  C   UNL     1      -3.025  14.438  24.907  0.00  0.00    +0.000 A 
ATOM     17  C   UNL     1      -2.446  15.689  25.013  0.00  0.00    +0.000 A 
ATOM     18  C   UNL     1      -1.818  16.196  23.891  0.00  0.00    +0.000 A 
ATOM     19  N   UNL     1      -1.671  15.522  22.718  0.00  0.00    +0.000 NA
ATOM     20  C   UNL     1      -2.264  14.304  22.604  0.00  0.00    +0.000 A 
ATOM     21  C   UNL     1      -0.581  14.009  19.329  0.00  0.00    +0.000 C 
ATOM     22  C   UNL     1       0.827  13.611  18.841  0.00  0.00    +0.000 C 
ENDROOT
BRANCH   1  23
ATOM     23  C   UNL     1       2.071  14.348  20.807  0.00  0.00    +0.000 C 
BRANCH  23  27
ATOM     24  C   UNL     1       5.108  16.972  19.416  0.00  0.00    +0.000 A 
ATOM     25  C   UNL     1       5.436  15.644  19.616  0.00  0.00    +0.000 A 
ATOM     26  C   UNL     1       4.456  14.789  20.096  0.00  0.00    +0.000 A 
ATOM     27  C   UNL     1       3.157  15.260  20.299  0.00  0.00    +0.000 A 
ATOM     28  C   UNL     1       2.923  16.621  20.030  0.00  0.00    +0.000 A 
ATOM     29  N   UNL     1       3.869  17.485  19.601  0.00  0.00    +0.000 NA
BRANCH  24  31
ATOM     30  C   UNL     1       7.368  17.106  18.929  0.00  0.00    +0.000 C 
ATOM     31  O   UNL     1       6.122  17.791  18.960  0.00  0.00    +0.000 OA
ENDBRANCH  24  31
ENDBRANCH  23  27
ENDBRANCH   1  23
TORSDOF 3
ENDMDL
MODEL 6
REMARK VINA RESULT:      -6.3      4.229      6.606
REMARK  Name = 
REMARK  4 active torsions:
REMARK  status: ('A' for Active; 'I' for Inactive)
REMARK    1  A    between atoms: C_1  and  O_2
REMARK    2  A    between atoms: O_2  and  C_3
REMARK    3  A    between atoms: C_6  and  C_7
REMARK    4  A    between atoms: C_7  and  N_8
REMARK                            x       y       z     vdW  Elec       q    Type
REMARK                         _______ _______ _______ _____ _____    ______ ____
ROOT
ATOM      1  N   UNL     1       0.495  14.840  21.018  0.00  0.00    +0.000 NA
ATOM      2  C   UNL     1      -0.612  15.531  20.343  0.00  0.00    +0.000 C 
ATOM      3  C   UNL     1      -1.718  14.599  19.831  0.00  0.00    +0.000 C 
ATOM      4  C   UNL     1      -1.950  13.322  20.638  0.00  0.00    +0.000 C 
ATOM      5  C   UNL     1      -3.032  12.574  20.303  0.00  0.00    +0.000 C 
ATOM      6  C   UNL     1      -4.303  12.787  21.102  0.00  0.00    +0.000 A 
ATOM      7  C   UNL     1      -4.346  13.724  22.159  0.00  0.00    +0.000 A 
ATOM      8  C   UNL     1      -5.454  13.861  22.995  0.00  0.00    +0.000 A 
ATOM      9  C   UNL     1      -6.563  13.066  22.792  0.00  0.00    +0.000 A 
ATOM     10 CL   UNL     1      -7.916  13.191  23.844  0.00  0.00    +0.000 Cl
ATOM     11  C   UNL     1      -6.616  12.230  21.690  0.00  0.00    +0.000 A 
ATOM     12  C   UNL     1      -5.531  12.167  20.790  0.00  0.00    +0.000 A 
ATOM     13  C   UNL     1      -5.836  11.579  19.429  0.00  0.00    +0.000 C 
ATOM     14  C   UNL     1      -5.241  12.453  18.314  0.00  0.00    +0.000 C 
ATOM     15  C   UNL     1      -3.905  11.851  18.015  0.00  0.00    +0.000 A 
ATOM     16  C   UNL     1      -3.765  11.091  16.840  0.00  0.00    +0.000 A 
ATOM     17  C   UNL     1      -2.709  10.205  16.732  0.00  0.00    +0.000 A 
ATOM     18  C   UNL     1      -1.811  10.154  17.783  0.00  0.00    +0.000 A 
ATOM     19  N   UNL     1      -1.857  10.961  18.877  0.00  0.00    +0.000 NA
ATOM     20  C   UNL     1      -2.910  11.813  18.997  0.00  0.00    +0.000 A 
ATOM     21  C   UNL     1      -1.205  13.191  21.970  0.00  0.00    +0.000 C 
ATOM     22  C   UNL     1      -0.073  14.208  22.224  0.00  0.00    +0.000 C 
ENDROOT
BRANCH   1  23
ATOM     23  C   UNL     1       1.161  13.844  20.151  0.00  0.00    +0.000 C 
BRANCH  23  27
ATOM     24  C   UNL     1       5.024  15.027  18.840  0.00  0.00    +0.000 A 
ATOM     25  C   UNL     1       4.015  14.941  17.899  0.00  0.00    +0.000 A 
ATOM     26  C   UNL     1       2.759  14.529  18.317  0.00  0.00    +0.000 A 
ATOM     27  C   UNL     1       2.520  14.279  19.670  0.00  0.00    +0.000 A 
ATOM     28  C   UNL     1       3.609  14.432  20.548  0.00  0.00    +0.000 A 
ATOM     29  N   UNL     1       4.853  14.792  20.162  0.00  0.00    +0.000 NA
BRANCH  24  31
ATOM     30  C   UNL     1       6.524  16.783  18.673  0.00  0.00    +0.000 C 
ATOM     31  O   UNL     1       6.264  15.418  18.374  0.00  0.00    +0.000 OA
ENDBRANCH  24  31
ENDBRANCH  23  27
ENDBRANCH   1  23
TORSDOF 3
ENDMDL
MODEL 7
REMARK VINA RESULT:      -6.3      4.275      6.424
REMARK  Name = 
REMARK  4 active torsions:
REMARK  status: ('A' for Active; 'I' for Inactive)
REMARK    1  A    between atoms: C_1  and  O_2
REMARK    2  A    between atoms: O_2  and  C_3
REMARK    3  A    between atoms: C_6  and  C_7
REMARK    4  A    between atoms: C_7  and  N_8
REMARK                            x       y       z     vdW  Elec       q    Type
REMARK                         _______ _______ _______ _____ _____    ______ ____
ROOT
ATOM      1  N   UNL     1       0.680  15.149  21.072  0.00  0.00    +0.000 NA
ATOM      2  C   UNL     1      -0.449  15.791  20.384  0.00  0.00    +0.000 C 
ATOM      3  C   UNL     1      -1.574  14.827  19.986  0.00  0.00    +0.000 C 
ATOM      4  C   UNL     1      -1.781  13.618  20.897  0.00  0.00    +0.000 C 
ATOM      5  C   UNL     1      -2.876  12.852  20.659  0.00  0.00    +0.000 C 
ATOM      6  C   UNL     1      -4.118  13.133  21.482  0.00  0.00    +0.000 A 
ATOM      7  C   UNL     1      -4.121  14.151  22.464  0.00  0.00    +0.000 A 
ATOM      8  C   UNL     1      -5.200  14.358  23.324  0.00  0.00    +0.000 A 
ATOM      9  C   UNL     1      -6.317  13.556  23.222  0.00  0.00    +0.000 A 
ATOM     10 CL   UNL     1      -7.632  13.769  24.308  0.00  0.00    +0.000 Cl
ATOM     11  C   UNL     1      -6.410  12.636  22.192  0.00  0.00    +0.000 A 
ATOM     12  C   UNL     1      -5.357  12.497  21.263  0.00  0.00    +0.000 A 
ATOM     13  C   UNL     1      -5.711  11.806  19.963  0.00  0.00    +0.000 C 
ATOM     14  C   UNL     1      -5.153  12.588  18.764  0.00  0.00    +0.000 C 
ATOM     15  C   UNL     1      -3.830  11.956  18.467  0.00  0.00    +0.000 A 
ATOM     16  C   UNL     1      -3.732  11.106  17.351  0.00  0.00    +0.000 A 
ATOM     17  C   UNL     1      -2.683  10.209  17.277  0.00  0.00    +0.000 A 
ATOM     18  C   UNL     1      -1.749  10.235  18.296  0.00  0.00    +0.000 A 
ATOM     19  N   UNL     1      -1.755  11.127  19.324  0.00  0.00    +0.000 NA
ATOM     20  C   UNL     1      -2.801  11.991  19.413  0.00  0.00    +0.000 A 
ATOM     21  C   UNL     1      -0.990  13.588  22.209  0.00  0.00    +0.000 C 
ATOM     22  C   UNL     1       0.152  14.616  22.343  0.00  0.00    +0.000 C 
ENDROOT
BRANCH   1  23
ATOM     23  C   UNL     1       1.312  14.084  20.264  0.00  0.00    +0.000 C 
BRANCH  23  27
ATOM     24  C   UNL     1       5.117  15.183  18.727  0.00  0.00    +0.000 A 
ATOM     25  C   UNL     1       4.989  15.016  20.094  0.00  0.00    +0.000 A 
ATOM     26  C   UNL     1       3.744  14.684  20.603  0.00  0.00    +0.000 A 
ATOM     27  C   UNL     1       2.672  14.459  19.736  0.00  0.00    +0.000 A 
ATOM     28  C   UNL     1       2.920  14.621  18.361  0.00  0.00    +0.000 A 
ATOM     29  N   UNL     1       4.114  14.985  17.840  0.00  0.00    +0.000 NA
BRANCH  24  31
ATOM     30  C   UNL     1       7.044  14.427  17.689  0.00  0.00    +0.000 C 
ATOM     31  O   UNL     1       6.370  15.537  18.268  0.00  0.00    +0.000 OA
ENDBRANCH  24  31
ENDBRANCH  23  27
ENDBRANCH   1  23
TORSDOF 3
ENDMDL
MODEL 8
REMARK VINA RESULT:      -6.2      3.004      3.937
REMARK  Name = 
REMARK  4 active torsions:
REMARK  status: ('A' for Active; 'I' for Inactive)
REMARK    1  A    between atoms: C_1  and  O_2
REMARK    2  A    between atoms: O_2  and  C_3
REMARK    3  A    between atoms: C_6  and  C_7
REMARK    4  A    between atoms: C_7  and  N_8
REMARK                            x       y       z     vdW  Elec       q    Type
REMARK                         _______ _______ _______ _____ _____    ______ ____
ROOT
ATOM      1  N   UNL     1      -0.170  12.371  20.990  0.00  0.00    +0.000 NA
ATOM      2  C   UNL     1      -0.453  13.696  20.418  0.00  0.00    +0.000 C 
ATOM      3  C   UNL     1      -1.944  14.051  20.359  0.00  0.00    +0.000 C 
ATOM      4  C   UNL     1      -2.823  13.454  21.456  0.00  0.00    +0.000 C 
ATOM      5  C   UNL     1      -4.106  13.895  21.520  0.00  0.00    +0.000 C 
ATOM      6  C   UNL     1      -4.412  15.016  22.493  0.00  0.00    +0.000 A 
ATOM      7  C   UNL     1      -3.394  15.570  23.304  0.00  0.00    +0.000 A 
ATOM      8  C   UNL     1      -3.658  16.514  24.296  0.00  0.00    +0.000 A 
ATOM      9  C   UNL     1      -4.953  16.944  24.502  0.00  0.00    +0.000 A 
ATOM     10 CL   UNL     1      -5.297  18.070  25.753  0.00  0.00    +0.000 Cl
ATOM     11  C   UNL     1      -5.958  16.529  23.646  0.00  0.00    +0.000 A 
ATOM     12  C   UNL     1      -5.670  15.648  22.581  0.00  0.00    +0.000 A 
ATOM     13  C   UNL     1      -6.700  15.592  21.474  0.00  0.00    +0.000 C 
ATOM     14  C   UNL     1      -6.022  15.669  20.097  0.00  0.00    +0.000 C 
ATOM     15  C   UNL     1      -5.833  14.247  19.674  0.00  0.00    +0.000 A 
ATOM     16  C   UNL     1      -6.693  13.724  18.692  0.00  0.00    +0.000 A 
ATOM     17  C   UNL     1      -6.823  12.353  18.570  0.00  0.00    +0.000 A 
ATOM     18  C   UNL     1      -6.051  11.564  19.402  0.00  0.00    +0.000 A 
ATOM     19  N   UNL     1      -5.125  12.042  20.277  0.00  0.00    +0.000 NA
ATOM     20  C   UNL     1      -5.016  13.390  20.417  0.00  0.00    +0.000 A 
ATOM     21  C   UNL     1      -2.114  12.731  22.606  0.00  0.00    +0.000 C 
ATOM     22  C   UNL     1      -0.618  12.414  22.395  0.00  0.00    +0.000 C 
ENDROOT
BRANCH   1  23
ATOM     23  C   UNL     1      -0.829  11.275  20.247  0.00  0.00    +0.000 C 
BRANCH  23  27
ATOM     24  C   UNL     1       1.838   8.240  18.936  0.00  0.00    +0.000 A 
ATOM     25  C   UNL     1       1.388   9.159  18.006  0.00  0.00    +0.000 A 
ATOM     26  C   UNL     1       0.497  10.135  18.422  0.00  0.00    +0.000 A 
ATOM     27  C   UNL     1       0.127  10.215  19.767  0.00  0.00    +0.000 A 
ATOM     28  C   UNL     1       0.671   9.252  20.636  0.00  0.00    +0.000 A 
ATOM     29  N   UNL     1       1.510   8.265  20.249  0.00  0.00    +0.000 NA
BRANCH  24  31
ATOM     30  C   UNL     1       2.878   6.228  19.421  0.00  0.00    +0.000 C 
ATOM     31  O   UNL     1       2.705   7.272  18.471  0.00  0.00    +0.000 OA
ENDBRANCH  24  31
ENDBRANCH  23  27
ENDBRANCH   1  23
TORSDOF 3
ENDMDL
MODEL 9
REMARK VINA RESULT:      -6.2      4.200      8.788
REMARK  Name = 
REMARK  4 active torsions:
REMARK  status: ('A' for Active; 'I' for Inactive)
REMARK    1  A    between atoms: C_1  and  O_2
REMARK    2  A    between atoms: O_2  and  C_3
REMARK    3  A    between atoms: C_6  and  C_7
REMARK    4  A    between atoms: C_7  and  N_8
REMARK                            x       y       z     vdW  Elec       q    Type
REMARK                         _______ _______ _______ _____ _____    ______ ____
ROOT
ATOM      1  N   UNL     1      -4.156  14.670  22.131  0.00  0.00    +0.000 NA
ATOM      2  C   UNL     1      -3.164  15.062  21.120  0.00  0.00    +0.000 C 
ATOM      3  C   UNL     1      -2.280  13.910  20.624  0.00  0.00    +0.000 C 
ATOM      4  C   UNL     1      -2.923  12.525  20.612  0.00  0.00    +0.000 C 
ATOM      5  C   UNL     1      -2.218  11.528  20.018  0.00  0.00    +0.000 C 
ATOM      6  C   UNL     1      -2.542  11.209  18.572  0.00  0.00    +0.000 A 
ATOM      7  C   UNL     1      -3.547  11.923  17.880  0.00  0.00    +0.000 A 
ATOM      8  C   UNL     1      -3.959  11.579  16.592  0.00  0.00    +0.000 A 
ATOM      9  C   UNL     1      -3.367  10.511  15.950  0.00  0.00    +0.000 A 
ATOM     10 CL   UNL     1      -3.899  10.048  14.383  0.00  0.00    +0.000 Cl
ATOM     11  C   UNL     1      -2.291   9.868  16.536  0.00  0.00    +0.000 A 
ATOM     12  C   UNL     1      -1.813  10.282  17.797  0.00  0.00    +0.000 A 
ATOM     13  C   UNL     1      -0.414   9.829  18.154  0.00  0.00    +0.000 C 
ATOM     14  C   UNL     1       0.406  10.997  18.723  0.00  0.00    +0.000 C 
ATOM     15  C   UNL     1       0.249  10.899  20.208  0.00  0.00    +0.000 A 
ATOM     16  C   UNL     1       1.326  10.400  20.960  0.00  0.00    +0.000 A 
ATOM     17  C   UNL     1       1.093   9.920  22.236  0.00  0.00    +0.000 A 
ATOM     18  C   UNL     1      -0.199  10.007  22.722  0.00  0.00    +0.000 A 
ATOM     19  N   UNL     1      -1.234  10.593  22.061  0.00  0.00    +0.000 NA
ATOM     20  C   UNL     1      -1.011  11.040  20.796  0.00  0.00    +0.000 A 
ATOM     21  C   UNL     1      -4.425  12.447  20.903  0.00  0.00    +0.000 C 
ATOM     22  C   UNL     1      -5.078  13.724  21.472  0.00  0.00    +0.000 C 
ENDROOT
BRANCH   1  23
ATOM     23  C   UNL     1      -3.540  14.071  23.335  0.00  0.00    +0.000 C 
BRANCH  23  27
ATOM     24  C   UNL     1      -1.181  16.814  25.561  0.00  0.00    +0.000 A 
ATOM     25  C   UNL     1      -2.523  17.098  25.389  0.00  0.00    +0.000 A 
ATOM     26  C   UNL     1      -3.292  16.220  24.641  0.00  0.00    +0.000 A 
ATOM     27  C   UNL     1      -2.723  15.047  24.139  0.00  0.00    +0.000 A 
ATOM     28  C   UNL     1      -1.357  14.838  24.403  0.00  0.00    +0.000 A 
ATOM     29  N   UNL     1      -0.575  15.697  25.094  0.00  0.00    +0.000 NA
BRANCH  24  31
ATOM     30  C   UNL     1       0.333  18.563  25.449  0.00  0.00    +0.000 C 
ATOM     31  O   UNL     1      -0.451  17.729  26.293  0.00  0.00    +0.000 OA
ENDBRANCH  24  31
ENDBRANCH  23  27
ENDBRANCH   1  23
TORSDOF 3
ENDMDL
