MODEL 1
REMARK VINA RESULT:      -9.3      0.000      0.000
REMARK  Name = 
REMARK  7 active torsions:
REMARK  status: ('A' for Active; 'I' for Inactive)
REMARK    1  A    between atoms: C_2  and  C_3
REMARK    2  A    between atoms: C_3  and  S_4
REMARK    3  A    between atoms: S_4  and  C_5
REMARK    4  A    between atoms: N_18  and  C_19
REMARK    5  A    between atoms: C_22  and  C_23
REMARK    6  A    between atoms: N_25  and  C_26
REMARK    7  A    between atoms: C_26  and  C_27
REMARK                            x       y       z     vdW  Elec       q    Type
REMARK                         _______ _______ _______ _____ _____    ______ ____
ROOT
ATOM      1  O   UNL     1      -0.661   7.932  21.478  0.00  0.00    +0.000 OA
ATOM      2  C   UNL     1       0.394   8.561  21.467  0.00  0.00    +0.000 C 
ATOM      3  N   UNL     1       1.588   8.104  20.939  0.00  0.00    +0.000 N 
ATOM      4  H   UNL     1       2.426   8.631  21.173  0.00  0.00    +0.000 HD
ENDROOT
BRANCH   3   5
ATOM      5  C   UNL     1       1.774   6.927  20.196  0.00  0.00    +0.000 A 
ATOM      6  C   UNL     1       1.534   5.650  20.705  0.00  0.00    +0.000 A 
ATOM      7  C   UNL     1       1.875   4.513  19.970  0.00  0.00    +0.000 A 
ATOM      8  C   UNL     1       2.424   4.649  18.695  0.00  0.00    +0.000 A 
ATOM      9  C   UNL     1       2.501   5.922  18.120  0.00  0.00    +0.000 A 
ATOM     10  C   UNL     1       2.219   7.058  18.880  0.00  0.00    +0.000 A 
BRANCH   8  11
ATOM     11  C   UNL     1       2.967   3.425  18.038  0.00  0.00    +0.000 C 
ATOM     12  O   UNL     1       2.242   2.741  17.330  0.00  0.00    +0.000 OA
ATOM     13  N   UNL     1       4.257   3.028  18.287  0.00  0.00    +0.000 N 
ATOM     14  H   UNL     1       4.508   2.154  17.840  0.00  0.00    +0.000 HD
BRANCH  13  15
ATOM     15  C   UNL     1       5.235   3.641  19.162  0.00  0.00    +0.000 C 
BRANCH  15  16
ATOM     16  C   UNL     1       6.039   4.688  18.468  0.00  0.00    +0.000 A 
ATOM     17  C   UNL     1       6.893   5.523  19.193  0.00  0.00    +0.000 A 
ATOM     18  C   UNL     1       7.610   6.519  18.536  0.00  0.00    +0.000 A 
ATOM     19  C   UNL     1       7.474   6.677  17.157  0.00  0.00    +0.000 A 
ATOM     20  C   UNL     1       6.642   5.833  16.424  0.00  0.00    +0.000 A 
ATOM     21  C   UNL     1       5.924   4.839  17.078  0.00  0.00    +0.000 A 
ENDBRANCH  15  16
ENDBRANCH  13  15
ENDBRANCH   8  11
ENDBRANCH   3   5
BRANCH   2  22
ATOM     22  C   UNL     1       0.459   9.914  22.156  0.00  0.00    +0.000 C 
BRANCH  22  23
ATOM     23  S   UNL     1       0.980  11.268  21.073  0.00  0.00    +0.000 S 
BRANCH  23  24
ATOM     24  C   UNL     1      -0.420  11.349  20.034  0.00  0.00    +0.000 A 
ATOM     25  N   UNL     1      -0.475  10.675  18.926  0.00  0.00    +0.000 NA
ATOM     26  C   UNL     1      -1.681  10.721  18.178  0.00  0.00    +0.000 A 
ATOM     27  C   UNL     1      -1.771   9.971  17.007  0.00  0.00    +0.000 A 
ATOM     28  C   UNL     1      -2.960   9.944  16.269  0.00  0.00    +0.000 A 
ATOM     29  C   UNL     1      -4.073  10.674  16.695  0.00  0.00    +0.000 A 
ATOM     30  C   UNL     1      -4.008  11.445  17.856  0.00  0.00    +0.000 A 
ATOM     31  C   UNL     1      -2.816  11.458  18.584  0.00  0.00    +0.000 A 
ATOM     32  N   UNL     1      -2.669  12.190  19.767  0.00  0.00    +0.000 N 
ATOM     33  C   UNL     1      -3.502  13.016  20.457  0.00  0.00    +0.000 A 
ATOM     34  N   UNL     1      -2.874  13.486  21.517  0.00  0.00    +0.000 NA
ATOM     35  N   UNL     1      -1.605  12.943  21.535  0.00  0.00    +0.000 NA
ATOM     36  C   UNL     1      -1.509  12.156  20.484  0.00  0.00    +0.000 A 
ENDBRANCH  23  24
ENDBRANCH  22  23
ENDBRANCH   2  22
TORSDOF 7
ENDMDL
MODEL 2
REMARK VINA RESULT:      -9.1      1.929      3.118
REMARK  Name = 
REMARK  7 active torsions:
REMARK  status: ('A' for Active; 'I' for Inactive)
REMARK    1  A    between atoms: C_2  and  C_3
REMARK    2  A    between atoms: C_3  and  S_4
REMARK    3  A    between atoms: S_4  and  C_5
REMARK    4  A    between atoms: N_18  and  C_19
REMARK    5  A    between atoms: C_22  and  C_23
REMARK    6  A    between atoms: N_25  and  C_26
REMARK    7  A    between atoms: C_26  and  C_27
REMARK                            x       y       z     vdW  Elec       q    Type
REMARK                         _______ _______ _______ _____ _____    ______ ____
ROOT
ATOM      1  O   UNL     1      -0.805   8.316  22.027  0.00  0.00    +0.000 OA
ATOM      2  C   UNL     1      -0.300   9.411  21.795  0.00  0.00    +0.000 C 
ATOM      3  N   UNL     1       0.791   9.627  20.973  0.00  0.00    +0.000 N 
ATOM      4  H   UNL     1       1.233  10.542  21.025  0.00  0.00    +0.000 HD
ENDROOT
BRANCH   3   5
ATOM      5  C   UNL     1       1.413   8.676  20.146  0.00  0.00    +0.000 A 
ATOM      6  C   UNL     1       1.960   7.484  20.623  0.00  0.00    +0.000 A 
ATOM      7  C   UNL     1       2.691   6.647  19.779  0.00  0.00    +0.000 A 
ATOM      8  C   UNL     1       2.846   6.981  18.434  0.00  0.00    +0.000 A 
ATOM      9  C   UNL     1       2.152   8.083  17.922  0.00  0.00    +0.000 A 
ATOM     10  C   UNL     1       1.474   8.950  18.781  0.00  0.00    +0.000 A 
BRANCH   8  11
ATOM     11  C   UNL     1       3.807   6.177  17.624  0.00  0.00    +0.000 C 
ATOM     12  O   UNL     1       4.845   6.686  17.227  0.00  0.00    +0.000 OA
ATOM     13  N   UNL     1       3.491   4.890  17.263  0.00  0.00    +0.000 N 
ATOM     14  H   UNL     1       4.182   4.453  16.665  0.00  0.00    +0.000 HD
BRANCH  13  15
ATOM     15  C   UNL     1       2.282   4.146  17.549  0.00  0.00    +0.000 C 
BRANCH  15  16
ATOM     16  C   UNL     1       2.264   3.604  18.938  0.00  0.00    +0.000 A 
ATOM     17  C   UNL     1       3.427   3.090  19.515  0.00  0.00    +0.000 A 
ATOM     18  C   UNL     1       3.386   2.554  20.798  0.00  0.00    +0.000 A 
ATOM     19  C   UNL     1       2.183   2.535  21.505  0.00  0.00    +0.000 A 
ATOM     20  C   UNL     1       1.023   3.067  20.944  0.00  0.00    +0.000 A 
ATOM     21  C   UNL     1       1.061   3.600  19.662  0.00  0.00    +0.000 A 
ENDBRANCH  15  16
ENDBRANCH  13  15
ENDBRANCH   8  11
ENDBRANCH   3   5
BRANCH   2  22
ATOM     22  C   UNL     1      -0.827  10.641  22.517  0.00  0.00    +0.000 C 
BRANCH  22  23
ATOM     23  S   UNL     1      -0.511  12.197  21.649  0.00  0.00    +0.000 S 
BRANCH  23  24
ATOM     24  C   UNL     1      -1.580  11.980  20.286  0.00  0.00    +0.000 A 
ATOM     25  N   UNL     1      -1.201  11.324  19.233  0.00  0.00    +0.000 NA
ATOM     26  C   UNL     1      -2.155  11.113  18.202  0.00  0.00    +0.000 A 
ATOM     27  C   UNL     1      -1.777  10.376  17.081  0.00  0.00    +0.000 A 
ATOM     28  C   UNL     1      -2.701  10.097  16.069  0.00  0.00    +0.000 A 
ATOM     29  C   UNL     1      -4.016  10.558  16.165  0.00  0.00    +0.000 A 
ATOM     30  C   UNL     1      -4.420  11.310  17.268  0.00  0.00    +0.000 A 
ATOM     31  C   UNL     1      -3.487  11.576  18.273  0.00  0.00    +0.000 A 
ATOM     32  N   UNL     1      -3.811  12.308  19.421  0.00  0.00    +0.000 N 
ATOM     33  C   UNL     1      -4.952  12.922  19.840  0.00  0.00    +0.000 A 
ATOM     34  N   UNL     1      -4.734  13.506  21.002  0.00  0.00    +0.000 NA
ATOM     35  N   UNL     1      -3.426  13.256  21.365  0.00  0.00    +0.000 NA
ATOM     36  C   UNL     1      -2.895  12.521  20.410  0.00  0.00    +0.000 A 
ENDBRANCH  23  24
ENDBRANCH  22  23
ENDBRANCH   2  22
TORSDOF 7
ENDMDL
MODEL 3
REMARK VINA RESULT:      -9.0      2.554      9.516
REMARK  Name = 
REMARK  7 active torsions:
REMARK  status: ('A' for Active; 'I' for Inactive)
REMARK    1  A    between atoms: C_2  and  C_3
REMARK    2  A    between atoms: C_3  and  S_4
REMARK    3  A    between atoms: S_4  and  C_5
REMARK    4  A    between atoms: N_18  and  C_19
REMARK    5  A    between atoms: C_22  and  C_23
REMARK    6  A    between atoms: N_25  and  C_26
REMARK    7  A    between atoms: C_26  and  C_27
REMARK                            x       y       z     vdW  Elec       q    Type
REMARK                         _______ _______ _______ _____ _____    ______ ____
ROOT
ATOM      1  O   UNL     1       0.911   4.892  17.425  0.00  0.00    +0.000 OA
ATOM      2  C   UNL     1       1.731   4.608  18.295  0.00  0.00    +0.000 C 
ATOM      3  N   UNL     1       2.421   5.523  19.069  0.00  0.00    +0.000 N 
ATOM      4  H   UNL     1       3.212   5.171  19.604  0.00  0.00    +0.000 HD
ENDROOT
BRANCH   3   5
ATOM      5  C   UNL     1       2.203   6.910  19.112  0.00  0.00    +0.000 A 
ATOM      6  C   UNL     1       1.756   7.583  20.250  0.00  0.00    +0.000 A 
ATOM      7  C   UNL     1       1.420   8.936  20.192  0.00  0.00    +0.000 A 
ATOM      8  C   UNL     1       1.568   9.639  18.997  0.00  0.00    +0.000 A 
ATOM      9  C   UNL     1       2.179   9.006  17.908  0.00  0.00    +0.000 A 
ATOM     10  C   UNL     1       2.456   7.639  17.950  0.00  0.00    +0.000 A 
BRANCH   8  11
ATOM     11  C   UNL     1       0.999  11.016  18.924  0.00  0.00    +0.000 C 
ATOM     12  O   UNL     1       1.734  11.986  19.042  0.00  0.00    +0.000 OA
ATOM     13  N   UNL     1      -0.357  11.192  18.797  0.00  0.00    +0.000 N 
ATOM     14  H   UNL     1      -0.645  12.162  18.817  0.00  0.00    +0.000 HD
BRANCH  13  15
ATOM     15  C   UNL     1      -1.394  10.183  18.739  0.00  0.00    +0.000 C 
BRANCH  15  16
ATOM     16  C   UNL     1      -2.308  10.374  17.576  0.00  0.00    +0.000 A 
ATOM     17  C   UNL     1      -3.419  11.214  17.676  0.00  0.00    +0.000 A 
ATOM     18  C   UNL     1      -4.282  11.355  16.594  0.00  0.00    +0.000 A 
ATOM     19  C   UNL     1      -4.032  10.658  15.412  0.00  0.00    +0.000 A 
ATOM     20  C   UNL     1      -2.913   9.835  15.297  0.00  0.00    +0.000 A 
ATOM     21  C   UNL     1      -2.050   9.692  16.377  0.00  0.00    +0.000 A 
ENDBRANCH  15  16
ENDBRANCH  13  15
ENDBRANCH   8  11
ENDBRANCH   3   5
BRANCH   2  22
ATOM     22  C   UNL     1       2.113   3.152  18.508  0.00  0.00    +0.000 C 
BRANCH  22  23
ATOM     23  S   UNL     1       3.665   2.922  19.411  0.00  0.00    +0.000 S 
BRANCH  23  24
ATOM     24  C   UNL     1       4.781   3.510  18.206  0.00  0.00    +0.000 A 
ATOM     25  N   UNL     1       4.626   3.224  16.950  0.00  0.00    +0.000 NA
ATOM     26  C   UNL     1       5.522   3.812  16.018  0.00  0.00    +0.000 A 
ATOM     27  C   UNL     1       5.345   3.548  14.661  0.00  0.00    +0.000 A 
ATOM     28  C   UNL     1       6.170   4.150  13.705  0.00  0.00    +0.000 A 
ATOM     29  C   UNL     1       7.188   5.023  14.099  0.00  0.00    +0.000 A 
ATOM     30  C   UNL     1       7.398   5.296  15.451  0.00  0.00    +0.000 A 
ATOM     31  C   UNL     1       6.563   4.691  16.393  0.00  0.00    +0.000 A 
ATOM     32  N   UNL     1       6.692   4.921  17.766  0.00  0.00    +0.000 N 
ATOM     33  C   UNL     1       7.558   5.668  18.505  0.00  0.00    +0.000 A 
ATOM     34  N   UNL     1       7.271   5.534  19.785  0.00  0.00    +0.000 NA
ATOM     35  N   UNL     1       6.180   4.694  19.891  0.00  0.00    +0.000 NA
ATOM     36  C   UNL     1       5.839   4.352  18.666  0.00  0.00    +0.000 A 
ENDBRANCH  23  24
ENDBRANCH  22  23
ENDBRANCH   2  22
TORSDOF 7
ENDMDL
MODEL 4
REMARK VINA RESULT:      -9.0      2.188      4.128
REMARK  Name = 
REMARK  7 active torsions:
REMARK  status: ('A' for Active; 'I' for Inactive)
REMARK    1  A    between atoms: C_2  and  C_3
REMARK    2  A    between atoms: C_3  and  S_4
REMARK    3  A    between atoms: S_4  and  C_5
REMARK    4  A    between atoms: N_18  and  C_19
REMARK    5  A    between atoms: C_22  and  C_23
REMARK    6  A    between atoms: N_25  and  C_26
REMARK    7  A    between atoms: C_26  and  C_27
REMARK                            x       y       z     vdW  Elec       q    Type
REMARK                         _______ _______ _______ _____ _____    ______ ____
ROOT
ATOM      1  O   UNL     1       1.373  10.383  22.033  0.00  0.00    +0.000 OA
ATOM      2  C   UNL     1       0.376  10.385  21.314  0.00  0.00    +0.000 C 
ATOM      3  N   UNL     1       0.299   9.809  20.059  0.00  0.00    +0.000 N 
ATOM      4  H   UNL     1      -0.507  10.055  19.489  0.00  0.00    +0.000 HD
ENDROOT
BRANCH   3   5
ATOM      5  C   UNL     1       1.273   8.999  19.452  0.00  0.00    +0.000 A 
ATOM      6  C   UNL     1       1.797   9.248  18.182  0.00  0.00    +0.000 A 
ATOM      7  C   UNL     1       2.653   8.330  17.572  0.00  0.00    +0.000 A 
ATOM      8  C   UNL     1       3.025   7.169  18.250  0.00  0.00    +0.000 A 
ATOM      9  C   UNL     1       2.638   7.008  19.585  0.00  0.00    +0.000 A 
ATOM     10  C   UNL     1       1.733   7.896  20.169  0.00  0.00    +0.000 A 
BRANCH   8  11
ATOM     11  C   UNL     1       3.762   6.122  17.485  0.00  0.00    +0.000 C 
ATOM     12  O   UNL     1       4.812   6.403  16.924  0.00  0.00    +0.000 OA
ATOM     13  N   UNL     1       3.225   4.866  17.349  0.00  0.00    +0.000 N 
ATOM     14  H   UNL     1       3.775   4.249  16.763  0.00  0.00    +0.000 HD
BRANCH  13  15
ATOM     15  C   UNL     1       1.961   4.369  17.850  0.00  0.00    +0.000 C 
BRANCH  15  16
ATOM     16  C   UNL     1       2.096   3.717  19.185  0.00  0.00    +0.000 A 
ATOM     17  C   UNL     1       3.317   3.172  19.589  0.00  0.00    +0.000 A 
ATOM     18  C   UNL     1       3.418   2.535  20.822  0.00  0.00    +0.000 A 
ATOM     19  C   UNL     1       2.299   2.447  21.651  0.00  0.00    +0.000 A 
ATOM     20  C   UNL     1       1.083   3.008  21.264  0.00  0.00    +0.000 A 
ATOM     21  C   UNL     1       0.980   3.643  20.033  0.00  0.00    +0.000 A 
ENDBRANCH  15  16
ENDBRANCH  13  15
ENDBRANCH   8  11
ENDBRANCH   3   5
BRANCH   2  22
ATOM     22  C   UNL     1      -0.861  11.145  21.762  0.00  0.00    +0.000 C 
BRANCH  22  23
ATOM     23  S   UNL     1      -1.102  12.726  20.914  0.00  0.00    +0.000 S 
BRANCH  23  24
ATOM     24  C   UNL     1      -2.608  12.381  20.102  0.00  0.00    +0.000 A 
ATOM     25  N   UNL     1      -3.746  12.720  20.624  0.00  0.00    +0.000 NA
ATOM     26  C   UNL     1      -4.923  12.486  19.863  0.00  0.00    +0.000 A 
ATOM     27  C   UNL     1      -6.151  12.880  20.392  0.00  0.00    +0.000 A 
ATOM     28  C   UNL     1      -7.328  12.720  19.653  0.00  0.00    +0.000 A 
ATOM     29  C   UNL     1      -7.289  12.157  18.375  0.00  0.00    +0.000 A 
ATOM     30  C   UNL     1      -6.077  11.740  17.825  0.00  0.00    +0.000 A 
ATOM     31  C   UNL     1      -4.910  11.911  18.573  0.00  0.00    +0.000 A 
ATOM     32  N   UNL     1      -3.651  11.537  18.092  0.00  0.00    +0.000 N 
ATOM     33  C   UNL     1      -3.234  10.951  16.937  0.00  0.00    +0.000 A 
ATOM     34  N   UNL     1      -1.927  10.785  16.975  0.00  0.00    +0.000 NA
ATOM     35  N   UNL     1      -1.469  11.290  18.175  0.00  0.00    +0.000 NA
ATOM     36  C   UNL     1      -2.518  11.751  18.823  0.00  0.00    +0.000 A 
ENDBRANCH  23  24
ENDBRANCH  22  23
ENDBRANCH   2  22
TORSDOF 7
ENDMDL
MODEL 5
REMARK VINA RESULT:      -8.9      2.129      4.096
REMARK  Name = 
REMARK  7 active torsions:
REMARK  status: ('A' for Active; 'I' for Inactive)
REMARK    1  A    between atoms: C_2  and  C_3
REMARK    2  A    between atoms: C_3  and  S_4
REMARK    3  A    between atoms: S_4  and  C_5
REMARK    4  A    between atoms: N_18  and  C_19
REMARK    5  A    between atoms: C_22  and  C_23
REMARK    6  A    between atoms: N_25  and  C_26
REMARK    7  A    between atoms: C_26  and  C_27
REMARK                            x       y       z     vdW  Elec       q    Type
REMARK                         _______ _______ _______ _____ _____    ______ ____
ROOT
ATOM      1  O   UNL     1      -0.526   8.730  21.227  0.00  0.00    +0.000 OA
ATOM      2  C   UNL     1      -0.134   9.757  20.676  0.00  0.00    +0.000 C 
ATOM      3  N   UNL     1       0.928   9.832  19.794  0.00  0.00    +0.000 N 
ATOM      4  H   UNL     1       1.275  10.761  19.570  0.00  0.00    +0.000 HD
ENDROOT
BRANCH   3   5
ATOM      5  C   UNL     1       1.642   8.749  19.255  0.00  0.00    +0.000 A 
ATOM      6  C   UNL     1       2.070   7.657  20.012  0.00  0.00    +0.000 A 
ATOM      7  C   UNL     1       2.898   6.683  19.453  0.00  0.00    +0.000 A 
ATOM      8  C   UNL     1       3.272   6.774  18.113  0.00  0.00    +0.000 A 
ATOM      9  C   UNL     1       2.702   7.772  17.314  0.00  0.00    +0.000 A 
ATOM     10  C   UNL     1       1.925   8.778  17.890  0.00  0.00    +0.000 A 
BRANCH   8  11
ATOM     11  C   UNL     1       4.323   5.837  17.618  0.00  0.00    +0.000 C 
ATOM     12  O   UNL     1       5.451   6.250  17.393  0.00  0.00    +0.000 OA
ATOM     13  N   UNL     1       4.002   4.530  17.345  0.00  0.00    +0.000 N 
ATOM     14  H   UNL     1       4.770   3.995  16.959  0.00  0.00    +0.000 HD
BRANCH  13  15
ATOM     15  C   UNL     1       2.714   3.878  17.451  0.00  0.00    +0.000 C 
BRANCH  15  16
ATOM     16  C   UNL     1       2.413   3.439  18.845  0.00  0.00    +0.000 A 
ATOM     17  C   UNL     1       1.115   3.527  19.353  0.00  0.00    +0.000 A 
ATOM     18  C   UNL     1       0.857   3.147  20.666  0.00  0.00    +0.000 A 
ATOM     19  C   UNL     1       1.896   2.677  21.469  0.00  0.00    +0.000 A 
ATOM     20  C   UNL     1       3.190   2.565  20.962  0.00  0.00    +0.000 A 
ATOM     21  C   UNL     1       3.450   2.945  19.651  0.00  0.00    +0.000 A 
ENDBRANCH  15  16
ENDBRANCH  13  15
ENDBRANCH   8  11
ENDBRANCH   3   5
BRANCH   2  22
ATOM     22  C   UNL     1      -0.782  11.085  21.033  0.00  0.00    +0.000 C 
BRANCH  22  23
ATOM     23  S   UNL     1      -0.847  12.265  19.663  0.00  0.00    +0.000 S 
BRANCH  23  24
ATOM     24  C   UNL     1      -2.529  12.098  19.229  0.00  0.00    +0.000 A 
ATOM     25  N   UNL     1      -3.473  12.436  20.053  0.00  0.00    +0.000 NA
ATOM     26  C   UNL     1      -4.816  12.356  19.597  0.00  0.00    +0.000 A 
ATOM     27  C   UNL     1      -5.839  12.753  20.456  0.00  0.00    +0.000 A 
ATOM     28  C   UNL     1      -7.171  12.743  20.027  0.00  0.00    +0.000 A 
ATOM     29  C   UNL     1      -7.494  12.328  18.733  0.00  0.00    +0.000 A 
ATOM     30  C   UNL     1      -6.493  11.912  17.856  0.00  0.00    +0.000 A 
ATOM     31  C   UNL     1      -5.167  11.932  18.296  0.00  0.00    +0.000 A 
ATOM     32  N   UNL     1      -4.100  11.547  17.478  0.00  0.00    +0.000 N 
ATOM     33  C   UNL     1      -4.031  11.075  16.203  0.00  0.00    +0.000 A 
ATOM     34  N   UNL     1      -2.772  10.836  15.892  0.00  0.00    +0.000 NA
ATOM     35  N   UNL     1      -1.993  11.174  16.980  0.00  0.00    +0.000 NA
ATOM     36  C   UNL     1      -2.809  11.614  17.915  0.00  0.00    +0.000 A 
ENDBRANCH  23  24
ENDBRANCH  22  23
ENDBRANCH   2  22
TORSDOF 7
ENDMDL
MODEL 6
REMARK VINA RESULT:      -8.9      2.582      9.646
REMARK  Name = 
REMARK  7 active torsions:
REMARK  status: ('A' for Active; 'I' for Inactive)
REMARK    1  A    between atoms: C_2  and  C_3
REMARK    2  A    between atoms: C_3  and  S_4
REMARK    3  A    between atoms: S_4  and  C_5
REMARK    4  A    between atoms: N_18  and  C_19
REMARK    5  A    between atoms: C_22  and  C_23
REMARK    6  A    between atoms: N_25  and  C_26
REMARK    7  A    between atoms: C_26  and  C_27
REMARK                            x       y       z     vdW  Elec       q    Type
REMARK                         _______ _______ _______ _____ _____    ______ ____
ROOT
ATOM      1  O   UNL     1       1.554   5.108  18.707  0.00  0.00    +0.000 OA
ATOM      2  C   UNL     1       2.387   5.370  19.572  0.00  0.00    +0.000 C 
ATOM      3  N   UNL     1       2.722   6.644  19.994  0.00  0.00    +0.000 N 
ATOM      4  H   UNL     1       3.562   6.735  20.562  0.00  0.00    +0.000 HD
ENDROOT
BRANCH   3   5
ATOM      5  C   UNL     1       2.077   7.839  19.633  0.00  0.00    +0.000 A 
ATOM      6  C   UNL     1       2.116   8.374  18.345  0.00  0.00    +0.000 A 
ATOM      7  C   UNL     1       1.579   9.635  18.081  0.00  0.00    +0.000 A 
ATOM      8  C   UNL     1       0.959  10.355  19.101  0.00  0.00    +0.000 A 
ATOM      9  C   UNL     1       0.769   9.743  20.346  0.00  0.00    +0.000 A 
ATOM     10  C   UNL     1       1.361   8.510  20.623  0.00  0.00    +0.000 A 
BRANCH   8  11
ATOM     11  C   UNL     1       0.593  11.775  18.829  0.00  0.00    +0.000 C 
ATOM     12  O   UNL     1       1.470  12.617  18.705  0.00  0.00    +0.000 OA
ATOM     13  N   UNL     1      -0.728  12.148  18.792  0.00  0.00    +0.000 N 
ATOM     14  H   UNL     1      -0.867  13.142  18.660  0.00  0.00    +0.000 HD
BRANCH  13  15
ATOM     15  C   UNL     1      -1.901  11.327  19.009  0.00  0.00    +0.000 C 
BRANCH  15  16
ATOM     16  C   UNL     1      -2.581  10.960  17.733  0.00  0.00    +0.000 A 
ATOM     17  C   UNL     1      -2.016  10.015  16.874  0.00  0.00    +0.000 A 
ATOM     18  C   UNL     1      -2.644   9.710  15.670  0.00  0.00    +0.000 A 
ATOM     19  C   UNL     1      -3.837  10.348  15.328  0.00  0.00    +0.000 A 
ATOM     20  C   UNL     1      -4.418  11.276  16.192  0.00  0.00    +0.000 A 
ATOM     21  C   UNL     1      -3.792  11.583  17.393  0.00  0.00    +0.000 A 
ENDBRANCH  15  16
ENDBRANCH  13  15
ENDBRANCH   8  11
ENDBRANCH   3   5
BRANCH   2  22
ATOM     22  C   UNL     1       3.200   4.243  20.188  0.00  0.00    +0.000 C 
BRANCH  22  23
ATOM     23  S   UNL     1       3.394   2.801  19.111  0.00  0.00    +0.000 S 
BRANCH  23  24
ATOM     24  C   UNL     1       4.587   3.435  18.007  0.00  0.00    +0.000 A 
ATOM     25  N   UNL     1       4.495   3.232  16.729  0.00  0.00    +0.000 NA
ATOM     26  C   UNL     1       5.454   3.853  15.885  0.00  0.00    +0.000 A 
ATOM     27  C   UNL     1       5.346   3.679  14.507  0.00  0.00    +0.000 A 
ATOM     28  C   UNL     1       6.237   4.318  13.637  0.00  0.00    +0.000 A 
ATOM     29  C   UNL     1       7.251   5.137  14.140  0.00  0.00    +0.000 A 
ATOM     30  C   UNL     1       7.392   5.320  15.515  0.00  0.00    +0.000 A 
ATOM     31  C   UNL     1       6.493   4.679  16.371  0.00  0.00    +0.000 A 
ATOM     32  N   UNL     1       6.552   4.819  17.761  0.00  0.00    +0.000 N 
ATOM     33  C   UNL     1       7.392   5.495  18.591  0.00  0.00    +0.000 A 
ATOM     34  N   UNL     1       7.033   5.289  19.843  0.00  0.00    +0.000 NA
ATOM     35  N   UNL     1       5.919   4.473  19.836  0.00  0.00    +0.000 NA
ATOM     36  C   UNL     1       5.638   4.217  18.576  0.00  0.00    +0.000 A 
ENDBRANCH  23  24
ENDBRANCH  22  23
ENDBRANCH   2  22
TORSDOF 7
ENDMDL
MODEL 7
REMARK VINA RESULT:      -8.8      6.518     10.095
REMARK  Name = 
REMARK  7 active torsions:
REMARK  status: ('A' for Active; 'I' for Inactive)
REMARK    1  A    between atoms: C_2  and  C_3
REMARK    2  A    between atoms: C_3  and  S_4
REMARK    3  A    between atoms: S_4  and  C_5
REMARK    4  A    between atoms: N_18  and  C_19
REMARK    5  A    between atoms: C_22  and  C_23
REMARK    6  A    between atoms: N_25  and  C_26
REMARK    7  A    between atoms: C_26  and  C_27
REMARK                            x       y       z     vdW  Elec       q    Type
REMARK                         _______ _______ _______ _____ _____    ______ ____
ROOT
ATOM      1  O   UNL     1       7.733   7.917  16.974  0.00  0.00    +0.000 OA
ATOM      2  C   UNL     1       8.026   7.676  18.143  0.00  0.00    +0.000 C 
ATOM      3  N   UNL     1       8.670   8.550  18.999  0.00  0.00    +0.000 N 
ATOM      4  H   UNL     1       9.033   8.162  19.866  0.00  0.00    +0.000 HD
ENDROOT
BRANCH   3   5
ATOM      5  C   UNL     1       8.962   9.901  18.746  0.00  0.00    +0.000 A 
ATOM      6  C   UNL     1       8.239  10.689  17.848  0.00  0.00    +0.000 A 
ATOM      7  C   UNL     1       8.665  11.979  17.530  0.00  0.00    +0.000 A 
ATOM      8  C   UNL     1       9.800  12.508  18.142  0.00  0.00    +0.000 A 
ATOM      9  C   UNL     1      10.420  11.783  19.167  0.00  0.00    +0.000 A 
ATOM     10  C   UNL     1      10.030  10.470  19.438  0.00  0.00    +0.000 A 
BRANCH   8  11
ATOM     11  C   UNL     1      10.338  13.797  17.618  0.00  0.00    +0.000 C 
ATOM     12  O   UNL     1      11.319  13.797  16.890  0.00  0.00    +0.000 OA
ATOM     13  N   UNL     1       9.775  14.986  18.014  0.00  0.00    +0.000 N 
ATOM     14  H   UNL     1      10.250  15.802  17.649  0.00  0.00    +0.000 HD
BRANCH  13  15
ATOM     15  C   UNL     1       8.679  15.200  18.936  0.00  0.00    +0.000 C 
BRANCH  15  16
ATOM     16  C   UNL     1       9.140  15.297  20.352  0.00  0.00    +0.000 A 
ATOM     17  C   UNL     1       8.744  14.345  21.294  0.00  0.00    +0.000 A 
ATOM     18  C   UNL     1       9.152  14.469  22.618  0.00  0.00    +0.000 A 
ATOM     19  C   UNL     1       9.957  15.543  22.999  0.00  0.00    +0.000 A 
ATOM     20  C   UNL     1      10.374  16.485  22.059  0.00  0.00    +0.000 A 
ATOM     21  C   UNL     1       9.966  16.363  20.737  0.00  0.00    +0.000 A 
ENDBRANCH  15  16
ENDBRANCH  13  15
ENDBRANCH   8  11
ENDBRANCH   3   5
BRANCH   2  22
ATOM     22  C   UNL     1       7.758   6.289  18.705  0.00  0.00    +0.000 C 
BRANCH  22  23
ATOM     23  S   UNL     1       7.016   5.143  17.517  0.00  0.00    +0.000 S 
BRANCH  23  24
ATOM     24  C   UNL     1       5.472   4.898  18.292  0.00  0.00    +0.000 A 
ATOM     25  N   UNL     1       5.241   3.844  19.013  0.00  0.00    +0.000 NA
ATOM     26  C   UNL     1       3.992   3.757  19.685  0.00  0.00    +0.000 A 
ATOM     27  C   UNL     1       3.744   2.651  20.496  0.00  0.00    +0.000 A 
ATOM     28  C   UNL     1       2.550   2.553  21.219  0.00  0.00    +0.000 A 
ATOM     29  C   UNL     1       1.587   3.562  21.133  0.00  0.00    +0.000 A 
ATOM     30  C   UNL     1       1.801   4.674  20.318  0.00  0.00    +0.000 A 
ATOM     31  C   UNL     1       3.000   4.760  19.607  0.00  0.00    +0.000 A 
ATOM     32  N   UNL     1       3.304   5.846  18.780  0.00  0.00    +0.000 N 
ATOM     33  C   UNL     1       2.620   6.972  18.438  0.00  0.00    +0.000 A 
ATOM     34  N   UNL     1       3.343   7.686  17.596  0.00  0.00    +0.000 NA
ATOM     35  N   UNL     1       4.537   7.023  17.393  0.00  0.00    +0.000 NA
ATOM     36  C   UNL     1       4.499   5.930  18.126  0.00  0.00    +0.000 A 
ENDBRANCH  23  24
ENDBRANCH  22  23
ENDBRANCH   2  22
TORSDOF 7
ENDMDL
MODEL 8
REMARK VINA RESULT:      -8.7      1.646      3.156
REMARK  Name = 
REMARK  7 active torsions:
REMARK  status: ('A' for Active; 'I' for Inactive)
REMARK    1  A    between atoms: C_2  and  C_3
REMARK    2  A    between atoms: C_3  and  S_4
REMARK    3  A    between atoms: S_4  and  C_5
REMARK    4  A    between atoms: N_18  and  C_19
REMARK    5  A    between atoms: C_22  and  C_23
REMARK    6  A    between atoms: N_25  and  C_26
REMARK    7  A    between atoms: C_26  and  C_27
REMARK                            x       y       z     vdW  Elec       q    Type
REMARK                         _______ _______ _______ _____ _____    ______ ____
ROOT
ATOM      1  O   UNL     1       0.093   9.834  18.462  0.00  0.00    +0.000 OA
ATOM      2  C   UNL     1       0.573  10.007  19.579  0.00  0.00    +0.000 C 
ATOM      3  N   UNL     1       1.311   9.071  20.282  0.00  0.00    +0.000 N 
ATOM      4  H   UNL     1       1.475   9.262  21.268  0.00  0.00    +0.000 HD
ENDROOT
BRANCH   3   5
ATOM      5  C   UNL     1       1.769   7.835  19.797  0.00  0.00    +0.000 A 
ATOM      6  C   UNL     1       2.415   7.683  18.569  0.00  0.00    +0.000 A 
ATOM      7  C   UNL     1       2.717   6.413  18.075  0.00  0.00    +0.000 A 
ATOM      8  C   UNL     1       2.409   5.283  18.830  0.00  0.00    +0.000 A 
ATOM      9  C   UNL     1       1.922   5.446  20.132  0.00  0.00    +0.000 A 
ATOM     10  C   UNL     1       1.564   6.712  20.597  0.00  0.00    +0.000 A 
BRANCH   8  11
ATOM     11  C   UNL     1       2.552   3.949  18.177  0.00  0.00    +0.000 C 
ATOM     12  O   UNL     1       1.612   3.468  17.561  0.00  0.00    +0.000 OA
ATOM     13  N   UNL     1       3.712   3.231  18.331  0.00  0.00    +0.000 N 
ATOM     14  H   UNL     1       3.685   2.316  17.898  0.00  0.00    +0.000 HD
BRANCH  13  15
ATOM     15  C   UNL     1       4.892   3.580  19.095  0.00  0.00    +0.000 C 
BRANCH  15  16
ATOM     16  C   UNL     1       5.757   4.566  18.385  0.00  0.00    +0.000 A 
ATOM     17  C   UNL     1       5.760   4.634  16.990  0.00  0.00    +0.000 A 
ATOM     18  C   UNL     1       6.599   5.535  16.341  0.00  0.00    +0.000 A 
ATOM     19  C   UNL     1       7.431   6.369  17.088  0.00  0.00    +0.000 A 
ATOM     20  C   UNL     1       7.417   6.323  18.481  0.00  0.00    +0.000 A 
ATOM     21  C   UNL     1       6.581   5.423  19.131  0.00  0.00    +0.000 A 
ENDBRANCH  15  16
ENDBRANCH  13  15
ENDBRANCH   8  11
ENDBRANCH   3   5
BRANCH   2  22
ATOM     22  C   UNL     1       0.284  11.302  20.320  0.00  0.00    +0.000 C 
BRANCH  22  23
ATOM     23  S   UNL     1      -0.377  12.620  19.270  0.00  0.00    +0.000 S 
BRANCH  23  24
ATOM     24  C   UNL     1      -2.076  12.430  19.619  0.00  0.00    +0.000 A 
ATOM     25  N   UNL     1      -2.562  12.741  20.782  0.00  0.00    +0.000 NA
ATOM     26  C   UNL     1      -3.968  12.644  20.963  0.00  0.00    +0.000 A 
ATOM     27  C   UNL     1      -4.511  13.011  22.192  0.00  0.00    +0.000 A 
ATOM     28  C   UNL     1      -5.895  12.984  22.395  0.00  0.00    +0.000 A 
ATOM     29  C   UNL     1      -6.752  12.582  21.368  0.00  0.00    +0.000 A 
ATOM     30  C   UNL     1      -6.237  12.195  20.131  0.00  0.00    +0.000 A 
ATOM     31  C   UNL     1      -4.853  12.233  19.942  0.00  0.00    +0.000 A 
ATOM     32  N   UNL     1      -4.253  11.877  18.729  0.00  0.00    +0.000 N 
ATOM     33  C   UNL     1      -4.749  11.424  17.545  0.00  0.00    +0.000 A 
ATOM     34  N   UNL     1      -3.754  11.211  16.706  0.00  0.00    +0.000 NA
ATOM     35  N   UNL     1      -2.578  11.547  17.347  0.00  0.00    +0.000 NA
ATOM     36  C   UNL     1      -2.902  11.960  18.553  0.00  0.00    +0.000 A 
ENDBRANCH  23  24
ENDBRANCH  22  23
ENDBRANCH   2  22
TORSDOF 7
ENDMDL
MODEL 9
REMARK VINA RESULT:      -8.7      2.514      4.462
REMARK  Name = 
REMARK  7 active torsions:
REMARK  status: ('A' for Active; 'I' for Inactive)
REMARK    1  A    between atoms: C_2  and  C_3
REMARK    2  A    between atoms: C_3  and  S_4
REMARK    3  A    between atoms: S_4  and  C_5
REMARK    4  A    between atoms: N_18  and  C_19
REMARK    5  A    between atoms: C_22  and  C_23
REMARK    6  A    between atoms: N_25  and  C_26
REMARK    7  A    between atoms: C_26  and  C_27
REMARK                            x       y       z     vdW  Elec       q    Type
REMARK                         _______ _______ _______ _____ _____    ______ ____
ROOT
ATOM      1  O   UNL     1       2.522  10.421  17.922  0.00  0.00    +0.000 OA
ATOM      2  C   UNL     1       1.529   9.785  18.269  0.00  0.00    +0.000 C 
ATOM      3  N   UNL     1       1.483   8.414  18.442  0.00  0.00    +0.000 N 
ATOM      4  H   UNL     1       0.561   7.992  18.531  0.00  0.00    +0.000 HD
ENDROOT
BRANCH   3   5
ATOM      5  C   UNL     1       2.576   7.532  18.407  0.00  0.00    +0.000 A 
ATOM      6  C   UNL     1       3.377   7.346  17.279  0.00  0.00    +0.000 A 
ATOM      7  C   UNL     1       4.357   6.352  17.257  0.00  0.00    +0.000 A 
ATOM      8  C   UNL     1       4.569   5.560  18.384  0.00  0.00    +0.000 A 
ATOM      9  C   UNL     1       3.885   5.863  19.567  0.00  0.00    +0.000 A 
ATOM     10  C   UNL     1       2.864   6.815  19.567  0.00  0.00    +0.000 A 
BRANCH   8  11
ATOM     11  C   UNL     1       5.470   4.379  18.246  0.00  0.00    +0.000 C 
ATOM     12  O   UNL     1       6.681   4.524  18.324  0.00  0.00    +0.000 OA
ATOM     13  N   UNL     1       4.943   3.145  17.956  0.00  0.00    +0.000 N 
ATOM     14  H   UNL     1       5.642   2.424  17.825  0.00  0.00    +0.000 HD
BRANCH  13  15
ATOM     15  C   UNL     1       3.557   2.788  17.731  0.00  0.00    +0.000 C 
BRANCH  15  16
ATOM     16  C   UNL     1       2.741   2.869  18.977  0.00  0.00    +0.000 A 
ATOM     17  C   UNL     1       1.442   3.383  18.942  0.00  0.00    +0.000 A 
ATOM     18  C   UNL     1       0.706   3.486  20.118  0.00  0.00    +0.000 A 
ATOM     19  C   UNL     1       1.267   3.074  21.327  0.00  0.00    +0.000 A 
ATOM     20  C   UNL     1       2.554   2.539  21.366  0.00  0.00    +0.000 A 
ATOM     21  C   UNL     1       3.291   2.437  20.193  0.00  0.00    +0.000 A 
ENDBRANCH  15  16
ENDBRANCH  13  15
ENDBRANCH   8  11
ENDBRANCH   3   5
BRANCH   2  22
ATOM     22  C   UNL     1       0.206  10.511  18.445  0.00  0.00    +0.000 C 
BRANCH  22  23
ATOM     23  S   UNL     1       0.376  12.272  18.829  0.00  0.00    +0.000 S 
BRANCH  23  24
ATOM     24  C   UNL     1      -0.759  12.380  20.151  0.00  0.00    +0.000 A 
ATOM     25  N   UNL     1      -1.822  13.119  20.065  0.00  0.00    +0.000 NA
ATOM     26  C   UNL     1      -2.743  13.088  21.146  0.00  0.00    +0.000 A 
ATOM     27  C   UNL     1      -3.910  13.844  21.053  0.00  0.00    +0.000 A 
ATOM     28  C   UNL     1      -4.870  13.799  22.069  0.00  0.00    +0.000 A 
ATOM     29  C   UNL     1      -4.669  12.998  23.196  0.00  0.00    +0.000 A 
ATOM     30  C   UNL     1      -3.505  12.240  23.324  0.00  0.00    +0.000 A 
ATOM     31  C   UNL     1      -2.558  12.292  22.298  0.00  0.00    +0.000 A 
ATOM     32  N   UNL     1      -1.371  11.553  22.337  0.00  0.00    +0.000 N 
ATOM     33  C   UNL     1      -0.834  10.706  23.257  0.00  0.00    +0.000 A 
ATOM     34  N   UNL     1       0.336  10.275  22.827  0.00  0.00    +0.000 NA
ATOM     35  N   UNL     1       0.566  10.837  21.587  0.00  0.00    +0.000 NA
ATOM     36  C   UNL     1      -0.478  11.587  21.305  0.00  0.00    +0.000 A 
ENDBRANCH  23  24
ENDBRANCH  22  23
ENDBRANCH   2  22
TORSDOF 7
ENDMDL
