MODEL 1
REMARK VINA RESULT:      -7.1      0.000      0.000
REMARK  Name = 
REMARK  3 active torsions:
REMARK  status: ('A' for Active; 'I' for Inactive)
REMARK    1  A    between atoms: C_1  and  C_2
REMARK    2  A    between atoms: C_2  and  C_3
REMARK    3  A    between atoms: C_2  and  N_11
REMARK                            x       y       z     vdW  Elec       q    Type
REMARK                         _______ _______ _______ _____ _____    ______ ____
ROOT
ATOM      1  C   UNL     1       4.793   4.411  16.653  0.00  0.00    +0.000 C 
ATOM      2  C   UNL     1       4.480   4.879  18.085  0.00  0.00    +0.000 C 
ENDROOT
BRANCH   2   3
ATOM      3  C   UNL     1       3.798   6.262  17.949  0.00  0.00    +0.000 C 
ATOM      4  O   UNL     1       4.085   6.995  17.004  0.00  0.00    +0.000 OA
ATOM      5  N   UNL     1       2.914   6.546  18.969  0.00  0.00    +0.000 N 
ATOM      6  C   UNL     1       2.224   7.721  19.132  0.00  0.00    +0.000 A 
ATOM      7  N   UNL     1       1.620   8.045  20.258  0.00  0.00    +0.000 NA
ATOM      8  N   UNL     1       1.034   9.298  20.195  0.00  0.00    +0.000 NA
ATOM      9  C   UNL     1       1.187   9.843  19.008  0.00  0.00    +0.000 A 
ATOM     10  S   UNL     1       2.043   8.874  17.889  0.00  0.00    +0.000 S 
ATOM     11  H   UNL     1       2.933   5.943  19.783  0.00  0.00    +0.000 HD
ENDBRANCH   2   3
BRANCH   2  12
ATOM     12  N   UNL     1       3.623   3.901  18.836  0.00  0.00    +0.000 NA
ATOM     13  C   UNL     1       2.791   3.131  17.881  0.00  0.00    +0.000 C 
ATOM     14  C   UNL     1       1.578   2.408  18.477  0.00  0.00    +0.000 C 
ATOM     15  C   UNL     1       0.829   3.225  19.531  0.00  0.00    +0.000 C 
ATOM     16  C   UNL     1       1.153   2.828  20.973  0.00  0.00    +0.000 C 
ATOM     17  C   UNL     1       2.580   3.098  21.457  0.00  0.00    +0.000 C 
ATOM     18  C   UNL     1       3.650   2.244  20.768  0.00  0.00    +0.000 C 
ATOM     19  C   UNL     1       4.430   2.975  19.664  0.00  0.00    +0.000 C 
ENDBRANCH   2  12
TORSDOF 2
ENDMDL
MODEL 2
REMARK VINA RESULT:      -6.9      3.192      4.074
REMARK  Name = 
REMARK  3 active torsions:
REMARK  status: ('A' for Active; 'I' for Inactive)
REMARK    1  A    between atoms: C_1  and  C_2
REMARK    2  A    between atoms: C_2  and  C_3
REMARK    3  A    between atoms: C_2  and  N_11
REMARK                            x       y       z     vdW  Elec       q    Type
REMARK                         _______ _______ _______ _____ _____    ______ ____
ROOT
ATOM      1  C   UNL     1       4.402   4.009  16.016  0.00  0.00    +0.000 C 
ATOM      2  C   UNL     1       4.589   3.561  17.476  0.00  0.00    +0.000 C 
ENDROOT
BRANCH   2   3
ATOM      3  C   UNL     1       5.663   4.497  18.080  0.00  0.00    +0.000 C 
ATOM      4  O   UNL     1       6.112   4.270  19.202  0.00  0.00    +0.000 OA
ATOM      5  N   UNL     1       6.000   5.554  17.260  0.00  0.00    +0.000 N 
ATOM      6  C   UNL     1       6.872   6.567  17.569  0.00  0.00    +0.000 A 
ATOM      7  N   UNL     1       6.944   7.686  16.877  0.00  0.00    +0.000 NA
ATOM      8  N   UNL     1       7.863   8.574  17.411  0.00  0.00    +0.000 NA
ATOM      9  C   UNL     1       8.474   8.064  18.458  0.00  0.00    +0.000 A 
ATOM     10  S   UNL     1       7.983   6.477  18.862  0.00  0.00    +0.000 S 
ATOM     11  H   UNL     1       5.405   5.731  16.459  0.00  0.00    +0.000 HD
ENDBRANCH   2   3
BRANCH   2  12
ATOM     12  N   UNL     1       3.308   3.596  18.258  0.00  0.00    +0.000 NA
ATOM     13  C   UNL     1       2.754   4.970  18.246  0.00  0.00    +0.000 C 
ATOM     14  C   UNL     1       1.705   5.283  19.319  0.00  0.00    +0.000 C 
ATOM     15  C   UNL     1       2.031   4.690  20.691  0.00  0.00    +0.000 C 
ATOM     16  C   UNL     1       1.262   3.407  21.015  0.00  0.00    +0.000 C 
ATOM     17  C   UNL     1       1.584   2.177  20.160  0.00  0.00    +0.000 C 
ATOM     18  C   UNL     1       1.159   2.303  18.693  0.00  0.00    +0.000 C 
ATOM     19  C   UNL     1       2.306   2.642  17.729  0.00  0.00    +0.000 C 
ENDBRANCH   2  12
TORSDOF 2
ENDMDL
MODEL 3
REMARK VINA RESULT:      -6.8      1.353      1.505
REMARK  Name = 
REMARK  3 active torsions:
REMARK  status: ('A' for Active; 'I' for Inactive)
REMARK    1  A    between atoms: C_1  and  C_2
REMARK    2  A    between atoms: C_2  and  C_3
REMARK    3  A    between atoms: C_2  and  N_11
REMARK                            x       y       z     vdW  Elec       q    Type
REMARK                         _______ _______ _______ _____ _____    ______ ____
ROOT
ATOM      1  C   UNL     1       4.181   6.040  17.203  0.00  0.00    +0.000 C 
ATOM      2  C   UNL     1       3.803   6.070  18.694  0.00  0.00    +0.000 C 
ENDROOT
BRANCH   2   3
ATOM      3  C   UNL     1       2.857   7.281  18.876  0.00  0.00    +0.000 C 
ATOM      4  O   UNL     1       2.682   8.066  17.945  0.00  0.00    +0.000 OA
ATOM      5  N   UNL     1       2.303   7.366  20.136  0.00  0.00    +0.000 N 
ATOM      6  C   UNL     1       1.484   8.369  20.589  0.00  0.00    +0.000 A 
ATOM      7  N   UNL     1       1.214   8.551  21.867  0.00  0.00    +0.000 NA
ATOM      8  N   UNL     1       0.405   9.654  22.079  0.00  0.00    +0.000 NA
ATOM      9  C   UNL     1       0.066  10.229  20.946  0.00  0.00    +0.000 A 
ATOM     10  S   UNL     1       0.697   9.470  19.550  0.00  0.00    +0.000 S 
ATOM     11  H   UNL     1       2.695   6.773  20.858  0.00  0.00    +0.000 HD
ENDBRANCH   2   3
BRANCH   2  12
ATOM     12  N   UNL     1       3.172   4.789  19.154  0.00  0.00    +0.000 NA
ATOM     13  C   UNL     1       2.165   4.344  18.160  0.00  0.00    +0.000 C 
ATOM     14  C   UNL     1       1.143   3.313  18.652  0.00  0.00    +0.000 C 
ATOM     15  C   UNL     1       0.633   3.578  20.070  0.00  0.00    +0.000 C 
ATOM     16  C   UNL     1       1.292   2.707  21.143  0.00  0.00    +0.000 C 
ATOM     17  C   UNL     1       2.784   2.939  21.397  0.00  0.00    +0.000 C 
ATOM     18  C   UNL     1       3.691   2.540  20.228  0.00  0.00    +0.000 C 
ATOM     19  C   UNL     1       4.174   3.719  19.371  0.00  0.00    +0.000 C 
ENDBRANCH   2  12
TORSDOF 2
ENDMDL
MODEL 4
REMARK VINA RESULT:      -6.7      3.499      5.504
REMARK  Name = 
REMARK  3 active torsions:
REMARK  status: ('A' for Active; 'I' for Inactive)
REMARK    1  A    between atoms: C_1  and  C_2
REMARK    2  A    between atoms: C_2  and  C_3
REMARK    3  A    between atoms: C_2  and  N_11
REMARK                            x       y       z     vdW  Elec       q    Type
REMARK                         _______ _______ _______ _____ _____    ______ ____
ROOT
ATOM      1  C   UNL     1       7.140   5.612  18.935  0.00  0.00    +0.000 C 
ATOM      2  C   UNL     1       5.958   5.896  17.992  0.00  0.00    +0.000 C 
ENDROOT
BRANCH   2   3
ATOM      3  C   UNL     1       6.490   5.674  16.555  0.00  0.00    +0.000 C 
ATOM      4  O   UNL     1       7.446   6.333  16.148  0.00  0.00    +0.000 OA
ATOM      5  N   UNL     1       5.781   4.730  15.842  0.00  0.00    +0.000 N 
ATOM      6  C   UNL     1       5.993   4.384  14.531  0.00  0.00    +0.000 A 
ATOM      7  N   UNL     1       5.122   3.694  13.823  0.00  0.00    +0.000 NA
ATOM      8  N   UNL     1       5.538   3.512  12.515  0.00  0.00    +0.000 NA
ATOM      9  C   UNL     1       6.726   4.037  12.309  0.00  0.00    +0.000 A 
ATOM     10  S   UNL     1       7.420   4.780  13.684  0.00  0.00    +0.000 S 
ATOM     11  H   UNL     1       4.897   4.421  16.229  0.00  0.00    +0.000 HD
ENDBRANCH   2   3
BRANCH   2  12
ATOM     12  N   UNL     1       4.765   5.035  18.288  0.00  0.00    +0.000 NA
ATOM     13  C   UNL     1       5.161   3.927  19.191  0.00  0.00    +0.000 C 
ATOM     14  C   UNL     1       4.199   2.736  19.257  0.00  0.00    +0.000 C 
ATOM     15  C   UNL     1       3.618   2.336  17.900  0.00  0.00    +0.000 C 
ATOM     16  C   UNL     1       2.193   2.841  17.658  0.00  0.00    +0.000 C 
ATOM     17  C   UNL     1       2.011   4.357  17.539  0.00  0.00    +0.000 C 
ATOM     18  C   UNL     1       2.281   5.127  18.837  0.00  0.00    +0.000 C 
ATOM     19  C   UNL     1       3.657   5.808  18.894  0.00  0.00    +0.000 C 
ENDBRANCH   2  12
TORSDOF 2
ENDMDL
MODEL 5
REMARK VINA RESULT:      -6.7      3.507      5.227
REMARK  Name = 
REMARK  3 active torsions:
REMARK  status: ('A' for Active; 'I' for Inactive)
REMARK    1  A    between atoms: C_1  and  C_2
REMARK    2  A    between atoms: C_2  and  C_3
REMARK    3  A    between atoms: C_2  and  N_11
REMARK                            x       y       z     vdW  Elec       q    Type
REMARK                         _______ _______ _______ _____ _____    ______ ____
ROOT
ATOM      1  C   UNL     1       6.283   5.452  18.759  0.00  0.00    +0.000 C 
ATOM      2  C   UNL     1       4.885   5.384  18.118  0.00  0.00    +0.000 C 
ENDROOT
BRANCH   2   3
ATOM      3  C   UNL     1       5.088   4.785  16.705  0.00  0.00    +0.000 C 
ATOM      4  O   UNL     1       4.407   3.827  16.343  0.00  0.00    +0.000 OA
ATOM      5  N   UNL     1       6.079   5.410  15.976  0.00  0.00    +0.000 N 
ATOM      6  C   UNL     1       6.510   5.045  14.726  0.00  0.00    +0.000 A 
ATOM      7  N   UNL     1       7.633   5.488  14.199  0.00  0.00    +0.000 NA
ATOM      8  N   UNL     1       7.877   4.942  12.950  0.00  0.00    +0.000 NA
ATOM      9  C   UNL     1       6.902   4.142  12.575  0.00  0.00    +0.000 A 
ATOM     10  S   UNL     1       5.625   4.005  13.703  0.00  0.00    +0.000 S 
ATOM     11  H   UNL     1       6.693   6.044  16.473  0.00  0.00    +0.000 HD
ENDBRANCH   2   3
BRANCH   2  12
ATOM     12  N   UNL     1       3.916   4.582  18.935  0.00  0.00    +0.000 NA
ATOM     13  C   UNL     1       4.615   3.428  19.550  0.00  0.00    +0.000 C 
ATOM     14  C   UNL     1       3.722   2.290  20.056  0.00  0.00    +0.000 C 
ATOM     15  C   UNL     1       2.553   1.963  19.124  0.00  0.00    +0.000 C 
ATOM     16  C   UNL     1       1.214   2.553  19.573  0.00  0.00    +0.000 C 
ATOM     17  C   UNL     1       1.092   4.079  19.553  0.00  0.00    +0.000 C 
ATOM     18  C   UNL     1       1.981   4.794  20.576  0.00  0.00    +0.000 C 
ATOM     19  C   UNL     1       3.266   5.397  19.987  0.00  0.00    +0.000 C 
ENDBRANCH   2  12
TORSDOF 2
ENDMDL
MODEL 6
REMARK VINA RESULT:      -6.7      3.542      5.314
REMARK  Name = 
REMARK  3 active torsions:
REMARK  status: ('A' for Active; 'I' for Inactive)
REMARK    1  A    between atoms: C_1  and  C_2
REMARK    2  A    between atoms: C_2  and  C_3
REMARK    3  A    between atoms: C_2  and  N_11
REMARK                            x       y       z     vdW  Elec       q    Type
REMARK                         _______ _______ _______ _____ _____    ______ ____
ROOT
ATOM      1  C   UNL     1       6.057   4.920  19.139  0.00  0.00    +0.000 C 
ATOM      2  C   UNL     1       4.865   5.246  18.222  0.00  0.00    +0.000 C 
ENDROOT
BRANCH   2   3
ATOM      3  C   UNL     1       5.206   4.637  16.840  0.00  0.00    +0.000 C 
ATOM      4  O   UNL     1       4.755   3.536  16.528  0.00  0.00    +0.000 OA
ATOM      5  N   UNL     1       6.041   5.427  16.079  0.00  0.00    +0.000 N 
ATOM      6  C   UNL     1       6.553   5.105  14.847  0.00  0.00    +0.000 A 
ATOM      7  N   UNL     1       7.556   5.758  14.295  0.00  0.00    +0.000 NA
ATOM      8  N   UNL     1       7.924   5.217  13.075  0.00  0.00    +0.000 NA
ATOM      9  C   UNL     1       7.151   4.206  12.742  0.00  0.00    +0.000 A 
ATOM     10  S   UNL     1       5.926   3.847  13.879  0.00  0.00    +0.000 S 
ATOM     11  H   UNL     1       6.497   6.205  16.542  0.00  0.00    +0.000 HD
ENDBRANCH   2   3
BRANCH   2  12
ATOM     12  N   UNL     1       3.565   4.726  18.761  0.00  0.00    +0.000 NA
ATOM     13  C   UNL     1       3.207   5.462  19.997  0.00  0.00    +0.000 C 
ATOM     14  C   UNL     1       2.159   4.796  20.897  0.00  0.00    +0.000 C 
ATOM     15  C   UNL     1       2.331   3.282  21.028  0.00  0.00    +0.000 C 
ATOM     16  C   UNL     1       1.377   2.467  20.152  0.00  0.00    +0.000 C 
ATOM     17  C   UNL     1       1.567   2.580  18.637  0.00  0.00    +0.000 C 
ATOM     18  C   UNL     1       1.238   3.963  18.063  0.00  0.00    +0.000 C 
ATOM     19  C   UNL     1       2.468   4.837  17.771  0.00  0.00    +0.000 C 
ENDBRANCH   2  12
TORSDOF 2
ENDMDL
MODEL 7
REMARK VINA RESULT:      -6.6      1.067      1.642
REMARK  Name = 
REMARK  3 active torsions:
REMARK  status: ('A' for Active; 'I' for Inactive)
REMARK    1  A    between atoms: C_1  and  C_2
REMARK    2  A    between atoms: C_2  and  C_3
REMARK    3  A    between atoms: C_2  and  N_11
REMARK                            x       y       z     vdW  Elec       q    Type
REMARK                         _______ _______ _______ _____ _____    ______ ____
ROOT
ATOM      1  C   UNL     1       5.558   5.133  18.784  0.00  0.00    +0.000 C 
ATOM      2  C   UNL     1       4.270   5.360  19.595  0.00  0.00    +0.000 C 
ENDROOT
BRANCH   2   3
ATOM      3  C   UNL     1       3.566   6.580  18.954  0.00  0.00    +0.000 C 
ATOM      4  O   UNL     1       3.918   6.978  17.845  0.00  0.00    +0.000 OA
ATOM      5  N   UNL     1       2.584   7.133  19.750  0.00  0.00    +0.000 N 
ATOM      6  C   UNL     1       1.849   8.254  19.459  0.00  0.00    +0.000 A 
ATOM      7  N   UNL     1       1.134   8.895  20.362  0.00  0.00    +0.000 NA
ATOM      8  N   UNL     1       0.521  10.022  19.841  0.00  0.00    +0.000 NA
ATOM      9  C   UNL     1       0.769  10.155  18.556  0.00  0.00    +0.000 A 
ATOM     10  S   UNL     1       1.751   8.923  17.893  0.00  0.00    +0.000 S 
ATOM     11  H   UNL     1       2.544   6.833  20.717  0.00  0.00    +0.000 HD
ENDBRANCH   2   3
BRANCH   2  12
ATOM     12  N   UNL     1       3.385   4.149  19.621  0.00  0.00    +0.000 NA
ATOM     13  C   UNL     1       4.138   2.970  19.130  0.00  0.00    +0.000 C 
ATOM     14  C   UNL     1       3.294   1.767  18.693  0.00  0.00    +0.000 C 
ATOM     15  C   UNL     1       2.035   2.147  17.912  0.00  0.00    +0.000 C 
ATOM     16  C   UNL     1       0.752   2.118  18.746  0.00  0.00    +0.000 C 
ATOM     17  C   UNL     1       0.637   3.153  19.869  0.00  0.00    +0.000 C 
ATOM     18  C   UNL     1       1.629   2.947  21.018  0.00  0.00    +0.000 C 
ATOM     19  C   UNL     1       2.850   3.878  20.976  0.00  0.00    +0.000 C 
ENDBRANCH   2  12
TORSDOF 2
ENDMDL
MODEL 8
REMARK VINA RESULT:      -6.6      1.909      2.556
REMARK  Name = 
REMARK  3 active torsions:
REMARK  status: ('A' for Active; 'I' for Inactive)
REMARK    1  A    between atoms: C_1  and  C_2
REMARK    2  A    between atoms: C_2  and  C_3
REMARK    3  A    between atoms: C_2  and  N_11
REMARK                            x       y       z     vdW  Elec       q    Type
REMARK                         _______ _______ _______ _____ _____    ______ ____
ROOT
ATOM      1  C   UNL     1       3.891   6.636  17.841  0.00  0.00    +0.000 C 
ATOM      2  C   UNL     1       3.373   6.370  19.265  0.00  0.00    +0.000 C 
ENDROOT
BRANCH   2   3
ATOM      3  C   UNL     1       2.278   7.432  19.531  0.00  0.00    +0.000 C 
ATOM      4  O   UNL     1       1.660   7.924  18.589  0.00  0.00    +0.000 OA
ATOM      5  N   UNL     1       2.125   7.746  20.866  0.00  0.00    +0.000 N 
ATOM      6  C   UNL     1       1.278   8.696  21.377  0.00  0.00    +0.000 A 
ATOM      7  N   UNL     1       1.372   9.149  22.611  0.00  0.00    +0.000 NA
ATOM      8  N   UNL     1       0.439  10.136  22.879  0.00  0.00    +0.000 NA
ATOM      9  C   UNL     1      -0.345  10.352  21.845  0.00  0.00    +0.000 A 
ATOM     10  S   UNL     1      -0.010   9.371  20.486  0.00  0.00    +0.000 S 
ATOM     11  H   UNL     1       2.839   7.419  21.506  0.00  0.00    +0.000 HD
ENDBRANCH   2   3
BRANCH   2  12
ATOM     12  N   UNL     1       2.853   4.973  19.437  0.00  0.00    +0.000 NA
ATOM     13  C   UNL     1       3.907   3.999  19.064  0.00  0.00    +0.000 C 
ATOM     14  C   UNL     1       3.432   2.571  18.775  0.00  0.00    +0.000 C 
ATOM     15  C   UNL     1       2.128   2.504  17.980  0.00  0.00    +0.000 C 
ATOM     16  C   UNL     1       0.891   2.215  18.834  0.00  0.00    +0.000 C 
ATOM     17  C   UNL     1       0.481   3.294  19.840  0.00  0.00    +0.000 C 
ATOM     18  C   UNL     1       1.477   3.495  20.987  0.00  0.00    +0.000 C 
ATOM     19  C   UNL     1       2.396   4.715  20.823  0.00  0.00    +0.000 C 
ENDBRANCH   2  12
TORSDOF 2
ENDMDL
MODEL 9
REMARK VINA RESULT:      -6.5      1.995      3.998
REMARK  Name = 
REMARK  3 active torsions:
REMARK  status: ('A' for Active; 'I' for Inactive)
REMARK    1  A    between atoms: C_1  and  C_2
REMARK    2  A    between atoms: C_2  and  C_3
REMARK    3  A    between atoms: C_2  and  N_11
REMARK                            x       y       z     vdW  Elec       q    Type
REMARK                         _______ _______ _______ _____ _____    ______ ____
ROOT
ATOM      1  C   UNL     1       2.741   4.762  20.500  0.00  0.00    +0.000 C 
ATOM      2  C   UNL     1       2.693   5.286  19.054  0.00  0.00    +0.000 C 
ENDROOT
BRANCH   2   3
ATOM      3  C   UNL     1       2.249   6.766  19.146  0.00  0.00    +0.000 C 
ATOM      4  O   UNL     1       2.309   7.486  18.151  0.00  0.00    +0.000 OA
ATOM      5  N   UNL     1       1.835   7.141  20.407  0.00  0.00    +0.000 N 
ATOM      6  C   UNL     1       1.451   8.403  20.786  0.00  0.00    +0.000 A 
ATOM      7  N   UNL     1       1.338   8.769  22.047  0.00  0.00    +0.000 NA
ATOM      8  N   UNL     1       0.985  10.101  22.176  0.00  0.00    +0.000 NA
ATOM      9  C   UNL     1       0.807  10.669  21.003  0.00  0.00    +0.000 A 
ATOM     10  S   UNL     1       1.047   9.628  19.668  0.00  0.00    +0.000 S 
ATOM     11  H   UNL     1       2.033   6.506  21.171  0.00  0.00    +0.000 HD
ENDBRANCH   2   3
BRANCH   2  12
ATOM     12  N   UNL     1       4.007   5.136  18.344  0.00  0.00    +0.000 NA
ATOM     13  C   UNL     1       5.105   5.059  19.337  0.00  0.00    +0.000 C 
ATOM     14  C   UNL     1       6.516   5.328  18.802  0.00  0.00    +0.000 C 
ATOM     15  C   UNL     1       6.586   6.477  17.795  0.00  0.00    +0.000 C 
ATOM     16  C   UNL     1       6.652   6.023  16.335  0.00  0.00    +0.000 C 
ATOM     17  C   UNL     1       5.415   5.314  15.776  0.00  0.00    +0.000 C 
ATOM     18  C   UNL     1       5.140   3.942  16.402  0.00  0.00    +0.000 C 
ATOM     19  C   UNL     1       4.033   3.942  17.467  0.00  0.00    +0.000 C 
ENDBRANCH   2  12
TORSDOF 2
ENDMDL
