MODEL 1
REMARK VINA RESULT:      -8.6      0.000      0.000
REMARK  Name = 
REMARK  6 active torsions:
REMARK  status: ('A' for Active; 'I' for Inactive)
REMARK    1  A    between atoms: C_6  and  C_7
REMARK    2  A    between atoms: C_9  and  C_10
REMARK    3  A    between atoms: C_10  and  N_11
REMARK    4  A    between atoms: N_11  and  C_12
REMARK    5  A    between atoms: C_15  and  O_16
REMARK    6  A    between atoms: O_16  and  C_17
REMARK                            x       y       z     vdW  Elec       q    Type
REMARK                         _______ _______ _______ _____ _____    ______ ____
ROOT
ATOM      1  N   UNL     1       3.548   5.495  18.647  0.00  0.00    +0.000 N 
ATOM      2  H   UNL     1       3.438   4.990  17.767  0.00  0.00    +0.000 HD
ENDROOT
BRANCH   1   3
ATOM      3  C   UNL     1       2.836   6.690  18.704  0.00  0.00    +0.000 A 
ATOM      4  C   UNL     1       2.164   7.023  19.888  0.00  0.00    +0.000 A 
ATOM      5  C   UNL     1       1.542   8.266  20.044  0.00  0.00    +0.000 A 
ATOM      6  C   UNL     1       1.609   9.212  19.025  0.00  0.00    +0.000 A 
ATOM      7  C   UNL     1       2.226   8.875  17.820  0.00  0.00    +0.000 A 
ATOM      8  C   UNL     1       2.868   7.641  17.679  0.00  0.00    +0.000 A 
BRANCH   6   9
ATOM      9  O   UNL     1       1.013  10.425  19.281  0.00  0.00    +0.000 OA
BRANCH   9  10
ATOM     10  C   UNL     1      -0.290  10.648  18.891  0.00  0.00    +0.000 A 
ATOM     11  C   UNL     1      -0.727   9.914  17.787  0.00  0.00    +0.000 A 
ATOM     12  C   UNL     1      -2.024  10.087  17.296  0.00  0.00    +0.000 A 
ATOM     13  C   UNL     1      -2.886  10.996  17.910  0.00  0.00    +0.000 A 
ATOM     14  C   UNL     1      -2.467  11.699  19.038  0.00  0.00    +0.000 A 
ATOM     15  C   UNL     1      -1.183  11.500  19.547  0.00  0.00    +0.000 A 
ENDBRANCH   9  10
ENDBRANCH   6   9
ENDBRANCH   1   3
BRANCH   1  16
ATOM     16  C   UNL     1       4.947   5.452  19.069  0.00  0.00    +0.000 C 
BRANCH  16  19
ATOM     17  C   UNL     1       6.575   4.783  15.965  0.00  0.00    +0.000 A 
ATOM     18  N   UNL     1       5.493   5.133  16.639  0.00  0.00    +0.000 NA
ATOM     19  C   UNL     1       5.901   5.114  17.963  0.00  0.00    +0.000 A 
ATOM     20  C   UNL     1       7.230   4.780  18.025  0.00  0.00    +0.000 A 
ATOM     21  O   UNL     1       7.674   4.565  16.755  0.00  0.00    +0.000 OA
BRANCH  17  27
ATOM     22  F   UNL     1       5.391   2.512  11.871  0.00  0.00    +0.000 F 
ATOM     23  C   UNL     1       6.131   3.439  12.493  0.00  0.00    +0.000 A 
ATOM     24  C   UNL     1       7.049   4.183  11.764  0.00  0.00    +0.000 A 
ATOM     25  C   UNL     1       7.819   5.147  12.410  0.00  0.00    +0.000 A 
ATOM     26  C   UNL     1       7.663   5.355  13.785  0.00  0.00    +0.000 A 
ATOM     27  C   UNL     1       6.739   4.602  14.527  0.00  0.00    +0.000 A 
ATOM     28  C   UNL     1       5.969   3.638  13.861  0.00  0.00    +0.000 A 
ENDBRANCH  17  27
ENDBRANCH  16  19
ENDBRANCH   1  16
TORSDOF 6
ENDMDL
MODEL 2
REMARK VINA RESULT:      -8.6      1.431      1.760
REMARK  Name = 
REMARK  6 active torsions:
REMARK  status: ('A' for Active; 'I' for Inactive)
REMARK    1  A    between atoms: C_6  and  C_7
REMARK    2  A    between atoms: C_9  and  C_10
REMARK    3  A    between atoms: C_10  and  N_11
REMARK    4  A    between atoms: N_11  and  C_12
REMARK    5  A    between atoms: C_15  and  O_16
REMARK    6  A    between atoms: O_16  and  C_17
REMARK                            x       y       z     vdW  Elec       q    Type
REMARK                         _______ _______ _______ _____ _____    ______ ____
ROOT
ATOM      1  N   UNL     1       3.161   5.909  19.754  0.00  0.00    +0.000 N 
ATOM      2  H   UNL     1       2.636   5.040  19.640  0.00  0.00    +0.000 HD
ENDROOT
BRANCH   1   3
ATOM      3  C   UNL     1       2.441   7.050  19.411  0.00  0.00    +0.000 A 
ATOM      4  C   UNL     1       1.713   7.718  20.406  0.00  0.00    +0.000 A 
ATOM      5  C   UNL     1       1.078   8.936  20.147  0.00  0.00    +0.000 A 
ATOM      6  C   UNL     1       1.188   9.526  18.890  0.00  0.00    +0.000 A 
ATOM      7  C   UNL     1       1.863   8.848  17.874  0.00  0.00    +0.000 A 
ATOM      8  C   UNL     1       2.517   7.642  18.147  0.00  0.00    +0.000 A 
BRANCH   6   9
ATOM      9  O   UNL     1       0.576  10.748  18.736  0.00  0.00    +0.000 OA
BRANCH   9  10
ATOM     10  C   UNL     1      -0.777  10.812  18.482  0.00  0.00    +0.000 A 
ATOM     11  C   UNL     1      -1.259   9.919  17.523  0.00  0.00    +0.000 A 
ATOM     12  C   UNL     1      -2.612   9.923  17.176  0.00  0.00    +0.000 A 
ATOM     13  C   UNL     1      -3.486  10.822  17.788  0.00  0.00    +0.000 A 
ATOM     14  C   UNL     1      -3.018  11.685  18.776  0.00  0.00    +0.000 A 
ATOM     15  C   UNL     1      -1.672  11.657  19.146  0.00  0.00    +0.000 A 
ENDBRANCH   9  10
ENDBRANCH   6   9
ENDBRANCH   1   3
BRANCH   1  16
ATOM     16  C   UNL     1       4.528   5.728  19.270  0.00  0.00    +0.000 C 
BRANCH  16  19
ATOM     17  C   UNL     1       5.297   4.456  16.027  0.00  0.00    +0.000 A 
ATOM     18  N   UNL     1       5.497   5.341  16.987  0.00  0.00    +0.000 NA
ATOM     19  C   UNL     1       4.617   4.960  17.986  0.00  0.00    +0.000 A 
ATOM     20  C   UNL     1       3.941   3.833  17.591  0.00  0.00    +0.000 A 
ATOM     21  O   UNL     1       4.365   3.500  16.340  0.00  0.00    +0.000 OA
BRANCH  17  27
ATOM     22  F   UNL     1       8.806   5.751  12.973  0.00  0.00    +0.000 F 
ATOM     23  C   UNL     1       7.689   5.048  13.202  0.00  0.00    +0.000 A 
ATOM     24  C   UNL     1       7.142   4.282  12.181  0.00  0.00    +0.000 A 
ATOM     25  C   UNL     1       5.981   3.551  12.418  0.00  0.00    +0.000 A 
ATOM     26  C   UNL     1       5.375   3.596  13.678  0.00  0.00    +0.000 A 
ATOM     27  C   UNL     1       5.923   4.373  14.712  0.00  0.00    +0.000 A 
ATOM     28  C   UNL     1       7.094   5.100  14.458  0.00  0.00    +0.000 A 
ENDBRANCH  17  27
ENDBRANCH  16  19
ENDBRANCH   1  16
TORSDOF 6
ENDMDL
MODEL 3
REMARK VINA RESULT:      -8.4      6.958      9.068
REMARK  Name = 
REMARK  6 active torsions:
REMARK  status: ('A' for Active; 'I' for Inactive)
REMARK    1  A    between atoms: C_6  and  C_7
REMARK    2  A    between atoms: C_9  and  C_10
REMARK    3  A    between atoms: C_10  and  N_11
REMARK    4  A    between atoms: N_11  and  C_12
REMARK    5  A    between atoms: C_15  and  O_16
REMARK    6  A    between atoms: O_16  and  C_17
REMARK                            x       y       z     vdW  Elec       q    Type
REMARK                         _______ _______ _______ _____ _____    ______ ____
ROOT
ATOM      1  N   UNL     1       8.145   7.919  18.349  0.00  0.00    +0.000 N 
ATOM      2  H   UNL     1       9.114   7.659  18.537  0.00  0.00    +0.000 HD
ENDROOT
BRANCH   1   3
ATOM      3  C   UNL     1       7.377   6.887  17.817  0.00  0.00    +0.000 A 
ATOM      4  C   UNL     1       7.609   5.575  18.255  0.00  0.00    +0.000 A 
ATOM      5  C   UNL     1       6.785   4.519  17.852  0.00  0.00    +0.000 A 
ATOM      6  C   UNL     1       5.692   4.765  17.026  0.00  0.00    +0.000 A 
ATOM      7  C   UNL     1       5.481   6.055  16.537  0.00  0.00    +0.000 A 
ATOM      8  C   UNL     1       6.293   7.110  16.964  0.00  0.00    +0.000 A 
BRANCH   6   9
ATOM      9  O   UNL     1       4.906   3.679  16.719  0.00  0.00    +0.000 OA
BRANCH   9  10
ATOM     10  C   UNL     1       3.728   3.468  17.402  0.00  0.00    +0.000 A 
ATOM     11  C   UNL     1       3.628   2.253  18.082  0.00  0.00    +0.000 A 
ATOM     12  C   UNL     1       2.462   1.933  18.784  0.00  0.00    +0.000 A 
ATOM     13  C   UNL     1       1.394   2.830  18.805  0.00  0.00    +0.000 A 
ATOM     14  C   UNL     1       1.506   4.061  18.164  0.00  0.00    +0.000 A 
ATOM     15  C   UNL     1       2.683   4.394  17.491  0.00  0.00    +0.000 A 
ENDBRANCH   9  10
ENDBRANCH   6   9
ENDBRANCH   1   3
BRANCH   1  16
ATOM     16  C   UNL     1       8.099   9.252  17.751  0.00  0.00    +0.000 C 
BRANCH  16  19
ATOM     17  C   UNL     1       9.929  12.121  18.826  0.00  0.00    +0.000 A 
ATOM     18  N   UNL     1       9.181  11.511  17.923  0.00  0.00    +0.000 NA
ATOM     19  C   UNL     1       8.927  10.269  18.479  0.00  0.00    +0.000 A 
ATOM     20  C   UNL     1       9.514  10.196  19.717  0.00  0.00    +0.000 A 
ATOM     21  O   UNL     1      10.158  11.373  19.952  0.00  0.00    +0.000 OA
BRANCH  17  27
ATOM     22  F   UNL     1      11.132  16.074  16.326  0.00  0.00    +0.000 F 
ATOM     23  C   UNL     1      11.126  15.414  17.492  0.00  0.00    +0.000 A 
ATOM     24  C   UNL     1      11.707  15.997  18.611  0.00  0.00    +0.000 A 
ATOM     25  C   UNL     1      11.700  15.312  19.823  0.00  0.00    +0.000 A 
ATOM     26  C   UNL     1      11.112  14.045  19.903  0.00  0.00    +0.000 A 
ATOM     27  C   UNL     1      10.527  13.450  18.774  0.00  0.00    +0.000 A 
ATOM     28  C   UNL     1      10.539  14.154  17.562  0.00  0.00    +0.000 A 
ENDBRANCH  17  27
ENDBRANCH  16  19
ENDBRANCH   1  16
TORSDOF 6
ENDMDL
MODEL 4
REMARK VINA RESULT:      -8.4      2.080      3.307
REMARK  Name = 
REMARK  6 active torsions:
REMARK  status: ('A' for Active; 'I' for Inactive)
REMARK    1  A    between atoms: C_6  and  C_7
REMARK    2  A    between atoms: C_9  and  C_10
REMARK    3  A    between atoms: C_10  and  N_11
REMARK    4  A    between atoms: N_11  and  C_12
REMARK    5  A    between atoms: C_15  and  O_16
REMARK    6  A    between atoms: O_16  and  C_17
REMARK                            x       y       z     vdW  Elec       q    Type
REMARK                         _______ _______ _______ _____ _____    ______ ____
ROOT
ATOM      1  N   UNL     1       1.987   7.196  20.949  0.00  0.00    +0.000 N 
ATOM      2  H   UNL     1       2.227   7.283  21.938  0.00  0.00    +0.000 HD
ENDROOT
BRANCH   1   3
ATOM      3  C   UNL     1       1.385   8.330  20.413  0.00  0.00    +0.000 A 
ATOM      4  C   UNL     1       1.722   8.725  19.111  0.00  0.00    +0.000 A 
ATOM      5  C   UNL     1       1.056   9.778  18.477  0.00  0.00    +0.000 A 
ATOM      6  C   UNL     1       0.015  10.436  19.126  0.00  0.00    +0.000 A 
ATOM      7  C   UNL     1      -0.295  10.091  20.442  0.00  0.00    +0.000 A 
ATOM      8  C   UNL     1       0.357   9.021  21.062  0.00  0.00    +0.000 A 
BRANCH   6   9
ATOM      9  O   UNL     1      -0.620  11.426  18.412  0.00  0.00    +0.000 OA
BRANCH   9  10
ATOM     10  C   UNL     1      -1.933  11.263  18.030  0.00  0.00    +0.000 A 
ATOM     11  C   UNL     1      -2.145  10.464  16.904  0.00  0.00    +0.000 A 
ATOM     12  C   UNL     1      -3.439  10.259  16.421  0.00  0.00    +0.000 A 
ATOM     13  C   UNL     1      -4.525  10.854  17.062  0.00  0.00    +0.000 A 
ATOM     14  C   UNL     1      -4.323  11.617  18.210  0.00  0.00    +0.000 A 
ATOM     15  C   UNL     1      -3.033  11.794  18.712  0.00  0.00    +0.000 A 
ENDBRANCH   9  10
ENDBRANCH   6   9
ENDBRANCH   1   3
BRANCH   1  16
ATOM     16  C   UNL     1       1.422   5.872  20.694  0.00  0.00    +0.000 C 
BRANCH  16  19
ATOM     17  C   UNL     1       3.847   4.521  18.453  0.00  0.00    +0.000 A 
ATOM     18  N   UNL     1       3.363   5.543  19.137  0.00  0.00    +0.000 NA
ATOM     19  C   UNL     1       2.266   5.017  19.799  0.00  0.00    +0.000 A 
ATOM     20  C   UNL     1       2.155   3.681  19.505  0.00  0.00    +0.000 A 
ATOM     21  O   UNL     1       3.159   3.351  18.645  0.00  0.00    +0.000 OA
BRANCH  17  27
ATOM     22  F   UNL     1       5.631   3.928  14.005  0.00  0.00    +0.000 F 
ATOM     23  C   UNL     1       5.850   4.173  15.303  0.00  0.00    +0.000 A 
ATOM     24  C   UNL     1       7.151   4.362  15.753  0.00  0.00    +0.000 A 
ATOM     25  C   UNL     1       7.380   4.618  17.103  0.00  0.00    +0.000 A 
ATOM     26  C   UNL     1       6.301   4.679  17.992  0.00  0.00    +0.000 A 
ATOM     27  C   UNL     1       4.986   4.485  17.542  0.00  0.00    +0.000 A 
ATOM     28  C   UNL     1       4.772   4.233  16.180  0.00  0.00    +0.000 A 
ENDBRANCH  17  27
ENDBRANCH  16  19
ENDBRANCH   1  16
TORSDOF 6
ENDMDL
MODEL 5
REMARK VINA RESULT:      -8.4      1.618      2.591
REMARK  Name = 
REMARK  6 active torsions:
REMARK  status: ('A' for Active; 'I' for Inactive)
REMARK    1  A    between atoms: C_6  and  C_7
REMARK    2  A    between atoms: C_9  and  C_10
REMARK    3  A    between atoms: C_10  and  N_11
REMARK    4  A    between atoms: N_11  and  C_12
REMARK    5  A    between atoms: C_15  and  O_16
REMARK    6  A    between atoms: O_16  and  C_17
REMARK                            x       y       z     vdW  Elec       q    Type
REMARK                         _______ _______ _______ _____ _____    ______ ____
ROOT
ATOM      1  N   UNL     1       2.647   6.413  20.221  0.00  0.00    +0.000 N 
ATOM      2  H   UNL     1       2.979   6.318  21.182  0.00  0.00    +0.000 HD
ENDROOT
BRANCH   1   3
ATOM      3  C   UNL     1       2.010   7.624  19.963  0.00  0.00    +0.000 A 
ATOM      4  C   UNL     1       2.170   8.219  18.704  0.00  0.00    +0.000 A 
ATOM      5  C   UNL     1       1.453   9.365  18.346  0.00  0.00    +0.000 A 
ATOM      6  C   UNL     1       0.537   9.920  19.236  0.00  0.00    +0.000 A 
ATOM      7  C   UNL     1       0.408   9.372  20.513  0.00  0.00    +0.000 A 
ATOM      8  C   UNL     1       1.108   8.211  20.855  0.00  0.00    +0.000 A 
BRANCH   6   9
ATOM      9  O   UNL     1      -0.161  11.016  18.786  0.00  0.00    +0.000 OA
BRANCH   9  10
ATOM     10  C   UNL     1      -1.468  10.875  18.371  0.00  0.00    +0.000 A 
ATOM     11  C   UNL     1      -2.375  11.797  18.898  0.00  0.00    +0.000 A 
ATOM     12  C   UNL     1      -3.729  11.723  18.559  0.00  0.00    +0.000 A 
ATOM     13  C   UNL     1      -4.177  10.725  17.693  0.00  0.00    +0.000 A 
ATOM     14  C   UNL     1      -3.269   9.830  17.133  0.00  0.00    +0.000 A 
ATOM     15  C   UNL     1      -1.912   9.926  17.445  0.00  0.00    +0.000 A 
ENDBRANCH   9  10
ENDBRANCH   6   9
ENDBRANCH   1   3
BRANCH   1  16
ATOM     16  C   UNL     1       2.046   5.157  19.779  0.00  0.00    +0.000 C 
BRANCH  16  19
ATOM     17  C   UNL     1       4.237   4.238  17.117  0.00  0.00    +0.000 A 
ATOM     18  N   UNL     1       3.790   5.140  17.974  0.00  0.00    +0.000 NA
ATOM     19  C   UNL     1       2.814   4.468  18.692  0.00  0.00    +0.000 A 
ATOM     20  C   UNL     1       2.738   3.171  18.252  0.00  0.00    +0.000 A 
ATOM     21  O   UNL     1       3.641   3.010  17.245  0.00  0.00    +0.000 OA
BRANCH  17  27
ATOM     22  F   UNL     1       5.670   3.622  12.547  0.00  0.00    +0.000 F 
ATOM     23  C   UNL     1       5.945   4.052  13.785  0.00  0.00    +0.000 A 
ATOM     24  C   UNL     1       7.192   4.601  14.057  0.00  0.00    +0.000 A 
ATOM     25  C   UNL     1       7.479   5.049  15.344  0.00  0.00    +0.000 A 
ATOM     26  C   UNL     1       6.513   4.941  16.350  0.00  0.00    +0.000 A 
ATOM     27  C   UNL     1       5.253   4.384  16.081  0.00  0.00    +0.000 A 
ATOM     28  C   UNL     1       4.978   3.941  14.779  0.00  0.00    +0.000 A 
ENDBRANCH  17  27
ENDBRANCH  16  19
ENDBRANCH   1  16
TORSDOF 6
ENDMDL
MODEL 6
REMARK VINA RESULT:      -8.2      5.550     10.808
REMARK  Name = 
REMARK  6 active torsions:
REMARK  status: ('A' for Active; 'I' for Inactive)
REMARK    1  A    between atoms: C_6  and  C_7
REMARK    2  A    between atoms: C_9  and  C_10
REMARK    3  A    between atoms: C_10  and  N_11
REMARK    4  A    between atoms: N_11  and  C_12
REMARK    5  A    between atoms: C_15  and  O_16
REMARK    6  A    between atoms: O_16  and  C_17
REMARK                            x       y       z     vdW  Elec       q    Type
REMARK                         _______ _______ _______ _____ _____    ______ ____
ROOT
ATOM      1  N   UNL     1       0.901  10.403  17.946  0.00  0.00    +0.000 N 
ATOM      2  H   UNL     1       0.562  10.264  16.992  0.00  0.00    +0.000 HD
ENDROOT
BRANCH   1   3
ATOM      3  C   UNL     1       1.480   9.269  18.508  0.00  0.00    +0.000 A 
ATOM      4  C   UNL     1       1.215   8.969  19.852  0.00  0.00    +0.000 A 
ATOM      5  C   UNL     1       1.663   7.778  20.432  0.00  0.00    +0.000 A 
ATOM      6  C   UNL     1       2.362   6.850  19.665  0.00  0.00    +0.000 A 
ATOM      7  C   UNL     1       2.682   7.159  18.342  0.00  0.00    +0.000 A 
ATOM      8  C   UNL     1       2.208   8.339  17.761  0.00  0.00    +0.000 A 
BRANCH   6   9
ATOM      9  O   UNL     1       2.723   5.684  20.300  0.00  0.00    +0.000 OA
BRANCH   9  10
ATOM     10  C   UNL     1       2.427   4.467  19.723  0.00  0.00    +0.000 A 
ATOM     11  C   UNL     1       3.521   3.720  19.286  0.00  0.00    +0.000 A 
ATOM     12  C   UNL     1       3.326   2.484  18.664  0.00  0.00    +0.000 A 
ATOM     13  C   UNL     1       2.033   1.994  18.479  0.00  0.00    +0.000 A 
ATOM     14  C   UNL     1       0.940   2.717  18.952  0.00  0.00    +0.000 A 
ATOM     15  C   UNL     1       1.139   3.936  19.603  0.00  0.00    +0.000 A 
ENDBRANCH   9  10
ENDBRANCH   6   9
ENDBRANCH   1   3
BRANCH   1  16
ATOM     16  C   UNL     1      -0.070  11.187  18.705  0.00  0.00    +0.000 C 
BRANCH  16  19
ATOM     17  C   UNL     1      -3.585  11.358  18.113  0.00  0.00    +0.000 A 
ATOM     18  N   UNL     1      -2.496  11.834  18.692  0.00  0.00    +0.000 NA
ATOM     19  C   UNL     1      -1.488  10.988  18.260  0.00  0.00    +0.000 A 
ATOM     20  C   UNL     1      -2.014  10.050  17.408  0.00  0.00    +0.000 A 
ATOM     21  O   UNL     1      -3.354  10.274  17.305  0.00  0.00    +0.000 OA
BRANCH  17  27
ATOM     22  F   UNL     1      -7.600  11.958  20.728  0.00  0.00    +0.000 F 
ATOM     23  C   UNL     1      -6.962  12.104  19.560  0.00  0.00    +0.000 A 
ATOM     24  C   UNL     1      -7.630  12.672  18.483  0.00  0.00    +0.000 A 
ATOM     25  C   UNL     1      -6.968  12.824  17.267  0.00  0.00    +0.000 A 
ATOM     26  C   UNL     1      -5.640  12.404  17.141  0.00  0.00    +0.000 A 
ATOM     27  C   UNL     1      -4.962  11.826  18.226  0.00  0.00    +0.000 A 
ATOM     28  C   UNL     1      -5.641  11.683  19.443  0.00  0.00    +0.000 A 
ENDBRANCH  17  27
ENDBRANCH  16  19
ENDBRANCH   1  16
TORSDOF 6
ENDMDL
MODEL 7
REMARK VINA RESULT:      -8.2      3.267      9.288
REMARK  Name = 
REMARK  6 active torsions:
REMARK  status: ('A' for Active; 'I' for Inactive)
REMARK    1  A    between atoms: C_6  and  C_7
REMARK    2  A    between atoms: C_9  and  C_10
REMARK    3  A    between atoms: C_10  and  N_11
REMARK    4  A    between atoms: N_11  and  C_12
REMARK    5  A    between atoms: C_15  and  O_16
REMARK    6  A    between atoms: O_16  and  C_17
REMARK                            x       y       z     vdW  Elec       q    Type
REMARK                         _______ _______ _______ _____ _____    ______ ____
ROOT
ATOM      1  N   UNL     1       1.026   7.978  21.243  0.00  0.00    +0.000 N 
ATOM      2  H   UNL     1       0.914   7.592  22.182  0.00  0.00    +0.000 HD
ENDROOT
BRANCH   1   3
ATOM      3  C   UNL     1       1.720   7.145  20.371  0.00  0.00    +0.000 A 
ATOM      4  C   UNL     1       1.767   5.770  20.641  0.00  0.00    +0.000 A 
ATOM      5  C   UNL     1       2.338   4.871  19.734  0.00  0.00    +0.000 A 
ATOM      6  C   UNL     1       2.846   5.332  18.523  0.00  0.00    +0.000 A 
ATOM      7  C   UNL     1       2.857   6.703  18.264  0.00  0.00    +0.000 A 
ATOM      8  C   UNL     1       2.261   7.594  19.163  0.00  0.00    +0.000 A 
BRANCH   6   9
ATOM      9  O   UNL     1       3.343   4.376  17.668  0.00  0.00    +0.000 OA
BRANCH   9  10
ATOM     10  C   UNL     1       4.660   4.431  17.266  0.00  0.00    +0.000 A 
ATOM     11  C   UNL     1       5.598   4.629  18.281  0.00  0.00    +0.000 A 
ATOM     12  C   UNL     1       6.958   4.726  17.973  0.00  0.00    +0.000 A 
ATOM     13  C   UNL     1       7.381   4.626  16.648  0.00  0.00    +0.000 A 
ATOM     14  C   UNL     1       6.453   4.386  15.637  0.00  0.00    +0.000 A 
ATOM     15  C   UNL     1       5.098   4.256  15.950  0.00  0.00    +0.000 A 
ENDBRANCH   9  10
ENDBRANCH   6   9
ENDBRANCH   1   3
BRANCH   1  16
ATOM     16  C   UNL     1       1.366   9.397  21.331  0.00  0.00    +0.000 C 
BRANCH  16  19
ATOM     17  C   UNL     1      -0.970  10.793  19.023  0.00  0.00    +0.000 A 
ATOM     18  N   UNL     1      -0.526   9.762  19.721  0.00  0.00    +0.000 NA
ATOM     19  C   UNL     1       0.564  10.268  20.411  0.00  0.00    +0.000 A 
ATOM     20  C   UNL     1       0.710  11.600  20.118  0.00  0.00    +0.000 A 
ATOM     21  O   UNL     1      -0.263  11.949  19.231  0.00  0.00    +0.000 OA
BRANCH  17  27
ATOM     22  F   UNL     1      -2.904   9.637  14.751  0.00  0.00    +0.000 F 
ATOM     23  C   UNL     1      -3.022  10.263  15.930  0.00  0.00    +0.000 A 
ATOM     24  C   UNL     1      -4.183  10.968  16.217  0.00  0.00    +0.000 A 
ATOM     25  C   UNL     1      -4.307  11.618  17.442  0.00  0.00    +0.000 A 
ATOM     26  C   UNL     1      -3.261  11.558  18.370  0.00  0.00    +0.000 A 
ATOM     27  C   UNL     1      -2.084  10.850  18.082  0.00  0.00    +0.000 A 
ATOM     28  C   UNL     1      -1.977  10.198  16.846  0.00  0.00    +0.000 A 
ENDBRANCH  17  27
ENDBRANCH  16  19
ENDBRANCH   1  16
TORSDOF 6
ENDMDL
MODEL 8
REMARK VINA RESULT:      -8.2      1.340      1.844
REMARK  Name = 
REMARK  6 active torsions:
REMARK  status: ('A' for Active; 'I' for Inactive)
REMARK    1  A    between atoms: C_6  and  C_7
REMARK    2  A    between atoms: C_9  and  C_10
REMARK    3  A    between atoms: C_10  and  N_11
REMARK    4  A    between atoms: N_11  and  C_12
REMARK    5  A    between atoms: C_15  and  O_16
REMARK    6  A    between atoms: O_16  and  C_17
REMARK                            x       y       z     vdW  Elec       q    Type
REMARK                         _______ _______ _______ _____ _____    ______ ____
ROOT
ATOM      1  N   UNL     1       3.251   4.706  18.618  0.00  0.00    +0.000 N 
ATOM      2  H   UNL     1       3.160   4.514  17.619  0.00  0.00    +0.000 HD
ENDROOT
BRANCH   1   3
ATOM      3  C   UNL     1       2.621   5.878  19.026  0.00  0.00    +0.000 A 
ATOM      4  C   UNL     1       2.074   5.940  20.315  0.00  0.00    +0.000 A 
ATOM      5  C   UNL     1       1.545   7.130  20.823  0.00  0.00    +0.000 A 
ATOM      6  C   UNL     1       1.583   8.292  20.057  0.00  0.00    +0.000 A 
ATOM      7  C   UNL     1       2.073   8.234  18.752  0.00  0.00    +0.000 A 
ATOM      8  C   UNL     1       2.624   7.047  18.259  0.00  0.00    +0.000 A 
BRANCH   6   9
ATOM      9  O   UNL     1       1.087   9.429  20.651  0.00  0.00    +0.000 OA
BRANCH   9  10
ATOM     10  C   UNL     1       0.526  10.421  19.876  0.00  0.00    +0.000 A 
ATOM     11  C   UNL     1      -0.832  10.275  19.591  0.00  0.00    +0.000 A 
ATOM     12  C   UNL     1      -1.488  11.214  18.791  0.00  0.00    +0.000 A 
ATOM     13  C   UNL     1      -0.784  12.302  18.274  0.00  0.00    +0.000 A 
ATOM     14  C   UNL     1       0.561  12.475  18.591  0.00  0.00    +0.000 A 
ATOM     15  C   UNL     1       1.207  11.554  19.418  0.00  0.00    +0.000 A 
ENDBRANCH   9  10
ENDBRANCH   6   9
ENDBRANCH   1   3
BRANCH   1  16
ATOM     16  C   UNL     1       4.615   4.413  19.054  0.00  0.00    +0.000 C 
BRANCH  16  19
ATOM     17  C   UNL     1       6.413   4.538  15.974  0.00  0.00    +0.000 A 
ATOM     18  N   UNL     1       5.279   4.378  16.633  0.00  0.00    +0.000 NA
ATOM     19  C   UNL     1       5.636   4.530  17.962  0.00  0.00    +0.000 A 
ATOM     20  C   UNL     1       6.977   4.809  18.044  0.00  0.00    +0.000 A 
ATOM     21  O   UNL     1       7.487   4.817  16.781  0.00  0.00    +0.000 OA
BRANCH  17  27
ATOM     22  F   UNL     1       8.505   6.266  11.980  0.00  0.00    +0.000 F 
ATOM     23  C   UNL     1       7.714   5.350  12.553  0.00  0.00    +0.000 A 
ATOM     24  C   UNL     1       7.131   4.363  11.770  0.00  0.00    +0.000 A 
ATOM     25  C   UNL     1       6.309   3.409  12.365  0.00  0.00    +0.000 A 
ATOM     26  C   UNL     1       6.075   3.456  13.744  0.00  0.00    +0.000 A 
ATOM     27  C   UNL     1       6.660   4.454  14.539  0.00  0.00    +0.000 A 
ATOM     28  C   UNL     1       7.488   5.404  13.925  0.00  0.00    +0.000 A 
ENDBRANCH  17  27
ENDBRANCH  16  19
ENDBRANCH   1  16
TORSDOF 6
ENDMDL
MODEL 9
REMARK VINA RESULT:      -8.1      1.282      2.197
REMARK  Name = 
REMARK  6 active torsions:
REMARK  status: ('A' for Active; 'I' for Inactive)
REMARK    1  A    between atoms: C_6  and  C_7
REMARK    2  A    between atoms: C_9  and  C_10
REMARK    3  A    between atoms: C_10  and  N_11
REMARK    4  A    between atoms: N_11  and  C_12
REMARK    5  A    between atoms: C_15  and  O_16
REMARK    6  A    between atoms: O_16  and  C_17
REMARK                            x       y       z     vdW  Elec       q    Type
REMARK                         _______ _______ _______ _____ _____    ______ ____
ROOT
ATOM      1  N   UNL     1       2.466   6.402  20.611  0.00  0.00    +0.000 N 
ATOM      2  H   UNL     1       2.159   6.094  21.535  0.00  0.00    +0.000 HD
ENDROOT
BRANCH   1   3
ATOM      3  C   UNL     1       1.905   7.608  20.203  0.00  0.00    +0.000 A 
ATOM      4  C   UNL     1       2.093   8.031  18.880  0.00  0.00    +0.000 A 
ATOM      5  C   UNL     1       1.447   9.166  18.381  0.00  0.00    +0.000 A 
ATOM      6  C   UNL     1       0.574   9.884  19.194  0.00  0.00    +0.000 A 
ATOM      7  C   UNL     1       0.419   9.509  20.529  0.00  0.00    +0.000 A 
ATOM      8  C   UNL     1       1.048   8.358  21.014  0.00  0.00    +0.000 A 
BRANCH   6   9
ATOM      9  O   UNL     1      -0.058  10.958  18.610  0.00  0.00    +0.000 OA
BRANCH   9  10
ATOM     10  C   UNL     1      -1.361  10.837  18.178  0.00  0.00    +0.000 A 
ATOM     11  C   UNL     1      -2.285  11.685  18.791  0.00  0.00    +0.000 A 
ATOM     12  C   UNL     1      -3.637  11.622  18.442  0.00  0.00    +0.000 A 
ATOM     13  C   UNL     1      -4.066  10.709  17.478  0.00  0.00    +0.000 A 
ATOM     14  C   UNL     1      -3.140   9.890  16.834  0.00  0.00    +0.000 A 
ATOM     15  C   UNL     1      -1.786   9.978  17.160  0.00  0.00    +0.000 A 
ENDBRANCH   9  10
ENDBRANCH   6   9
ENDBRANCH   1   3
BRANCH   1  16
ATOM     16  C   UNL     1       2.502   5.262  19.698  0.00  0.00    +0.000 C 
BRANCH  16  19
ATOM     17  C   UNL     1       5.067   4.945  17.237  0.00  0.00    +0.000 A 
ATOM     18  N   UNL     1       3.787   5.039  17.552  0.00  0.00    +0.000 NA
ATOM     19  C   UNL     1       3.787   5.141  18.934  0.00  0.00    +0.000 A 
ATOM     20  C   UNL     1       5.080   5.134  19.391  0.00  0.00    +0.000 A 
ATOM     21  O   UNL     1       5.910   5.008  18.317  0.00  0.00    +0.000 OA
BRANCH  17  27
ATOM     22  F   UNL     1       4.769   3.525  12.631  0.00  0.00    +0.000 F 
ATOM     23  C   UNL     1       5.500   4.053  13.621  0.00  0.00    +0.000 A 
ATOM     24  C   UNL     1       6.821   4.409  13.382  0.00  0.00    +0.000 A 
ATOM     25  C   UNL     1       7.582   4.959  14.410  0.00  0.00    +0.000 A 
ATOM     26  C   UNL     1       7.011   5.145  15.674  0.00  0.00    +0.000 A 
ATOM     27  C   UNL     1       5.677   4.783  15.922  0.00  0.00    +0.000 A 
ATOM     28  C   UNL     1       4.924   4.235  14.875  0.00  0.00    +0.000 A 
ENDBRANCH  17  27
ENDBRANCH  16  19
ENDBRANCH   1  16
TORSDOF 6
ENDMDL
