MODEL 1
REMARK VINA RESULT:      -3.5      0.000      0.000
REMARK  Name = 
REMARK  4 active torsions:
REMARK  status: ('A' for Active; 'I' for Inactive)
REMARK    1  A    between atoms: C_1  and  C_2
REMARK    2  A    between atoms: C_2  and  C_3
REMARK    3  A    between atoms: C_3  and  C_4
REMARK    4  A    between atoms: C_3  and  C_5
REMARK                            x       y       z     vdW  Elec       q    Type
REMARK                         _______ _______ _______ _____ _____    ______ ____
ROOT
ATOM      1  C   UNL     1       2.103   3.608  19.015  0.00  0.00    +0.000 C 
ATOM      2  C   UNL     1       1.590   4.300  17.751  0.00  0.00    +0.000 C 
ATOM      3  C   UNL     1       3.102   4.495  19.759  0.00  0.00    +0.000 C 
ATOM      4 BR   UNL     1       3.108   1.998  18.416  0.00  0.00    +0.000 Br
ENDROOT
BRANCH   1   6
ATOM      5  C   UNL     1       1.387   2.789  21.355  0.00  0.00    +0.000 C 
ATOM      6  C   UNL     1       0.967   3.104  19.924  0.00  0.00    +0.000 C 
ENDBRANCH   1   6
TORSDOF 1
ENDMDL
MODEL 2
REMARK VINA RESULT:      -3.5      1.686      2.259
REMARK  Name = 
REMARK  4 active torsions:
REMARK  status: ('A' for Active; 'I' for Inactive)
REMARK    1  A    between atoms: C_1  and  C_2
REMARK    2  A    between atoms: C_2  and  C_3
REMARK    3  A    between atoms: C_3  and  C_4
REMARK    4  A    between atoms: C_3  and  C_5
REMARK                            x       y       z     vdW  Elec       q    Type
REMARK                         _______ _______ _______ _____ _____    ______ ____
ROOT
ATOM      1  C   UNL     1       2.134   2.871  18.949  0.00  0.00    +0.000 C 
ATOM      2  C   UNL     1       3.125   1.962  18.219  0.00  0.00    +0.000 C 
ATOM      3  C   UNL     1       0.711   2.318  18.855  0.00  0.00    +0.000 C 
ATOM      4 BR   UNL     1       2.135   4.610  17.982  0.00  0.00    +0.000 Br
ENDROOT
BRANCH   1   6
ATOM      5  C   UNL     1       1.536   2.775  21.458  0.00  0.00    +0.000 C 
ATOM      6  C   UNL     1       2.557   3.174  20.398  0.00  0.00    +0.000 C 
ENDBRANCH   1   6
TORSDOF 1
ENDMDL
MODEL 3
REMARK VINA RESULT:      -3.5      0.795      1.525
REMARK  Name = 
REMARK  4 active torsions:
REMARK  status: ('A' for Active; 'I' for Inactive)
REMARK    1  A    between atoms: C_1  and  C_2
REMARK    2  A    between atoms: C_2  and  C_3
REMARK    3  A    between atoms: C_3  and  C_4
REMARK    4  A    between atoms: C_3  and  C_5
REMARK                            x       y       z     vdW  Elec       q    Type
REMARK                         _______ _______ _______ _____ _____    ______ ____
ROOT
ATOM      1  C   UNL     1       1.905   3.239  18.839  0.00  0.00    +0.000 C 
ATOM      2  C   UNL     1       0.647   2.369  18.840  0.00  0.00    +0.000 C 
ATOM      3  C   UNL     1       1.778   4.386  17.835  0.00  0.00    +0.000 C 
ATOM      4 BR   UNL     1       3.397   2.087  18.202  0.00  0.00    +0.000 Br
ENDROOT
BRANCH   1   6
ATOM      5  C   UNL     1       1.646   2.956  21.392  0.00  0.00    +0.000 C 
ATOM      6  C   UNL     1       2.295   3.726  20.247  0.00  0.00    +0.000 C 
ENDBRANCH   1   6
TORSDOF 1
ENDMDL
MODEL 4
REMARK VINA RESULT:      -3.4      1.103      2.513
REMARK  Name = 
REMARK  4 active torsions:
REMARK  status: ('A' for Active; 'I' for Inactive)
REMARK    1  A    between atoms: C_1  and  C_2
REMARK    2  A    between atoms: C_2  and  C_3
REMARK    3  A    between atoms: C_3  and  C_4
REMARK    4  A    between atoms: C_3  and  C_5
REMARK                            x       y       z     vdW  Elec       q    Type
REMARK                         _______ _______ _______ _____ _____    ______ ____
ROOT
ATOM      1  C   UNL     1       2.018   3.430  20.345  0.00  0.00    +0.000 C 
ATOM      2  C   UNL     1       2.214   4.909  20.682  0.00  0.00    +0.000 C 
ATOM      3  C   UNL     1       1.516   2.652  21.562  0.00  0.00    +0.000 C 
ATOM      4 BR   UNL     1       3.817   2.701  19.906  0.00  0.00    +0.000 Br
ENDROOT
BRANCH   1   6
ATOM      5  C   UNL     1       1.517   4.064  17.894  0.00  0.00    +0.000 C 
ATOM      6  C   UNL     1       1.139   3.212  19.100  0.00  0.00    +0.000 C 
ENDBRANCH   1   6
TORSDOF 1
ENDMDL
MODEL 5
REMARK VINA RESULT:      -3.4      1.311      1.766
REMARK  Name = 
REMARK  4 active torsions:
REMARK  status: ('A' for Active; 'I' for Inactive)
REMARK    1  A    between atoms: C_1  and  C_2
REMARK    2  A    between atoms: C_2  and  C_3
REMARK    3  A    between atoms: C_3  and  C_4
REMARK    4  A    between atoms: C_3  and  C_5
REMARK                            x       y       z     vdW  Elec       q    Type
REMARK                         _______ _______ _______ _____ _____    ______ ____
ROOT
ATOM      1  C   UNL     1       1.971   3.324  18.628  0.00  0.00    +0.000 C 
ATOM      2  C   UNL     1       2.495   2.122  17.841  0.00  0.00    +0.000 C 
ATOM      3  C   UNL     1       1.523   4.444  17.687  0.00  0.00    +0.000 C 
ATOM      4 BR   UNL     1       3.507   4.037  19.673  0.00  0.00    +0.000 Br
ENDROOT
BRANCH   1   6
ATOM      5  C   UNL     1       1.338   2.967  21.105  0.00  0.00    +0.000 C 
ATOM      6  C   UNL     1       0.884   2.941  19.650  0.00  0.00    +0.000 C 
ENDBRANCH   1   6
TORSDOF 1
ENDMDL
MODEL 6
REMARK VINA RESULT:      -3.4      1.872      2.328
REMARK  Name = 
REMARK  4 active torsions:
REMARK  status: ('A' for Active; 'I' for Inactive)
REMARK    1  A    between atoms: C_1  and  C_2
REMARK    2  A    between atoms: C_2  and  C_3
REMARK    3  A    between atoms: C_3  and  C_4
REMARK    4  A    between atoms: C_3  and  C_5
REMARK                            x       y       z     vdW  Elec       q    Type
REMARK                         _______ _______ _______ _____ _____    ______ ____
ROOT
ATOM      1  C   UNL     1       2.057   4.198  19.227  0.00  0.00    +0.000 C 
ATOM      2  C   UNL     1       3.351   3.401  19.399  0.00  0.00    +0.000 C 
ATOM      3  C   UNL     1       1.623   4.230  17.760  0.00  0.00    +0.000 C 
ATOM      4 BR   UNL     1       2.469   6.076  19.740  0.00  0.00    +0.000 Br
ENDROOT
BRANCH   1   6
ATOM      5  C   UNL     1       1.397   2.858  21.332  0.00  0.00    +0.000 C 
ATOM      6  C   UNL     1       0.932   3.722  20.165  0.00  0.00    +0.000 C 
ENDBRANCH   1   6
TORSDOF 1
ENDMDL
MODEL 7
REMARK VINA RESULT:      -3.4      1.088      1.088
REMARK  Name = 
REMARK  4 active torsions:
REMARK  status: ('A' for Active; 'I' for Inactive)
REMARK    1  A    between atoms: C_1  and  C_2
REMARK    2  A    between atoms: C_2  and  C_3
REMARK    3  A    between atoms: C_3  and  C_4
REMARK    4  A    between atoms: C_3  and  C_5
REMARK                            x       y       z     vdW  Elec       q    Type
REMARK                         _______ _______ _______ _____ _____    ______ ____
ROOT
ATOM      1  C   UNL     1       2.044   4.432  19.319  0.00  0.00    +0.000 C 
ATOM      2  C   UNL     1       1.646   4.287  17.850  0.00  0.00    +0.000 C 
ATOM      3  C   UNL     1       2.511   5.856  19.624  0.00  0.00    +0.000 C 
ATOM      4 BR   UNL     1       3.615   3.244  19.606  0.00  0.00    +0.000 Br
ENDROOT
BRANCH   1   6
ATOM      5  C   UNL     1       1.376   2.842  21.240  0.00  0.00    +0.000 C 
ATOM      6  C   UNL     1       0.946   3.951  20.286  0.00  0.00    +0.000 C 
ENDBRANCH   1   6
TORSDOF 1
ENDMDL
MODEL 8
REMARK VINA RESULT:      -3.4      1.850      2.511
REMARK  Name = 
REMARK  4 active torsions:
REMARK  status: ('A' for Active; 'I' for Inactive)
REMARK    1  A    between atoms: C_1  and  C_2
REMARK    2  A    between atoms: C_2  and  C_3
REMARK    3  A    between atoms: C_3  and  C_4
REMARK    4  A    between atoms: C_3  and  C_5
REMARK                            x       y       z     vdW  Elec       q    Type
REMARK                         _______ _______ _______ _____ _____    ______ ____
ROOT
ATOM      1  C   UNL     1       1.724   3.275  19.346  0.00  0.00    +0.000 C 
ATOM      2  C   UNL     1       0.642   2.338  18.806  0.00  0.00    +0.000 C 
ATOM      3  C   UNL     1       1.228   4.034  20.578  0.00  0.00    +0.000 C 
ATOM      4 BR   UNL     1       2.057   4.637  17.934  0.00  0.00    +0.000 Br
ENDROOT
BRANCH   1   6
ATOM      5  C   UNL     1       3.497   1.611  18.480  0.00  0.00    +0.000 C 
ATOM      6  C   UNL     1       3.065   2.559  19.593  0.00  0.00    +0.000 C 
ENDBRANCH   1   6
TORSDOF 1
ENDMDL
MODEL 9
REMARK VINA RESULT:      -3.4      2.066      2.870
REMARK  Name = 
REMARK  4 active torsions:
REMARK  status: ('A' for Active; 'I' for Inactive)
REMARK    1  A    between atoms: C_1  and  C_2
REMARK    2  A    between atoms: C_2  and  C_3
REMARK    3  A    between atoms: C_3  and  C_4
REMARK    4  A    between atoms: C_3  and  C_5
REMARK                            x       y       z     vdW  Elec       q    Type
REMARK                         _______ _______ _______ _____ _____    ______ ____
ROOT
ATOM      1  C   UNL     1       1.923   3.101  20.223  0.00  0.00    +0.000 C 
ATOM      2  C   UNL     1       0.825   2.762  19.213  0.00  0.00    +0.000 C 
ATOM      3  C   UNL     1       1.563   2.587  21.618  0.00  0.00    +0.000 C 
ATOM      4 BR   UNL     1       1.992   5.086  20.348  0.00  0.00    +0.000 Br
ENDROOT
BRANCH   1   6
ATOM      5  C   UNL     1       3.325   1.757  18.522  0.00  0.00    +0.000 C 
ATOM      6  C   UNL     1       3.319   2.640  19.765  0.00  0.00    +0.000 C 
ENDBRANCH   1   6
TORSDOF 1
ENDMDL
