MODEL 1
REMARK VINA RESULT:      -8.3      0.000      0.000
REMARK  Name = 
REMARK  7 active torsions:
REMARK  status: ('A' for Active; 'I' for Inactive)
REMARK    1  A    between atoms: C_1  and  O_2
REMARK    2  A    between atoms: O_2  and  C_3
REMARK    3  A    between atoms: C_7  and  O_8
REMARK    4  A    between atoms: O_8  and  C_9
REMARK    5  A    between atoms: C_9  and  C_10
REMARK    6  A    between atoms: C_9  and  C_16
REMARK    7  A    between atoms: N_25  and  C_26
REMARK                            x       y       z     vdW  Elec       q    Type
REMARK                         _______ _______ _______ _____ _____    ______ ____
ROOT
ATOM      1  C   UNL     1       5.414   4.208  15.928  0.00  0.00    +0.000 C 
ENDROOT
BRANCH   1   2
ATOM      2  C   UNL     1       6.163   5.268  16.757  0.00  0.00    +0.000 A 
ATOM      3  C   UNL     1       5.864   6.637  16.608  0.00  0.00    +0.000 A 
ATOM      4  C   UNL     1       6.617   7.607  17.281  0.00  0.00    +0.000 A 
ATOM      5  C   UNL     1       7.669   7.215  18.110  0.00  0.00    +0.000 A 
ATOM      6 CL   UNL     1       8.659   8.410  18.861  0.00  0.00    +0.000 Cl
ATOM      7  C   UNL     1       7.951   5.876  18.303  0.00  0.00    +0.000 A 
ATOM      8  C   UNL     1       7.195   4.905  17.649  0.00  0.00    +0.000 A 
ENDBRANCH   1   2
BRANCH   1   9
ATOM      9  C   UNL     1       5.869   4.189  14.460  0.00  0.00    +0.000 A 
ATOM     10  C   UNL     1       7.062   4.785  14.013  0.00  0.00    +0.000 A 
ATOM     11  C   UNL     1       7.509   4.608  12.692  0.00  0.00    +0.000 A 
ATOM     12  C   UNL     1       6.775   3.839  11.793  0.00  0.00    +0.000 A 
ATOM     13  C   UNL     1       5.580   3.258  12.205  0.00  0.00    +0.000 A 
ATOM     14  C   UNL     1       5.132   3.433  13.523  0.00  0.00    +0.000 A 
ENDBRANCH   1   9
BRANCH   1  15
ATOM     15  O   UNL     1       4.007   4.386  16.206  0.00  0.00    +0.000 OA
BRANCH  15  20
ATOM     16  C   UNL     1       2.626   5.919  19.419  0.00  0.00    +0.000 C 
ATOM     17  C   UNL     1       4.034   5.357  19.686  0.00  0.00    +0.000 C 
ATOM     18  C   UNL     1       3.876   3.817  19.688  0.00  0.00    +0.000 C 
ATOM     19  C   UNL     1       4.184   3.088  18.363  0.00  0.00    +0.000 C 
ATOM     20  C   UNL     1       3.349   3.527  17.146  0.00  0.00    +0.000 C 
ATOM     21  C   UNL     1       2.007   4.200  17.560  0.00  0.00    +0.000 C 
ATOM     22  C   UNL     1       1.849   4.640  19.041  0.00  0.00    +0.000 C 
ATOM     23  N   UNL     1       2.443   3.570  19.890  0.00  0.00    +0.000 NA
ATOM     24  C   UNL     1       2.090   3.658  21.312  0.00  0.00    +0.000 C 
BRANCH  16  26
ATOM     25  C   UNL     1       1.464   7.751  20.632  0.00  0.00    +0.000 C 
ATOM     26  O   UNL     1       1.889   6.411  20.555  0.00  0.00    +0.000 OA
ENDBRANCH  16  26
ENDBRANCH  15  20
ENDBRANCH   1  15
TORSDOF 5
ENDMDL
MODEL 2
REMARK VINA RESULT:      -7.7      2.792      6.510
REMARK  Name = 
REMARK  7 active torsions:
REMARK  status: ('A' for Active; 'I' for Inactive)
REMARK    1  A    between atoms: C_1  and  O_2
REMARK    2  A    between atoms: O_2  and  C_3
REMARK    3  A    between atoms: C_7  and  O_8
REMARK    4  A    between atoms: O_8  and  C_9
REMARK    5  A    between atoms: C_9  and  C_10
REMARK    6  A    between atoms: C_9  and  C_16
REMARK    7  A    between atoms: N_25  and  C_26
REMARK                            x       y       z     vdW  Elec       q    Type
REMARK                         _______ _______ _______ _____ _____    ______ ____
ROOT
ATOM      1  C   UNL     1       3.483   6.003  17.942  0.00  0.00    +0.000 C 
ENDROOT
BRANCH   1   2
ATOM      2  C   UNL     1       2.679   7.166  18.552  0.00  0.00    +0.000 A 
ATOM      3  C   UNL     1       2.292   7.137  19.907  0.00  0.00    +0.000 A 
ATOM      4  C   UNL     1       1.470   8.142  20.434  0.00  0.00    +0.000 A 
ATOM      5  C   UNL     1       1.035   9.183  19.613  0.00  0.00    +0.000 A 
ATOM      6 CL   UNL     1      -0.055  10.365  20.234  0.00  0.00    +0.000 Cl
ATOM      7  C   UNL     1       1.438   9.252  18.293  0.00  0.00    +0.000 A 
ATOM      8  C   UNL     1       2.268   8.264  17.766  0.00  0.00    +0.000 A 
ENDBRANCH   1   2
BRANCH   1   9
ATOM      9  C   UNL     1       2.914   4.631  18.340  0.00  0.00    +0.000 A 
ATOM     10  C   UNL     1       3.571   3.747  19.214  0.00  0.00    +0.000 A 
ATOM     11  C   UNL     1       2.941   2.575  19.666  0.00  0.00    +0.000 A 
ATOM     12  C   UNL     1       1.649   2.261  19.255  0.00  0.00    +0.000 A 
ATOM     13  C   UNL     1       0.987   3.109  18.373  0.00  0.00    +0.000 A 
ATOM     14  C   UNL     1       1.613   4.280  17.920  0.00  0.00    +0.000 A 
ENDBRANCH   1   9
BRANCH   1  15
ATOM     15  O   UNL     1       4.875   6.274  18.221  0.00  0.00    +0.000 OA
BRANCH  15  20
ATOM     16  C   UNL     1       5.547   4.025  15.209  0.00  0.00    +0.000 C 
ATOM     17  C   UNL     1       6.677   3.848  16.240  0.00  0.00    +0.000 C 
ATOM     18  C   UNL     1       7.516   5.147  16.167  0.00  0.00    +0.000 C 
ATOM     19  C   UNL     1       7.182   6.246  17.197  0.00  0.00    +0.000 C 
ATOM     20  C   UNL     1       5.731   6.762  17.180  0.00  0.00    +0.000 C 
ATOM     21  C   UNL     1       5.027   6.507  15.815  0.00  0.00    +0.000 C 
ATOM     22  C   UNL     1       5.705   5.514  14.831  0.00  0.00    +0.000 C 
ATOM     23  N   UNL     1       7.171   5.765  14.881  0.00  0.00    +0.000 NA
ATOM     24  C   UNL     1       7.930   5.155  13.784  0.00  0.00    +0.000 C 
BRANCH  16  26
ATOM     25  C   UNL     1       4.932   3.720  12.820  0.00  0.00    +0.000 C 
ATOM     26  O   UNL     1       5.705   3.360  13.941  0.00  0.00    +0.000 OA
ENDBRANCH  16  26
ENDBRANCH  15  20
ENDBRANCH   1  15
TORSDOF 5
ENDMDL
MODEL 3
REMARK VINA RESULT:      -7.6      0.243      1.358
REMARK  Name = 
REMARK  7 active torsions:
REMARK  status: ('A' for Active; 'I' for Inactive)
REMARK    1  A    between atoms: C_1  and  O_2
REMARK    2  A    between atoms: O_2  and  C_3
REMARK    3  A    between atoms: C_7  and  O_8
REMARK    4  A    between atoms: O_8  and  C_9
REMARK    5  A    between atoms: C_9  and  C_10
REMARK    6  A    between atoms: C_9  and  C_16
REMARK    7  A    between atoms: N_25  and  C_26
REMARK                            x       y       z     vdW  Elec       q    Type
REMARK                         _______ _______ _______ _____ _____    ______ ____
ROOT
ATOM      1  C   UNL     1       5.610   4.106  15.885  0.00  0.00    +0.000 C 
ENDROOT
BRANCH   1   2
ATOM      2  C   UNL     1       6.446   5.155  16.641  0.00  0.00    +0.000 A 
ATOM      3  C   UNL     1       7.404   4.757  17.595  0.00  0.00    +0.000 A 
ATOM      4  C   UNL     1       8.087   5.712  18.359  0.00  0.00    +0.000 A 
ATOM      5  C   UNL     1       7.820   7.068  18.172  0.00  0.00    +0.000 A 
ATOM      6 CL   UNL     1       8.586   8.239  19.179  0.00  0.00    +0.000 Cl
ATOM      7  C   UNL     1       6.915   7.481  17.213  0.00  0.00    +0.000 A 
ATOM      8  C   UNL     1       6.244   6.537  16.438  0.00  0.00    +0.000 A 
ENDBRANCH   1   2
BRANCH   1   9
ATOM      9  C   UNL     1       6.045   3.964  14.417  0.00  0.00    +0.000 A 
ATOM     10  C   UNL     1       5.276   3.299  13.445  0.00  0.00    +0.000 A 
ATOM     11  C   UNL     1       5.642   3.330  12.088  0.00  0.00    +0.000 A 
ATOM     12  C   UNL     1       6.778   4.019  11.676  0.00  0.00    +0.000 A 
ATOM     13  C   UNL     1       7.567   4.666  12.622  0.00  0.00    +0.000 A 
ATOM     14  C   UNL     1       7.205   4.637  13.977  0.00  0.00    +0.000 A 
ENDBRANCH   1   9
BRANCH   1  15
ATOM     15  O   UNL     1       4.223   4.405  16.162  0.00  0.00    +0.000 OA
BRANCH  15  20
ATOM     16  C   UNL     1       2.865   6.016  19.347  0.00  0.00    +0.000 C 
ATOM     17  C   UNL     1       4.225   5.358  19.647  0.00  0.00    +0.000 C 
ATOM     18  C   UNL     1       3.963   3.833  19.636  0.00  0.00    +0.000 C 
ATOM     19  C   UNL     1       4.256   3.089  18.316  0.00  0.00    +0.000 C 
ATOM     20  C   UNL     1       3.484   3.589  17.080  0.00  0.00    +0.000 C 
ATOM     21  C   UNL     1       2.181   4.350  17.462  0.00  0.00    +0.000 C 
ATOM     22  C   UNL     1       2.014   4.793  18.942  0.00  0.00    +0.000 C 
ATOM     23  N   UNL     1       2.511   3.683  19.800  0.00  0.00    +0.000 NA
ATOM     24  C   UNL     1       2.128   3.788  21.212  0.00  0.00    +0.000 C 
BRANCH  16  26
ATOM     25  C   UNL     1       1.618   7.862  20.448  0.00  0.00    +0.000 C 
ATOM     26  O   UNL     1       2.133   6.552  20.466  0.00  0.00    +0.000 OA
ENDBRANCH  16  26
ENDBRANCH  15  20
ENDBRANCH   1  15
TORSDOF 5
ENDMDL
MODEL 4
REMARK VINA RESULT:      -7.6      2.747      6.408
REMARK  Name = 
REMARK  7 active torsions:
REMARK  status: ('A' for Active; 'I' for Inactive)
REMARK    1  A    between atoms: C_1  and  O_2
REMARK    2  A    between atoms: O_2  and  C_3
REMARK    3  A    between atoms: C_7  and  O_8
REMARK    4  A    between atoms: O_8  and  C_9
REMARK    5  A    between atoms: C_9  and  C_10
REMARK    6  A    between atoms: C_9  and  C_16
REMARK    7  A    between atoms: N_25  and  C_26
REMARK                            x       y       z     vdW  Elec       q    Type
REMARK                         _______ _______ _______ _____ _____    ______ ____
ROOT
ATOM      1  C   UNL     1       3.402   6.155  18.019  0.00  0.00    +0.000 C 
ENDROOT
BRANCH   1   2
ATOM      2  C   UNL     1       2.517   7.289  18.567  0.00  0.00    +0.000 A 
ATOM      3  C   UNL     1       2.120   8.355  17.735  0.00  0.00    +0.000 A 
ATOM      4  C   UNL     1       1.406   9.440  18.260  0.00  0.00    +0.000 A 
ATOM      5  C   UNL     1       1.080   9.463  19.617  0.00  0.00    +0.000 A 
ATOM      6 CL   UNL     1       0.288  10.841  20.283  0.00  0.00    +0.000 Cl
ATOM      7  C   UNL     1       1.422   8.407  20.440  0.00  0.00    +0.000 A 
ATOM      8  C   UNL     1       2.119   7.318  19.921  0.00  0.00    +0.000 A 
ENDBRANCH   1   2
BRANCH   1   9
ATOM      9  C   UNL     1       2.891   4.766  18.432  0.00  0.00    +0.000 A 
ATOM     10  C   UNL     1       1.660   4.237  18.005  0.00  0.00    +0.000 A 
ATOM     11  C   UNL     1       1.308   2.905  18.284  0.00  0.00    +0.000 A 
ATOM     12  C   UNL     1       2.172   2.078  18.994  0.00  0.00    +0.000 A 
ATOM     13  C   UNL     1       3.387   2.584  19.447  0.00  0.00    +0.000 A 
ATOM     14  C   UNL     1       3.740   3.913  19.170  0.00  0.00    +0.000 A 
ENDBRANCH   1   9
BRANCH   1  15
ATOM     15  O   UNL     1       4.768   6.505  18.342  0.00  0.00    +0.000 OA
BRANCH  15  20
ATOM     16  C   UNL     1       5.484   4.092  15.470  0.00  0.00    +0.000 C 
ATOM     17  C   UNL     1       6.579   3.949  16.543  0.00  0.00    +0.000 C 
ATOM     18  C   UNL     1       7.445   5.226  16.430  0.00  0.00    +0.000 C 
ATOM     19  C   UNL     1       7.103   6.383  17.391  0.00  0.00    +0.000 C 
ATOM     20  C   UNL     1       5.663   6.924  17.304  0.00  0.00    +0.000 C 
ATOM     21  C   UNL     1       4.994   6.610  15.933  0.00  0.00    +0.000 C 
ATOM     22  C   UNL     1       5.681   5.556  15.022  0.00  0.00    +0.000 C 
ATOM     23  N   UNL     1       7.150   5.784  15.103  0.00  0.00    +0.000 NA
ATOM     24  C   UNL     1       7.929   5.104  14.062  0.00  0.00    +0.000 C 
BRANCH  16  26
ATOM     25  C   UNL     1       5.021   3.746  13.053  0.00  0.00    +0.000 C 
ATOM     26  O   UNL     1       5.666   3.359  14.243  0.00  0.00    +0.000 OA
ENDBRANCH  16  26
ENDBRANCH  15  20
ENDBRANCH   1  15
TORSDOF 5
ENDMDL
MODEL 5
REMARK VINA RESULT:      -7.5      2.726      6.342
REMARK  Name = 
REMARK  7 active torsions:
REMARK  status: ('A' for Active; 'I' for Inactive)
REMARK    1  A    between atoms: C_1  and  O_2
REMARK    2  A    between atoms: O_2  and  C_3
REMARK    3  A    between atoms: C_7  and  O_8
REMARK    4  A    between atoms: O_8  and  C_9
REMARK    5  A    between atoms: C_9  and  C_10
REMARK    6  A    between atoms: C_9  and  C_16
REMARK    7  A    between atoms: N_25  and  C_26
REMARK                            x       y       z     vdW  Elec       q    Type
REMARK                         _______ _______ _______ _____ _____    ______ ____
ROOT
ATOM      1  C   UNL     1       3.483   5.713  17.696  0.00  0.00    +0.000 C 
ENDROOT
BRANCH   1   2
ATOM      2  C   UNL     1       2.664   6.837  18.356  0.00  0.00    +0.000 A 
ATOM      3  C   UNL     1       2.219   7.939  17.599  0.00  0.00    +0.000 A 
ATOM      4  C   UNL     1       1.568   9.013  18.219  0.00  0.00    +0.000 A 
ATOM      5  C   UNL     1       1.353   8.989  19.598  0.00  0.00    +0.000 A 
ATOM      6 CL   UNL     1       0.641  10.352  20.377  0.00  0.00    +0.000 Cl
ATOM      7  C   UNL     1       1.744   7.899  20.352  0.00  0.00    +0.000 A 
ATOM      8  C   UNL     1       2.378   6.820  19.738  0.00  0.00    +0.000 A 
ENDBRANCH   1   2
BRANCH   1   9
ATOM      9  C   UNL     1       2.856   4.327  17.921  0.00  0.00    +0.000 A 
ATOM     10  C   UNL     1       3.612   3.148  18.042  0.00  0.00    +0.000 A 
ATOM     11  C   UNL     1       3.004   1.931  18.399  0.00  0.00    +0.000 A 
ATOM     12  C   UNL     1       1.634   1.868  18.640  0.00  0.00    +0.000 A 
ATOM     13  C   UNL     1       0.862   3.017  18.505  0.00  0.00    +0.000 A 
ATOM     14  C   UNL     1       1.466   4.232  18.148  0.00  0.00    +0.000 A 
ENDBRANCH   1   9
BRANCH   1  15
ATOM     15  O   UNL     1       4.857   5.914  18.096  0.00  0.00    +0.000 OA
BRANCH  15  20
ATOM     16  C   UNL     1       5.501   4.120  14.788  0.00  0.00    +0.000 C 
ATOM     17  C   UNL     1       6.567   3.695  15.815  0.00  0.00    +0.000 C 
ATOM     18  C   UNL     1       7.501   4.919  15.979  0.00  0.00    +0.000 C 
ATOM     19  C   UNL     1       7.200   5.866  17.159  0.00  0.00    +0.000 C 
ATOM     20  C   UNL     1       5.793   6.491  17.176  0.00  0.00    +0.000 C 
ATOM     21  C   UNL     1       5.135   6.509  15.765  0.00  0.00    +0.000 C 
ATOM     22  C   UNL     1       5.783   5.632  14.658  0.00  0.00    +0.000 C 
ATOM     23  N   UNL     1       7.260   5.757  14.797  0.00  0.00    +0.000 NA
ATOM     24  C   UNL     1       8.022   5.268  13.642  0.00  0.00    +0.000 C 
BRANCH  16  26
ATOM     25  C   UNL     1       4.565   3.453  12.585  0.00  0.00    +0.000 C 
ATOM     26  O   UNL     1       5.668   3.651  13.436  0.00  0.00    +0.000 OA
ENDBRANCH  16  26
ENDBRANCH  15  20
ENDBRANCH   1  15
TORSDOF 5
ENDMDL
MODEL 6
REMARK VINA RESULT:      -7.2      2.037      4.136
REMARK  Name = 
REMARK  7 active torsions:
REMARK  status: ('A' for Active; 'I' for Inactive)
REMARK    1  A    between atoms: C_1  and  O_2
REMARK    2  A    between atoms: O_2  and  C_3
REMARK    3  A    between atoms: C_7  and  O_8
REMARK    4  A    between atoms: O_8  and  C_9
REMARK    5  A    between atoms: C_9  and  C_10
REMARK    6  A    between atoms: C_9  and  C_16
REMARK    7  A    between atoms: N_25  and  C_26
REMARK                            x       y       z     vdW  Elec       q    Type
REMARK                         _______ _______ _______ _____ _____    ______ ____
ROOT
ATOM      1  C   UNL     1       5.321   4.653  16.491  0.00  0.00    +0.000 C 
ENDROOT
BRANCH   1   2
ATOM      2  C   UNL     1       5.816   4.474  15.044  0.00  0.00    +0.000 A 
ATOM      3  C   UNL     1       5.049   3.752  14.107  0.00  0.00    +0.000 A 
ATOM      4  C   UNL     1       5.549   3.498  12.824  0.00  0.00    +0.000 A 
ATOM      5  C   UNL     1       6.814   3.968  12.467  0.00  0.00    +0.000 A 
ATOM      6 CL   UNL     1       7.470   3.572  10.923  0.00  0.00    +0.000 Cl
ATOM      7  C   UNL     1       7.563   4.714  13.357  0.00  0.00    +0.000 A 
ATOM      8  C   UNL     1       7.066   4.984  14.630  0.00  0.00    +0.000 A 
ENDBRANCH   1   2
BRANCH   1   9
ATOM      9  C   UNL     1       6.237   5.576  17.310  0.00  0.00    +0.000 A 
ATOM     10  C   UNL     1       7.091   5.112  18.326  0.00  0.00    +0.000 A 
ATOM     11  C   UNL     1       8.020   5.971  18.940  0.00  0.00    +0.000 A 
ATOM     12  C   UNL     1       8.111   7.305  18.555  0.00  0.00    +0.000 A 
ATOM     13  C   UNL     1       7.262   7.793  17.568  0.00  0.00    +0.000 A 
ATOM     14  C   UNL     1       6.334   6.938  16.954  0.00  0.00    +0.000 A 
ENDBRANCH   1   9
BRANCH   1  15
ATOM     15  O   UNL     1       5.051   3.327  17.001  0.00  0.00    +0.000 OA
BRANCH  15  20
ATOM     16  C   UNL     1       3.178   5.877  19.139  0.00  0.00    +0.000 C 
ATOM     17  C   UNL     1       3.906   4.877  20.057  0.00  0.00    +0.000 C 
ATOM     18  C   UNL     1       3.114   3.552  19.944  0.00  0.00    +0.000 C 
ATOM     19  C   UNL     1       3.641   2.515  18.930  0.00  0.00    +0.000 C 
ATOM     20  C   UNL     1       3.739   2.993  17.470  0.00  0.00    +0.000 C 
ATOM     21  C   UNL     1       2.800   4.202  17.178  0.00  0.00    +0.000 C 
ATOM     22  C   UNL     1       2.192   4.950  18.396  0.00  0.00    +0.000 C 
ATOM     23  N   UNL     1       1.801   3.925  19.402  0.00  0.00    +0.000 NA
ATOM     24  C   UNL     1       0.917   4.420  20.462  0.00  0.00    +0.000 C 
BRANCH  16  26
ATOM     25  C   UNL     1       2.010   8.069  19.172  0.00  0.00    +0.000 C 
ATOM     26  O   UNL     1       2.301   6.829  19.771  0.00  0.00    +0.000 OA
ENDBRANCH  16  26
ENDBRANCH  15  20
ENDBRANCH   1  15
TORSDOF 5
ENDMDL
MODEL 7
REMARK VINA RESULT:      -7.2      1.402      2.160
REMARK  Name = 
REMARK  7 active torsions:
REMARK  status: ('A' for Active; 'I' for Inactive)
REMARK    1  A    between atoms: C_1  and  O_2
REMARK    2  A    between atoms: O_2  and  C_3
REMARK    3  A    between atoms: C_7  and  O_8
REMARK    4  A    between atoms: O_8  and  C_9
REMARK    5  A    between atoms: C_9  and  C_10
REMARK    6  A    between atoms: C_9  and  C_16
REMARK    7  A    between atoms: N_25  and  C_26
REMARK                            x       y       z     vdW  Elec       q    Type
REMARK                         _______ _______ _______ _____ _____    ______ ____
ROOT
ATOM      1  C   UNL     1       6.509   4.375  16.533  0.00  0.00    +0.000 C 
ENDROOT
BRANCH   1   2
ATOM      2  C   UNL     1       7.033   5.650  17.217  0.00  0.00    +0.000 A 
ATOM      3  C   UNL     1       6.810   6.917  16.640  0.00  0.00    +0.000 A 
ATOM      4  C   UNL     1       7.378   8.066  17.205  0.00  0.00    +0.000 A 
ATOM      5  C   UNL     1       8.168   7.957  18.350  0.00  0.00    +0.000 A 
ATOM      6 CL   UNL     1       8.948   9.355  18.989  0.00  0.00    +0.000 Cl
ATOM      7  C   UNL     1       8.363   6.730  18.955  0.00  0.00    +0.000 A 
ATOM      8  C   UNL     1       7.788   5.585  18.408  0.00  0.00    +0.000 A 
ENDBRANCH   1   2
BRANCH   1   9
ATOM      9  C   UNL     1       6.620   4.447  15.001  0.00  0.00    +0.000 A 
ATOM     10  C   UNL     1       7.652   5.131  14.333  0.00  0.00    +0.000 A 
ATOM     11  C   UNL     1       7.797   5.039  12.938  0.00  0.00    +0.000 A 
ATOM     12  C   UNL     1       6.916   4.269  12.184  0.00  0.00    +0.000 A 
ATOM     13  C   UNL     1       5.874   3.601  12.819  0.00  0.00    +0.000 A 
ATOM     14  C   UNL     1       5.727   3.691  14.212  0.00  0.00    +0.000 A 
ENDBRANCH   1   9
BRANCH   1  15
ATOM     15  O   UNL     1       5.213   4.099  17.112  0.00  0.00    +0.000 OA
BRANCH  15  20
ATOM     16  C   UNL     1       2.334   2.891  19.310  0.00  0.00    +0.000 C 
ATOM     17  C   UNL     1       1.765   3.601  18.068  0.00  0.00    +0.000 C 
ATOM     18  C   UNL     1       2.040   5.108  18.285  0.00  0.00    +0.000 C 
ATOM     19  C   UNL     1       3.316   5.680  17.632  0.00  0.00    +0.000 C 
ATOM     20  C   UNL     1       4.640   5.016  18.053  0.00  0.00    +0.000 C 
ATOM     21  C   UNL     1       4.529   4.291  19.427  0.00  0.00    +0.000 C 
ATOM     22  C   UNL     1       3.106   4.040  19.995  0.00  0.00    +0.000 C 
ATOM     23  N   UNL     1       2.294   5.258  19.723  0.00  0.00    +0.000 NA
ATOM     24  C   UNL     1       1.036   5.329  20.474  0.00  0.00    +0.000 C 
BRANCH  16  26
ATOM     25  C   UNL     1       1.789   2.328  21.668  0.00  0.00    +0.000 C 
ATOM     26  O   UNL     1       1.395   2.493  20.327  0.00  0.00    +0.000 OA
ENDBRANCH  16  26
ENDBRANCH  15  20
ENDBRANCH   1  15
TORSDOF 5
ENDMDL
MODEL 8
REMARK VINA RESULT:      -7.1      2.515      4.770
REMARK  Name = 
REMARK  7 active torsions:
REMARK  status: ('A' for Active; 'I' for Inactive)
REMARK    1  A    between atoms: C_1  and  O_2
REMARK    2  A    between atoms: O_2  and  C_3
REMARK    3  A    between atoms: C_7  and  O_8
REMARK    4  A    between atoms: O_8  and  C_9
REMARK    5  A    between atoms: C_9  and  C_10
REMARK    6  A    between atoms: C_9  and  C_16
REMARK    7  A    between atoms: N_25  and  C_26
REMARK                            x       y       z     vdW  Elec       q    Type
REMARK                         _______ _______ _______ _____ _____    ______ ____
ROOT
ATOM      1  C   UNL     1       5.211   5.146  15.901  0.00  0.00    +0.000 C 
ENDROOT
BRANCH   1   2
ATOM      2  C   UNL     1       5.755   4.642  14.551  0.00  0.00    +0.000 A 
ATOM      3  C   UNL     1       4.983   3.785  13.742  0.00  0.00    +0.000 A 
ATOM      4  C   UNL     1       5.519   3.240  12.568  0.00  0.00    +0.000 A 
ATOM      5  C   UNL     1       6.826   3.554  12.193  0.00  0.00    +0.000 A 
ATOM      6 CL   UNL     1       7.520   2.809  10.802  0.00  0.00    +0.000 Cl
ATOM      7  C   UNL     1       7.585   4.426  12.950  0.00  0.00    +0.000 A 
ATOM      8  C   UNL     1       7.052   4.983  14.111  0.00  0.00    +0.000 A 
ENDBRANCH   1   2
BRANCH   1   9
ATOM      9  C   UNL     1       6.313   5.760  16.780  0.00  0.00    +0.000 A 
ATOM     10  C   UNL     1       6.563   7.142  16.851  0.00  0.00    +0.000 A 
ATOM     11  C   UNL     1       7.476   7.666  17.783  0.00  0.00    +0.000 A 
ATOM     12  C   UNL     1       8.156   6.824  18.657  0.00  0.00    +0.000 A 
ATOM     13  C   UNL     1       7.942   5.451  18.591  0.00  0.00    +0.000 A 
ATOM     14  C   UNL     1       7.032   4.926  17.662  0.00  0.00    +0.000 A 
ENDBRANCH   1   9
BRANCH   1  15
ATOM     15  O   UNL     1       4.416   4.072  16.452  0.00  0.00    +0.000 OA
BRANCH  15  20
ATOM     16  C   UNL     1       4.420   2.306  19.838  0.00  0.00    +0.000 C 
ATOM     17  C   UNL     1       3.526   1.526  18.857  0.00  0.00    +0.000 C 
ATOM     18  C   UNL     1       2.253   2.388  18.676  0.00  0.00    +0.000 C 
ATOM     19  C   UNL     1       2.222   3.331  17.455  0.00  0.00    +0.000 C 
ATOM     20  C   UNL     1       3.361   4.364  17.377  0.00  0.00    +0.000 C 
ATOM     21  C   UNL     1       4.002   4.646  18.768  0.00  0.00    +0.000 C 
ATOM     22  C   UNL     1       3.679   3.658  19.922  0.00  0.00    +0.000 C 
ATOM     23  N   UNL     1       2.236   3.308  19.820  0.00  0.00    +0.000 NA
ATOM     24  C   UNL     1       1.684   2.654  21.012  0.00  0.00    +0.000 C 
BRANCH  16  26
ATOM     25  C   UNL     1       5.358   0.913  21.669  0.00  0.00    +0.000 C 
ATOM     26  O   UNL     1       4.430   1.866  21.210  0.00  0.00    +0.000 OA
ENDBRANCH  16  26
ENDBRANCH  15  20
ENDBRANCH   1  15
TORSDOF 5
ENDMDL
MODEL 9
REMARK VINA RESULT:      -7.1      1.311      2.291
REMARK  Name = 
REMARK  7 active torsions:
REMARK  status: ('A' for Active; 'I' for Inactive)
REMARK    1  A    between atoms: C_1  and  O_2
REMARK    2  A    between atoms: O_2  and  C_3
REMARK    3  A    between atoms: C_7  and  O_8
REMARK    4  A    between atoms: O_8  and  C_9
REMARK    5  A    between atoms: C_9  and  C_10
REMARK    6  A    between atoms: C_9  and  C_16
REMARK    7  A    between atoms: N_25  and  C_26
REMARK                            x       y       z     vdW  Elec       q    Type
REMARK                         _______ _______ _______ _____ _____    ______ ____
ROOT
ATOM      1  C   UNL     1       6.413   4.392  16.443  0.00  0.00    +0.000 C 
ENDROOT
BRANCH   1   2
ATOM      2  C   UNL     1       7.120   5.594  17.096  0.00  0.00    +0.000 A 
ATOM      3  C   UNL     1       7.804   5.445  18.319  0.00  0.00    +0.000 A 
ATOM      4  C   UNL     1       8.354   6.559  18.967  0.00  0.00    +0.000 A 
ATOM      5  C   UNL     1       8.230   7.825  18.394  0.00  0.00    +0.000 A 
ATOM      6 CL   UNL     1       8.820   9.208  19.236  0.00  0.00    +0.000 Cl
ATOM      7  C   UNL     1       7.600   7.986  17.174  0.00  0.00    +0.000 A 
ATOM      8  C   UNL     1       7.064   6.880  16.517  0.00  0.00    +0.000 A 
ENDBRANCH   1   2
BRANCH   1   9
ATOM      9  C   UNL     1       6.532   4.410  14.910  0.00  0.00    +0.000 A 
ATOM     10  C   UNL     1       7.566   5.069  14.223  0.00  0.00    +0.000 A 
ATOM     11  C   UNL     1       7.717   4.927  12.832  0.00  0.00    +0.000 A 
ATOM     12  C   UNL     1       6.840   4.130  12.103  0.00  0.00    +0.000 A 
ATOM     13  C   UNL     1       5.795   3.485  12.757  0.00  0.00    +0.000 A 
ATOM     14  C   UNL     1       5.643   3.625  14.144  0.00  0.00    +0.000 A 
ENDBRANCH   1   9
BRANCH   1  15
ATOM     15  O   UNL     1       5.092   4.324  17.026  0.00  0.00    +0.000 OA
BRANCH  15  20
ATOM     16  C   UNL     1       2.109   3.436  19.238  0.00  0.00    +0.000 C 
ATOM     17  C   UNL     1       1.641   4.357  18.096  0.00  0.00    +0.000 C 
ATOM     18  C   UNL     1       2.194   5.762  18.439  0.00  0.00    +0.000 C 
ATOM     19  C   UNL     1       3.533   6.159  17.782  0.00  0.00    +0.000 C 
ATOM     20  C   UNL     1       4.725   5.229  18.075  0.00  0.00    +0.000 C 
ATOM     21  C   UNL     1       4.526   4.403  19.380  0.00  0.00    +0.000 C 
ATOM     22  C   UNL     1       3.098   4.354  19.989  0.00  0.00    +0.000 C 
ATOM     23  N   UNL     1       2.514   5.718  19.871  0.00  0.00    +0.000 NA
ATOM     24  C   UNL     1       1.313   5.938  20.685  0.00  0.00    +0.000 C 
BRANCH  16  26
ATOM     25  C   UNL     1       1.536   2.564  21.493  0.00  0.00    +0.000 C 
ATOM     26  O   UNL     1       1.144   3.113  20.257  0.00  0.00    +0.000 OA
ENDBRANCH  16  26
ENDBRANCH  15  20
ENDBRANCH   1  15
TORSDOF 5
ENDMDL
