MODEL 1
REMARK VINA RESULT:      -7.2      0.000      0.000
REMARK  Name = 
REMARK  8 active torsions:
REMARK  status: ('A' for Active; 'I' for Inactive)
REMARK    1  A    between atoms: C_1  and  C_2
REMARK    2  A    between atoms: C_2  and  C_3
REMARK    3  A    between atoms: C_10  and  O_11
REMARK    4  A    between atoms: C_21  and  C_22
REMARK    5  A    between atoms: C_22  and  N_23
REMARK    6  A    between atoms: C_32  and  O_33
REMARK    7  A    between atoms: C_32  and  C_34
REMARK    8  A    between atoms: C_34  and  C_35
REMARK                            x       y       z     vdW  Elec       q    Type
REMARK                         _______ _______ _______ _____ _____    ______ ____
ROOT
ATOM      1  C   UNL     1       8.997  14.915  18.716  0.00  0.00    +0.000 A 
ATOM      2  C   UNL     1       8.305  14.794  19.920  0.00  0.00    +0.000 A 
ATOM      3  C   UNL     1       8.492  13.673  20.730  0.00  0.00    +0.000 A 
ATOM      4  N   UNL     1       9.336  12.661  20.457  0.00  0.00    +0.000 NA
ATOM      5  C   UNL     1      10.032  12.773  19.299  0.00  0.00    +0.000 A 
ATOM      6  C   UNL     1      10.950  11.771  18.958  0.00  0.00    +0.000 A 
ATOM      7  C   UNL     1      11.729  11.820  17.792  0.00  0.00    +0.000 A 
ATOM      8  C   UNL     1      11.597  12.898  16.937  0.00  0.00    +0.000 A 
ATOM      9  C   UNL     1      10.697  13.911  17.226  0.00  0.00    +0.000 A 
ATOM     10  C   UNL     1       9.907  13.871  18.401  0.00  0.00    +0.000 A 
ATOM     11  C   UNL     1       7.717  13.869  21.977  0.00  0.00    +0.000 A 
ATOM     12  C   UNL     1       7.462  13.106  23.057  0.00  0.00    +0.000 A 
ATOM     13  C   UNL     1       6.561  13.623  24.115  0.00  0.00    +0.000 A 
ATOM     14  C   UNL     1       6.063  14.865  24.007  0.00  0.00    +0.000 A 
ATOM     15  C   UNL     1       6.553  15.776  22.944  0.00  0.00    +0.000 A 
ATOM     16  O   UNL     1       6.322  16.980  22.979  0.00  0.00    +0.000 OA
ATOM     17  N   UNL     1       7.190  15.146  21.914  0.00  0.00    +0.000 N 
ATOM     18  C   UNL     1       7.376  15.767  20.601  0.00  0.00    +0.000 C 
ATOM     19  C   UNL     1       4.951  15.384  24.835  0.00  0.00    +0.000 C 
ATOM     20  O   UNL     1       4.813  14.747  26.109  0.00  0.00    +0.000 OA
ATOM     21  C   UNL     1       5.236  13.488  26.358  0.00  0.00    +0.000 C 
ATOM     22  O   UNL     1       4.850  12.899  27.366  0.00  0.00    +0.000 OA
ATOM     23  C   UNL     1       6.165  12.784  25.305  0.00  0.00    +0.000 C 
ENDROOT
BRANCH   1  25
ATOM     24  C   UNL     1       9.703  17.292  18.214  0.00  0.00    +0.000 C 
ATOM     25  C   UNL     1       8.814  16.120  17.826  0.00  0.00    +0.000 C 
ENDBRANCH   1  25
BRANCH   8  26
ATOM     26  O   UNL     1      12.322  13.016  15.786  0.00  0.00    +0.000 OA
ATOM     27  H   UNL     1      13.144  12.510  15.874  0.00  0.00    +0.000 HD
ENDBRANCH   8  26
BRANCH  23  28
ATOM     28  O   UNL     1       5.464  11.633  24.804  0.00  0.00    +0.000 OA
ATOM     29  H   UNL     1       5.092  11.864  23.929  0.00  0.00    +0.000 HD
ENDBRANCH  23  28
BRANCH  23  30
ATOM     30  C   UNL     1       7.428  12.297  26.065  0.00  0.00    +0.000 C 
ATOM     31  C   UNL     1       8.350  13.408  26.570  0.00  0.00    +0.000 C 
ENDBRANCH  23  30
BRANCH  18  32
ATOM     32  C   UNL     1       6.008  16.033  19.874  0.00  0.00    +0.000 C 
BRANCH  32  33
ATOM     33  N   UNL     1       5.240  14.870  19.361  0.00  0.00    +0.000 NA
ATOM     34  C   UNL     1       5.153  14.888  17.889  0.00  0.00    +0.000 C 
ATOM     35  C   UNL     1       3.805  15.498  17.558  0.00  0.00    +0.000 C 
ATOM     36  C   UNL     1       2.918  14.984  18.666  0.00  0.00    +0.000 C 
ATOM     37  C   UNL     1       3.852  14.839  19.855  0.00  0.00    +0.000 C 
ENDBRANCH  32  33
ENDBRANCH  18  32
TORSDOF 6
ENDMDL
MODEL 2
REMARK VINA RESULT:      -6.5      7.259     10.344
REMARK  Name = 
REMARK  8 active torsions:
REMARK  status: ('A' for Active; 'I' for Inactive)
REMARK    1  A    between atoms: C_1  and  C_2
REMARK    2  A    between atoms: C_2  and  C_3
REMARK    3  A    between atoms: C_10  and  O_11
REMARK    4  A    between atoms: C_21  and  C_22
REMARK    5  A    between atoms: C_22  and  N_23
REMARK    6  A    between atoms: C_32  and  O_33
REMARK    7  A    between atoms: C_32  and  C_34
REMARK    8  A    between atoms: C_34  and  C_35
REMARK                            x       y       z     vdW  Elec       q    Type
REMARK                         _______ _______ _______ _____ _____    ______ ____
ROOT
ATOM      1  C   UNL     1       0.648  14.225  19.211  0.00  0.00    +0.000 A 
ATOM      2  C   UNL     1      -0.575  14.034  19.852  0.00  0.00    +0.000 A 
ATOM      3  C   UNL     1      -1.024  14.956  20.799  0.00  0.00    +0.000 A 
ATOM      4  N   UNL     1      -0.368  16.078  21.149  0.00  0.00    +0.000 NA
ATOM      5  C   UNL     1       0.814  16.288  20.519  0.00  0.00    +0.000 A 
ATOM      6  C   UNL     1       1.544  17.448  20.813  0.00  0.00    +0.000 A 
ATOM      7  C   UNL     1       2.762  17.756  20.189  0.00  0.00    +0.000 A 
ATOM      8  C   UNL     1       3.274  16.889  19.242  0.00  0.00    +0.000 A 
ATOM      9  C   UNL     1       2.594  15.724  18.923  0.00  0.00    +0.000 A 
ATOM     10  C   UNL     1       1.363  15.406  19.546  0.00  0.00    +0.000 A 
ATOM     11  C   UNL     1      -2.383  14.554  21.227  0.00  0.00    +0.000 A 
ATOM     12  C   UNL     1      -3.252  15.006  22.151  0.00  0.00    +0.000 A 
ATOM     13  C   UNL     1      -4.535  14.292  22.353  0.00  0.00    +0.000 A 
ATOM     14  C   UNL     1      -4.835  13.241  21.572  0.00  0.00    +0.000 A 
ATOM     15  C   UNL     1      -3.984  12.916  20.402  0.00  0.00    +0.000 A 
ATOM     16  O   UNL     1      -4.369  12.144  19.528  0.00  0.00    +0.000 OA
ATOM     17  N   UNL     1      -2.739  13.475  20.439  0.00  0.00    +0.000 N 
ATOM     18  C   UNL     1      -1.622  12.971  19.637  0.00  0.00    +0.000 C 
ATOM     19  C   UNL     1      -5.932  12.289  21.854  0.00  0.00    +0.000 C 
ATOM     20  O   UNL     1      -7.000  12.829  22.637  0.00  0.00    +0.000 OA
ATOM     21  C   UNL     1      -6.842  13.862  23.493  0.00  0.00    +0.000 C 
ATOM     22  O   UNL     1      -7.708  14.103  24.333  0.00  0.00    +0.000 OA
ATOM     23  C   UNL     1      -5.511  14.694  23.432  0.00  0.00    +0.000 C 
ENDROOT
BRANCH   1  25
ATOM     24  C   UNL     1       2.198  12.285  18.728  0.00  0.00    +0.000 C 
ATOM     25  C   UNL     1       1.152  13.243  18.180  0.00  0.00    +0.000 C 
ENDBRANCH   1  25
BRANCH   8  26
ATOM     26  O   UNL     1       4.452  17.122  18.593  0.00  0.00    +0.000 OA
ATOM     27  H   UNL     1       5.142  17.320  19.245  0.00  0.00    +0.000 HD
ENDBRANCH   8  26
BRANCH  23  28
ATOM     28  O   UNL     1      -4.841  14.541  24.695  0.00  0.00    +0.000 OA
ATOM     29  H   UNL     1      -4.514  13.621  24.753  0.00  0.00    +0.000 HD
ENDBRANCH  23  28
BRANCH  23  30
ATOM     30  C   UNL     1      -5.911  16.184  23.267  0.00  0.00    +0.000 C 
ATOM     31  C   UNL     1      -5.479  17.104  24.410  0.00  0.00    +0.000 C 
ENDBRANCH  23  30
BRANCH  18  32
ATOM     32  C   UNL     1      -1.212  11.511  20.047  0.00  0.00    +0.000 C 
BRANCH  32  33
ATOM     33  N   UNL     1      -0.236  11.332  21.152  0.00  0.00    +0.000 NA
ATOM     34  C   UNL     1       0.469  10.041  21.046  0.00  0.00    +0.000 C 
ATOM     35  C   UNL     1      -0.255   9.092  21.981  0.00  0.00    +0.000 C 
ATOM     36  C   UNL     1      -0.661   9.988  23.127  0.00  0.00    +0.000 C 
ATOM     37  C   UNL     1      -0.869  11.347  22.482  0.00  0.00    +0.000 C 
ENDBRANCH  32  33
ENDBRANCH  18  32
TORSDOF 6
ENDMDL
MODEL 3
REMARK VINA RESULT:      -6.4      0.802      1.023
REMARK  Name = 
REMARK  8 active torsions:
REMARK  status: ('A' for Active; 'I' for Inactive)
REMARK    1  A    between atoms: C_1  and  C_2
REMARK    2  A    between atoms: C_2  and  C_3
REMARK    3  A    between atoms: C_10  and  O_11
REMARK    4  A    between atoms: C_21  and  C_22
REMARK    5  A    between atoms: C_22  and  N_23
REMARK    6  A    between atoms: C_32  and  O_33
REMARK    7  A    between atoms: C_32  and  C_34
REMARK    8  A    between atoms: C_34  and  C_35
REMARK                            x       y       z     vdW  Elec       q    Type
REMARK                         _______ _______ _______ _____ _____    ______ ____
ROOT
ATOM      1  C   UNL     1       8.750  14.571  18.816  0.00  0.00    +0.000 A 
ATOM      2  C   UNL     1       8.120  14.450  20.052  0.00  0.00    +0.000 A 
ATOM      3  C   UNL     1       8.523  13.464  20.955  0.00  0.00    +0.000 A 
ATOM      4  N   UNL     1       9.528  12.594  20.742  0.00  0.00    +0.000 NA
ATOM      5  C   UNL     1      10.165  12.712  19.551  0.00  0.00    +0.000 A 
ATOM      6  C   UNL     1      11.239  11.858  19.267  0.00  0.00    +0.000 A 
ATOM      7  C   UNL     1      11.968  11.928  18.070  0.00  0.00    +0.000 A 
ATOM      8  C   UNL     1      11.626  12.877  17.126  0.00  0.00    +0.000 A 
ATOM      9  C   UNL     1      10.566  13.740  17.356  0.00  0.00    +0.000 A 
ATOM     10  C   UNL     1       9.825  13.677  18.561  0.00  0.00    +0.000 A 
ATOM     11  C   UNL     1       7.756  13.643  22.208  0.00  0.00    +0.000 A 
ATOM     12  C   UNL     1       7.667  12.957  23.364  0.00  0.00    +0.000 A 
ATOM     13  C   UNL     1       6.714  13.409  24.405  0.00  0.00    +0.000 A 
ATOM     14  C   UNL     1       5.999  14.528  24.203  0.00  0.00    +0.000 A 
ATOM     15  C   UNL     1       6.293  15.401  23.042  0.00  0.00    +0.000 A 
ATOM     16  O   UNL     1       5.851  16.544  22.975  0.00  0.00    +0.000 OA
ATOM     17  N   UNL     1       7.007  14.795  22.049  0.00  0.00    +0.000 N 
ATOM     18  C   UNL     1       7.048  15.307  20.677  0.00  0.00    +0.000 C 
ATOM     19  C   UNL     1       4.833  14.922  25.025  0.00  0.00    +0.000 C 
ATOM     20  O   UNL     1       4.841  14.400  26.356  0.00  0.00    +0.000 OA
ATOM     21  C   UNL     1       5.487  13.265  26.703  0.00  0.00    +0.000 C 
ATOM     22  O   UNL     1       5.237  12.719  27.776  0.00  0.00    +0.000 OA
ATOM     23  C   UNL     1       6.501  12.635  25.683  0.00  0.00    +0.000 C 
ENDROOT
BRANCH   1  25
ATOM     24  C   UNL     1       8.963  16.989  18.103  0.00  0.00    +0.000 C 
ATOM     25  C   UNL     1       8.334  15.633  17.825  0.00  0.00    +0.000 C 
ENDBRANCH   1  25
BRANCH   8  26
ATOM     26  O   UNL     1      12.291  13.006  15.940  0.00  0.00    +0.000 OA
ATOM     27  H   UNL     1      11.676  13.325  15.263  0.00  0.00    +0.000 HD
ENDBRANCH   8  26
BRANCH  23  28
ATOM     28  O   UNL     1       6.006  11.335  25.320  0.00  0.00    +0.000 OA
ATOM     29  H   UNL     1       5.543  11.418  24.463  0.00  0.00    +0.000 HD
ENDBRANCH  23  28
BRANCH  23  30
ATOM     30  C   UNL     1       7.849  12.454  26.432  0.00  0.00    +0.000 C 
ATOM     31  C   UNL     1       8.513  13.752  26.897  0.00  0.00    +0.000 C 
ENDBRANCH  23  30
BRANCH  18  32
ATOM     32  C   UNL     1       5.638  15.256  19.986  0.00  0.00    +0.000 C 
BRANCH  32  33
ATOM     33  N   UNL     1       5.171  16.452  19.241  0.00  0.00    +0.000 NA
ATOM     34  C   UNL     1       4.282  17.291  20.068  0.00  0.00    +0.000 C 
ATOM     35  C   UNL     1       2.868  16.910  19.680  0.00  0.00    +0.000 C 
ATOM     36  C   UNL     1       2.986  16.629  18.200  0.00  0.00    +0.000 C 
ATOM     37  C   UNL     1       4.403  16.109  18.032  0.00  0.00    +0.000 C 
ENDBRANCH  32  33
ENDBRANCH  18  32
TORSDOF 6
ENDMDL
MODEL 4
REMARK VINA RESULT:      -6.2      1.091      1.277
REMARK  Name = 
REMARK  8 active torsions:
REMARK  status: ('A' for Active; 'I' for Inactive)
REMARK    1  A    between atoms: C_1  and  C_2
REMARK    2  A    between atoms: C_2  and  C_3
REMARK    3  A    between atoms: C_10  and  O_11
REMARK    4  A    between atoms: C_21  and  C_22
REMARK    5  A    between atoms: C_22  and  N_23
REMARK    6  A    between atoms: C_32  and  O_33
REMARK    7  A    between atoms: C_32  and  C_34
REMARK    8  A    between atoms: C_34  and  C_35
REMARK                            x       y       z     vdW  Elec       q    Type
REMARK                         _______ _______ _______ _____ _____    ______ ____
ROOT
ATOM      1  C   UNL     1       8.928  14.569  19.810  0.00  0.00    +0.000 A 
ATOM      2  C   UNL     1       8.196  14.430  20.988  0.00  0.00    +0.000 A 
ATOM      3  C   UNL     1       8.292  13.259  21.742  0.00  0.00    +0.000 A 
ATOM      4  N   UNL     1       9.081  12.212  21.436  0.00  0.00    +0.000 NA
ATOM      5  C   UNL     1       9.815  12.341  20.303  0.00  0.00    +0.000 A 
ATOM      6  C   UNL     1      10.680  11.302  19.932  0.00  0.00    +0.000 A 
ATOM      7  C   UNL     1      11.493  11.364  18.790  0.00  0.00    +0.000 A 
ATOM      8  C   UNL     1      11.451  12.490  17.992  0.00  0.00    +0.000 A 
ATOM      9  C   UNL     1      10.606  13.541  18.312  0.00  0.00    +0.000 A 
ATOM     10  C   UNL     1       9.783  13.489  19.462  0.00  0.00    +0.000 A 
ATOM     11  C   UNL     1       7.496  13.438  22.977  0.00  0.00    +0.000 A 
ATOM     12  C   UNL     1       7.165  12.637  24.008  0.00  0.00    +0.000 A 
ATOM     13  C   UNL     1       6.267  13.153  25.069  0.00  0.00    +0.000 A 
ATOM     14  C   UNL     1       5.848  14.428  25.015  0.00  0.00    +0.000 A 
ATOM     15  C   UNL     1       6.422  15.360  24.015  0.00  0.00    +0.000 A 
ATOM     16  O   UNL     1       6.263  16.573  24.109  0.00  0.00    +0.000 OA
ATOM     17  N   UNL     1       7.049  14.746  22.969  0.00  0.00    +0.000 N 
ATOM     18  C   UNL     1       7.309  15.422  21.696  0.00  0.00    +0.000 C 
ATOM     19  C   UNL     1       4.747  14.971  25.842  0.00  0.00    +0.000 C 
ATOM     20  O   UNL     1       4.534  14.279  27.076  0.00  0.00    +0.000 OA
ATOM     21  C   UNL     1       4.872  12.985  27.267  0.00  0.00    +0.000 C 
ATOM     22  O   UNL     1       4.424  12.369  28.232  0.00  0.00    +0.000 OA
ATOM     23  C   UNL     1       5.786  12.280  26.202  0.00  0.00    +0.000 C 
ENDROOT
BRANCH   1  25
ATOM     24  C   UNL     1       7.925  15.692  17.777  0.00  0.00    +0.000 C 
ATOM     25  C   UNL     1       8.844  15.829  18.981  0.00  0.00    +0.000 C 
ENDBRANCH   1  25
BRANCH   8  26
ATOM     26  O   UNL     1      12.214  12.622  16.867  0.00  0.00    +0.000 OA
ATOM     27  H   UNL     1      12.715  11.805  16.724  0.00  0.00    +0.000 HD
ENDBRANCH   8  26
BRANCH  23  28
ATOM     28  O   UNL     1       5.032  11.202  25.623  0.00  0.00    +0.000 OA
ATOM     29  H   UNL     1       5.660  10.607  25.166  0.00  0.00    +0.000 HD
ENDBRANCH  23  28
BRANCH  23  30
ATOM     30  C   UNL     1       6.996  11.677  26.966  0.00  0.00    +0.000 C 
ATOM     31  C   UNL     1       7.806  12.677  27.793  0.00  0.00    +0.000 C 
ENDBRANCH  23  30
BRANCH  18  32
ATOM     32  C   UNL     1       5.981  15.809  20.951  0.00  0.00    +0.000 C 
BRANCH  32  33
ATOM     33  N   UNL     1       5.061  14.722  20.530  0.00  0.00    +0.000 NA
ATOM     34  C   UNL     1       4.538  14.953  19.170  0.00  0.00    +0.000 C 
ATOM     35  C   UNL     1       3.172  15.584  19.349  0.00  0.00    +0.000 C 
ATOM     36  C   UNL     1       2.642  14.900  20.587  0.00  0.00    +0.000 C 
ATOM     37  C   UNL     1       3.884  14.598  21.407  0.00  0.00    +0.000 C 
ENDBRANCH  32  33
ENDBRANCH  18  32
TORSDOF 6
ENDMDL
MODEL 5
REMARK VINA RESULT:      -6.2      2.434      7.944
REMARK  Name = 
REMARK  8 active torsions:
REMARK  status: ('A' for Active; 'I' for Inactive)
REMARK    1  A    between atoms: C_1  and  C_2
REMARK    2  A    between atoms: C_2  and  C_3
REMARK    3  A    between atoms: C_10  and  O_11
REMARK    4  A    between atoms: C_21  and  C_22
REMARK    5  A    between atoms: C_22  and  N_23
REMARK    6  A    between atoms: C_32  and  O_33
REMARK    7  A    between atoms: C_32  and  C_34
REMARK    8  A    between atoms: C_34  and  C_35
REMARK                            x       y       z     vdW  Elec       q    Type
REMARK                         _______ _______ _______ _____ _____    ______ ____
ROOT
ATOM      1  C   UNL     1       5.995  14.554  24.834  0.00  0.00    +0.000 A 
ATOM      2  C   UNL     1       6.819  14.352  23.728  0.00  0.00    +0.000 A 
ATOM      3  C   UNL     1       7.427  13.113  23.521  0.00  0.00    +0.000 A 
ATOM      4  N   UNL     1       7.266  12.037  24.313  0.00  0.00    +0.000 NA
ATOM      5  C   UNL     1       6.452  12.212  25.383  0.00  0.00    +0.000 A 
ATOM      6  C   UNL     1       6.216  11.129  26.241  0.00  0.00    +0.000 A 
ATOM      7  C   UNL     1       5.368  11.216  27.356  0.00  0.00    +0.000 A 
ATOM      8  C   UNL     1       4.732  12.412  27.629  0.00  0.00    +0.000 A 
ATOM      9  C   UNL     1       4.940  13.514  26.814  0.00  0.00    +0.000 A 
ATOM     10  C   UNL     1       5.792  13.436  25.687  0.00  0.00    +0.000 A 
ATOM     11  C   UNL     1       8.146  13.161  22.227  0.00  0.00    +0.000 A 
ATOM     12  C   UNL     1       8.956  12.311  21.567  0.00  0.00    +0.000 A 
ATOM     13  C   UNL     1       9.567  12.738  20.286  0.00  0.00    +0.000 A 
ATOM     14  C   UNL     1       9.256  13.940  19.775  0.00  0.00    +0.000 A 
ATOM     15  C   UNL     1       8.176  14.752  20.385  0.00  0.00    +0.000 A 
ATOM     16  O   UNL     1       7.692  15.715  19.797  0.00  0.00    +0.000 OA
ATOM     17  N   UNL     1       7.847  14.386  21.658  0.00  0.00    +0.000 N 
ATOM     18  C   UNL     1       7.135  15.275  22.579  0.00  0.00    +0.000 C 
ATOM     19  C   UNL     1      10.000  14.586  18.671  0.00  0.00    +0.000 C 
ATOM     20  O   UNL     1      10.675  13.675  17.798  0.00  0.00    +0.000 OA
ATOM     21  C   UNL     1      11.080  12.444  18.181  0.00  0.00    +0.000 C 
ATOM     22  O   UNL     1      11.886  11.821  17.493  0.00  0.00    +0.000 OA
ATOM     23  C   UNL     1      10.552  11.868  19.543  0.00  0.00    +0.000 C 
ENDROOT
BRANCH   1  25
ATOM     24  C   UNL     1       6.074  16.763  26.065  0.00  0.00    +0.000 C 
ATOM     25  C   UNL     1       5.323  15.884  25.076  0.00  0.00    +0.000 C 
ENDBRANCH   1  25
BRANCH   8  26
ATOM     26  O   UNL     1       3.892  12.571  28.694  0.00  0.00    +0.000 OA
ATOM     27  H   UNL     1       3.496  13.455  28.659  0.00  0.00    +0.000 HD
ENDBRANCH   8  26
BRANCH  23  28
ATOM     28  O   UNL     1      11.686  11.673  20.404  0.00  0.00    +0.000 OA
ATOM     29  H   UNL     1      11.724  10.724  20.642  0.00  0.00    +0.000 HD
ENDBRANCH  23  28
BRANCH  23  30
ATOM     30  C   UNL     1       9.923  10.482  19.239  0.00  0.00    +0.000 C 
ATOM     31  C   UNL     1       8.779  10.496  18.224  0.00  0.00    +0.000 C 
ENDBRANCH  23  30
BRANCH  18  32
ATOM     32  C   UNL     1       7.979  16.552  22.937  0.00  0.00    +0.000 C 
BRANCH  32  33
ATOM     33  N   UNL     1       9.068  16.424  23.937  0.00  0.00    +0.000 NA
ATOM     34  C   UNL     1       9.345  17.711  24.602  0.00  0.00    +0.000 C 
ATOM     35  C   UNL     1      10.534  18.309  23.878  0.00  0.00    +0.000 C 
ATOM     36  C   UNL     1      11.364  17.096  23.529  0.00  0.00    +0.000 C 
ATOM     37  C   UNL     1      10.343  15.987  23.342  0.00  0.00    +0.000 C 
ENDBRANCH  32  33
ENDBRANCH  18  32
TORSDOF 6
ENDMDL
MODEL 6
REMARK VINA RESULT:      -6.0      8.430     11.293
REMARK  Name = 
REMARK  8 active torsions:
REMARK  status: ('A' for Active; 'I' for Inactive)
REMARK    1  A    between atoms: C_1  and  C_2
REMARK    2  A    between atoms: C_2  and  C_3
REMARK    3  A    between atoms: C_10  and  O_11
REMARK    4  A    between atoms: C_21  and  C_22
REMARK    5  A    between atoms: C_22  and  N_23
REMARK    6  A    between atoms: C_32  and  O_33
REMARK    7  A    between atoms: C_32  and  C_34
REMARK    8  A    between atoms: C_34  and  C_35
REMARK                            x       y       z     vdW  Elec       q    Type
REMARK                         _______ _______ _______ _____ _____    ______ ____
ROOT
ATOM      1  C   UNL     1      -2.250  11.293  18.678  0.00  0.00    +0.000 A 
ATOM      2  C   UNL     1      -2.819  12.178  19.592  0.00  0.00    +0.000 A 
ATOM      3  C   UNL     1      -2.091  12.607  20.703  0.00  0.00    +0.000 A 
ATOM      4  N   UNL     1      -0.823  12.248  20.975  0.00  0.00    +0.000 NA
ATOM      5  C   UNL     1      -0.248  11.403  20.084  0.00  0.00    +0.000 A 
ATOM      6  C   UNL     1       1.080  11.004  20.286  0.00  0.00    +0.000 A 
ATOM      7  C   UNL     1       1.759  10.153  19.400  0.00  0.00    +0.000 A 
ATOM      8  C   UNL     1       1.103   9.684  18.279  0.00  0.00    +0.000 A 
ATOM      9  C   UNL     1      -0.213  10.043  18.039  0.00  0.00    +0.000 A 
ATOM     10  C   UNL     1      -0.906  10.902  18.925  0.00  0.00    +0.000 A 
ATOM     11  C   UNL     1      -2.903  13.612  21.427  0.00  0.00    +0.000 A 
ATOM     12  C   UNL     1      -2.752  14.289  22.581  0.00  0.00    +0.000 A 
ATOM     13  C   UNL     1      -3.835  15.192  23.040  0.00  0.00    +0.000 A 
ATOM     14  C   UNL     1      -4.921  15.364  22.269  0.00  0.00    +0.000 A 
ATOM     15  C   UNL     1      -4.955  14.809  20.895  0.00  0.00    +0.000 A 
ATOM     16  O   UNL     1      -5.802  15.167  20.082  0.00  0.00    +0.000 OA
ATOM     17  N   UNL     1      -4.034  13.828  20.661  0.00  0.00    +0.000 N 
ATOM     18  C   UNL     1      -4.155  12.875  19.556  0.00  0.00    +0.000 C 
ATOM     19  C   UNL     1      -6.171  16.004  22.735  0.00  0.00    +0.000 C 
ATOM     20  O   UNL     1      -5.999  16.928  23.813  0.00  0.00    +0.000 OA
ATOM     21  C   UNL     1      -4.975  16.860  24.691  0.00  0.00    +0.000 C 
ATOM     22  O   UNL     1      -5.024  17.494  25.743  0.00  0.00    +0.000 OA
ATOM     23  C   UNL     1      -3.767  15.910  24.366  0.00  0.00    +0.000 C 
ENDROOT
BRANCH   1  25
ATOM     24  C   UNL     1      -3.663   9.457  17.663  0.00  0.00    +0.000 C 
ATOM     25  C   UNL     1      -3.016  10.819  17.466  0.00  0.00    +0.000 C 
ENDBRANCH   1  25
BRANCH   8  26
ATOM     26  O   UNL     1       1.700   8.854  17.372  0.00  0.00    +0.000 OA
ATOM     27  H   UNL     1       1.802   9.322  16.530  0.00  0.00    +0.000 HD
ENDBRANCH   8  26
BRANCH  23  28
ATOM     28  O   UNL     1      -3.711  14.907  25.395  0.00  0.00    +0.000 OA
ATOM     29  H   UNL     1      -2.832  14.963  25.821  0.00  0.00    +0.000 HD
ENDBRANCH  23  28
BRANCH  23  30
ATOM     30  C   UNL     1      -2.476  16.768  24.447  0.00  0.00    +0.000 C 
ATOM     31  C   UNL     1      -1.569  16.466  25.641  0.00  0.00    +0.000 C 
ENDBRANCH  23  30
BRANCH  18  32
ATOM     32  C   UNL     1      -5.416  11.950  19.711  0.00  0.00    +0.000 C 
BRANCH  32  33
ATOM     33  N   UNL     1      -6.342  11.815  18.557  0.00  0.00    +0.000 NA
ATOM     34  C   UNL     1      -5.833  12.529  17.370  0.00  0.00    +0.000 C 
ATOM     35  C   UNL     1      -6.542  13.869  17.353  0.00  0.00    +0.000 C 
ATOM     36  C   UNL     1      -7.917  13.533  17.880  0.00  0.00    +0.000 C 
ATOM     37  C   UNL     1      -7.679  12.371  18.829  0.00  0.00    +0.000 C 
ENDBRANCH  32  33
ENDBRANCH  18  32
TORSDOF 6
ENDMDL
MODEL 7
REMARK VINA RESULT:      -5.9      6.772      9.543
REMARK  Name = 
REMARK  8 active torsions:
REMARK  status: ('A' for Active; 'I' for Inactive)
REMARK    1  A    between atoms: C_1  and  C_2
REMARK    2  A    between atoms: C_2  and  C_3
REMARK    3  A    between atoms: C_10  and  O_11
REMARK    4  A    between atoms: C_21  and  C_22
REMARK    5  A    between atoms: C_22  and  N_23
REMARK    6  A    between atoms: C_32  and  O_33
REMARK    7  A    between atoms: C_32  and  C_34
REMARK    8  A    between atoms: C_34  and  C_35
REMARK                            x       y       z     vdW  Elec       q    Type
REMARK                         _______ _______ _______ _____ _____    ______ ____
ROOT
ATOM      1  C   UNL     1       1.993  13.891  20.479  0.00  0.00    +0.000 A 
ATOM      2  C   UNL     1       0.656  13.805  20.864  0.00  0.00    +0.000 A 
ATOM      3  C   UNL     1       0.169  14.607  21.897  0.00  0.00    +0.000 A 
ATOM      4  N   UNL     1       0.897  15.516  22.571  0.00  0.00    +0.000 NA
ATOM      5  C   UNL     1       2.195  15.626  22.195  0.00  0.00    +0.000 A 
ATOM      6  C   UNL     1       3.010  16.569  22.834  0.00  0.00    +0.000 A 
ATOM      7  C   UNL     1       4.357  16.766  22.489  0.00  0.00    +0.000 A 
ATOM      8  C   UNL     1       4.912  16.006  21.478  0.00  0.00    +0.000 A 
ATOM      9  C   UNL     1       4.149  15.054  20.821  0.00  0.00    +0.000 A 
ATOM     10  C   UNL     1       2.789  14.850  21.160  0.00  0.00    +0.000 A 
ATOM     11  C   UNL     1      -1.290  14.378  22.011  0.00  0.00    +0.000 A 
ATOM     12  C   UNL     1      -2.246  14.803  22.858  0.00  0.00    +0.000 A 
ATOM     13  C   UNL     1      -3.631  14.299  22.702  0.00  0.00    +0.000 A 
ATOM     14  C   UNL     1      -3.921  13.474  21.683  0.00  0.00    +0.000 A 
ATOM     15  C   UNL     1      -2.918  13.219  20.621  0.00  0.00    +0.000 A 
ATOM     16  O   UNL     1      -3.234  12.695  19.558  0.00  0.00    +0.000 OA
ATOM     17  N   UNL     1      -1.637  13.536  20.970  0.00  0.00    +0.000 N 
ATOM     18  C   UNL     1      -0.469  12.997  20.270  0.00  0.00    +0.000 C 
ATOM     19  C   UNL     1      -5.175  12.693  21.584  0.00  0.00    +0.000 C 
ATOM     20  O   UNL     1      -6.285  13.262  22.282  0.00  0.00    +0.000 OA
ATOM     21  C   UNL     1      -6.150  14.082  23.347  0.00  0.00    +0.000 C 
ATOM     22  O   UNL     1      -7.117  14.316  24.069  0.00  0.00    +0.000 OA
ATOM     23  C   UNL     1      -4.728  14.666  23.672  0.00  0.00    +0.000 C 
ENDROOT
BRANCH   1  25
ATOM     24  C   UNL     1       2.338  13.650  17.984  0.00  0.00    +0.000 C 
ATOM     25  C   UNL     1       2.542  13.036  19.361  0.00  0.00    +0.000 C 
ENDBRANCH   1  25
BRANCH   8  26
ATOM     26  O   UNL     1       6.213  16.143  21.087  0.00  0.00    +0.000 OA
ATOM     27  H   UNL     1       6.623  15.267  21.032  0.00  0.00    +0.000 HD
ENDBRANCH   8  26
BRANCH  23  28
ATOM     28  O   UNL     1      -4.339  14.175  24.966  0.00  0.00    +0.000 OA
ATOM     29  H   UNL     1      -5.144  13.856  25.421  0.00  0.00    +0.000 HD
ENDBRANCH  23  28
BRANCH  23  30
ATOM     30  C   UNL     1      -4.877  16.209  23.756  0.00  0.00    +0.000 C 
ATOM     31  C   UNL     1      -4.398  16.836  25.066  0.00  0.00    +0.000 C 
ENDBRANCH  23  30
BRANCH  18  32
ATOM     32  C   UNL     1      -0.354  11.438  20.429  0.00  0.00    +0.000 C 
BRANCH  32  33
ATOM     33  N   UNL     1       0.354  10.897  21.618  0.00  0.00    +0.000 NA
ATOM     34  C   UNL     1       0.955   9.580  21.336  0.00  0.00    +0.000 C 
ATOM     35  C   UNL     1      -0.024   8.552  21.867  0.00  0.00    +0.000 C 
ATOM     36  C   UNL     1      -0.582   9.221  23.101  0.00  0.00    +0.000 C 
ATOM     37  C   UNL     1      -0.538  10.703  22.774  0.00  0.00    +0.000 C 
ENDBRANCH  32  33
ENDBRANCH  18  32
TORSDOF 6
ENDMDL
MODEL 8
REMARK VINA RESULT:      -5.9      1.272      1.599
REMARK  Name = 
REMARK  8 active torsions:
REMARK  status: ('A' for Active; 'I' for Inactive)
REMARK    1  A    between atoms: C_1  and  C_2
REMARK    2  A    between atoms: C_2  and  C_3
REMARK    3  A    between atoms: C_10  and  O_11
REMARK    4  A    between atoms: C_21  and  C_22
REMARK    5  A    between atoms: C_22  and  N_23
REMARK    6  A    between atoms: C_32  and  O_33
REMARK    7  A    between atoms: C_32  and  C_34
REMARK    8  A    between atoms: C_34  and  C_35
REMARK                            x       y       z     vdW  Elec       q    Type
REMARK                         _______ _______ _______ _____ _____    ______ ____
ROOT
ATOM      1  C   UNL     1       8.776  14.335  19.376  0.00  0.00    +0.000 A 
ATOM      2  C   UNL     1       8.199  14.436  20.640  0.00  0.00    +0.000 A 
ATOM      3  C   UNL     1       8.712  13.699  21.709  0.00  0.00    +0.000 A 
ATOM      4  N   UNL     1       9.777  12.879  21.634  0.00  0.00    +0.000 NA
ATOM      5  C   UNL     1      10.361  12.784  20.414  0.00  0.00    +0.000 A 
ATOM      6  C   UNL     1      11.491  11.969  20.264  0.00  0.00    +0.000 A 
ATOM      7  C   UNL     1      12.172  11.834  19.044  0.00  0.00    +0.000 A 
ATOM      8  C   UNL     1      11.721  12.530  17.939  0.00  0.00    +0.000 A 
ATOM      9  C   UNL     1      10.604  13.344  18.035  0.00  0.00    +0.000 A 
ATOM     10  C   UNL     1       9.911  13.487  19.262  0.00  0.00    +0.000 A 
ATOM     11  C   UNL     1       7.976  14.086  22.933  0.00  0.00    +0.000 A 
ATOM     12  C   UNL     1       7.982  13.660  24.211  0.00  0.00    +0.000 A 
ATOM     13  C   UNL     1       7.031  14.254  25.180  0.00  0.00    +0.000 A 
ATOM     14  C   UNL     1       6.221  15.249  24.783  0.00  0.00    +0.000 A 
ATOM     15  C   UNL     1       6.403  15.872  23.449  0.00  0.00    +0.000 A 
ATOM     16  O   UNL     1       5.868  16.939  23.165  0.00  0.00    +0.000 OA
ATOM     17  N   UNL     1       7.131  15.120  22.573  0.00  0.00    +0.000 N 
ATOM     18  C   UNL     1       7.084  15.327  21.123  0.00  0.00    +0.000 C 
ATOM     19  C   UNL     1       5.055  15.725  25.560  0.00  0.00    +0.000 C 
ATOM     20  O   UNL     1       5.150  15.502  26.969  0.00  0.00    +0.000 OA
ATOM     21  C   UNL     1       5.898  14.517  27.515  0.00  0.00    +0.000 C 
ATOM     22  O   UNL     1       5.730  14.198  28.690  0.00  0.00    +0.000 OA
ATOM     23  C   UNL     1       6.926  13.758  26.601  0.00  0.00    +0.000 C 
ENDROOT
BRANCH   1  25
ATOM     24  C   UNL     1       7.163  14.388  17.427  0.00  0.00    +0.000 C 
ATOM     25  C   UNL     1       8.241  15.126  18.206  0.00  0.00    +0.000 C 
ENDBRANCH   1  25
BRANCH   8  26
ATOM     26  O   UNL     1      12.333  12.450  16.721  0.00  0.00    +0.000 OA
ATOM     27  H   UNL     1      13.087  13.059  16.702  0.00  0.00    +0.000 HD
ENDBRANCH   8  26
BRANCH  23  28
ATOM     28  O   UNL     1       6.526  12.379  26.546  0.00  0.00    +0.000 OA
ATOM     29  H   UNL     1       7.087  11.929  25.882  0.00  0.00    +0.000 HD
ENDBRANCH  23  28
BRANCH  23  30
ATOM     30  C   UNL     1       8.308  13.841  27.303  0.00  0.00    +0.000 C 
ATOM     31  C   UNL     1       8.872  15.253  27.463  0.00  0.00    +0.000 C 
ENDBRANCH  23  30
BRANCH  18  32
ATOM     32  C   UNL     1       5.660  15.028  20.530  0.00  0.00    +0.000 C 
BRANCH  32  33
ATOM     33  N   UNL     1       4.756  16.171  20.245  0.00  0.00    +0.000 NA
ATOM     34  C   UNL     1       3.338  15.771  20.324  0.00  0.00    +0.000 C 
ATOM     35  C   UNL     1       2.900  15.502  18.899  0.00  0.00    +0.000 C 
ATOM     36  C   UNL     1       3.668  16.533  18.107  0.00  0.00    +0.000 C 
ATOM     37  C   UNL     1       4.950  16.730  18.896  0.00  0.00    +0.000 C 
ENDBRANCH  32  33
ENDBRANCH  18  32
TORSDOF 6
ENDMDL
MODEL 9
REMARK VINA RESULT:      -5.9      7.573     10.961
REMARK  Name = 
REMARK  8 active torsions:
REMARK  status: ('A' for Active; 'I' for Inactive)
REMARK    1  A    between atoms: C_1  and  C_2
REMARK    2  A    between atoms: C_2  and  C_3
REMARK    3  A    between atoms: C_10  and  O_11
REMARK    4  A    between atoms: C_21  and  C_22
REMARK    5  A    between atoms: C_22  and  N_23
REMARK    6  A    between atoms: C_32  and  O_33
REMARK    7  A    between atoms: C_32  and  C_34
REMARK    8  A    between atoms: C_34  and  C_35
REMARK                            x       y       z     vdW  Elec       q    Type
REMARK                         _______ _______ _______ _____ _____    ______ ____
ROOT
ATOM      1  C   UNL     1      -1.381  10.746  18.600  0.00  0.00    +0.000 A 
ATOM      2  C   UNL     1      -1.745  11.596  19.643  0.00  0.00    +0.000 A 
ATOM      3  C   UNL     1      -2.906  12.365  19.550  0.00  0.00    +0.000 A 
ATOM      4  N   UNL     1      -3.760  12.344  18.510  0.00  0.00    +0.000 NA
ATOM      5  C   UNL     1      -3.429  11.507  17.495  0.00  0.00    +0.000 A 
ATOM      6  C   UNL     1      -4.282  11.412  16.387  0.00  0.00    +0.000 A 
ATOM      7  C   UNL     1      -4.029  10.552  15.307  0.00  0.00    +0.000 A 
ATOM      8  C   UNL     1      -2.897   9.761  15.325  0.00  0.00    +0.000 A 
ATOM      9  C   UNL     1      -2.018   9.825  16.394  0.00  0.00    +0.000 A 
ATOM     10  C   UNL     1      -2.265  10.688  17.490  0.00  0.00    +0.000 A 
ATOM     11  C   UNL     1      -3.091  13.079  20.834  0.00  0.00    +0.000 A 
ATOM     12  C   UNL     1      -3.967  13.999  21.282  0.00  0.00    +0.000 A 
ATOM     13  C   UNL     1      -3.800  14.556  22.646  0.00  0.00    +0.000 A 
ATOM     14  C   UNL     1      -2.816  14.091  23.432  0.00  0.00    +0.000 A 
ATOM     15  C   UNL     1      -2.025  12.909  23.015  0.00  0.00    +0.000 A 
ATOM     16  O   UNL     1      -1.312  12.305  23.812  0.00  0.00    +0.000 OA
ATOM     17  N   UNL     1      -2.099  12.623  21.683  0.00  0.00    +0.000 N 
ATOM     18  C   UNL     1      -1.108  11.794  20.994  0.00  0.00    +0.000 C 
ATOM     19  C   UNL     1      -2.378  14.750  24.683  0.00  0.00    +0.000 C 
ATOM     20  O   UNL     1      -3.382  15.546  25.318  0.00  0.00    +0.000 OA
ATOM     21  C   UNL     1      -4.414  16.108  24.651  0.00  0.00    +0.000 C 
ATOM     22  O   UNL     1      -5.079  16.995  25.183  0.00  0.00    +0.000 OA
ATOM     23  C   UNL     1      -4.692  15.653  23.174  0.00  0.00    +0.000 C 
ENDROOT
BRANCH   1  25
ATOM     24  C   UNL     1       1.109  10.617  18.171  0.00  0.00    +0.000 C 
ATOM     25  C   UNL     1      -0.132   9.900  18.680  0.00  0.00    +0.000 C 
ENDBRANCH   1  25
BRANCH   8  26
ATOM     26  O   UNL     1      -2.586   8.900  14.311  0.00  0.00    +0.000 OA
ATOM     27  H   UNL     1      -3.120   8.097  14.400  0.00  0.00    +0.000 HD
ENDBRANCH   8  26
BRANCH  23  28
ATOM     28  O   UNL     1      -4.515  16.798  22.323  0.00  0.00    +0.000 OA
ATOM     29  H   UNL     1      -3.999  16.515  21.541  0.00  0.00    +0.000 HD
ENDBRANCH  23  28
BRANCH  23  30
ATOM     30  C   UNL     1      -6.180  15.216  23.104  0.00  0.00    +0.000 C 
ATOM     31  C   UNL     1      -6.527  13.961  23.905  0.00  0.00    +0.000 C 
ENDBRANCH  23  30
BRANCH  18  32
ATOM     32  C   UNL     1       0.317  12.457  20.990  0.00  0.00    +0.000 C 
BRANCH  32  33
ATOM     33  N   UNL     1       0.420  13.913  20.715  0.00  0.00    +0.000 NA
ATOM     34  C   UNL     1       0.482  14.186  19.267  0.00  0.00    +0.000 C 
ATOM     35  C   UNL     1       1.951  14.360  18.937  0.00  0.00    +0.000 C 
ATOM     36  C   UNL     1       2.497  15.042  20.169  0.00  0.00    +0.000 C 
ATOM     37  C   UNL     1       1.627  14.521  21.300  0.00  0.00    +0.000 C 
ENDBRANCH  32  33
ENDBRANCH  18  32
TORSDOF 6
ENDMDL
