MODEL 1
REMARK VINA RESULT:      -7.5      0.000      0.000
REMARK  Name = 
REMARK  9 active torsions:
REMARK  status: ('A' for Active; 'I' for Inactive)
REMARK    1  A    between atoms: C_1  and  O_2
REMARK    2  A    between atoms: O_2  and  C_3
REMARK    3  A    between atoms: C_8  and  C_9
REMARK    4  A    between atoms: C_10  and  C_11
REMARK    5  A    between atoms: C_11  and  C_13
REMARK    6  A    between atoms: C_13  and  C_14
REMARK    7  A    between atoms: C_13  and  C_15
REMARK    8  A    between atoms: N_20  and  C_21
REMARK    9  A    between atoms: C_24  and  C_25
REMARK                            x       y       z     vdW  Elec       q    Type
REMARK                         _______ _______ _______ _____ _____    ______ ____
ROOT
ATOM      1  C   UNL     1       4.073   5.019  17.250  0.00  0.00    +0.000 C 
ATOM      2  C   UNL     1       5.531   4.538  17.047  0.00  0.00    +0.000 C 
ATOM      3  C   UNL     1       6.271   5.836  17.007  0.00  0.00    +0.000 C 
ATOM      4  O   UNL     1       7.458   5.969  16.769  0.00  0.00    +0.000 OA
ATOM      5  C   UNL     1       5.361   6.970  17.450  0.00  0.00    +0.000 C 
ATOM      6  O   UNL     1       5.719   8.128  17.519  0.00  0.00    +0.000 OA
ATOM      7  N   UNL     1       4.171   6.370  17.816  0.00  0.00    +0.000 N 
ENDROOT
BRANCH   1  13
ATOM      8  C   UNL     1       3.335   3.168  18.952  0.00  0.00    +0.000 A 
ATOM      9  C   UNL     1       2.287   2.422  19.520  0.00  0.00    +0.000 A 
ATOM     10  C   UNL     1       0.980   2.543  19.054  0.00  0.00    +0.000 A 
ATOM     11  C   UNL     1       0.700   3.414  18.013  0.00  0.00    +0.000 A 
ATOM     12  C   UNL     1       1.728   4.169  17.450  0.00  0.00    +0.000 A 
ATOM     13  C   UNL     1       3.065   4.075  17.908  0.00  0.00    +0.000 A 
BRANCH   8  15
ATOM     14  C   UNL     1       4.846   2.115  20.449  0.00  0.00    +0.000 C 
ATOM     15  O   UNL     1       4.613   3.101  19.440  0.00  0.00    +0.000 OA
ENDBRANCH   8  15
ENDBRANCH   1  13
BRANCH   7  16
ATOM     16  C   UNL     1       3.109   7.099  18.404  0.00  0.00    +0.000 A 
ATOM     17  C   UNL     1       2.555   8.240  17.813  0.00  0.00    +0.000 A 
ATOM     18  C   UNL     1       1.637   9.037  18.518  0.00  0.00    +0.000 A 
ATOM     19  C   UNL     1       1.302   8.739  19.845  0.00  0.00    +0.000 A 
ATOM     20  C   UNL     1       1.843   7.584  20.419  0.00  0.00    +0.000 A 
ATOM     21  C   UNL     1       2.731   6.775  19.712  0.00  0.00    +0.000 A 
BRANCH  19  22
ATOM     22  C   UNL     1       0.443   9.622  20.636  0.00  0.00    +0.000 A 
ATOM     23  C   UNL     1      -0.282  10.778  20.201  0.00  0.00    +0.000 A 
ATOM     24  C   UNL     1      -1.000  11.376  21.218  0.00  0.00    +0.000 A 
ATOM     25  S   UNL     1      -0.792  10.570  22.707  0.00  0.00    +0.000 S 
ATOM     26  C   UNL     1       0.260   9.422  21.997  0.00  0.00    +0.000 A 
ENDBRANCH  19  22
ENDBRANCH   7  16
BRANCH   2  27
ATOM     27  C   UNL     1       5.756   3.757  15.769  0.00  0.00    +0.000 C 
ATOM     28  O   UNL     1       5.867   2.529  15.799  0.00  0.00    +0.000 OA
BRANCH  27  29
ATOM     29  C   UNL     1       5.729   4.529  14.440  0.00  0.00    +0.000 C 
ATOM     30  C   UNL     1       7.144   4.756  13.916  0.00  0.00    +0.000 C 
ATOM     31  C   UNL     1       4.902   3.794  13.381  0.00  0.00    +0.000 C 
ENDBRANCH  27  29
ENDBRANCH   2  27
TORSDOF 6
ENDMDL
MODEL 2
REMARK VINA RESULT:      -7.1      4.998      9.975
REMARK  Name = 
REMARK  9 active torsions:
REMARK  status: ('A' for Active; 'I' for Inactive)
REMARK    1  A    between atoms: C_1  and  O_2
REMARK    2  A    between atoms: O_2  and  C_3
REMARK    3  A    between atoms: C_8  and  C_9
REMARK    4  A    between atoms: C_10  and  C_11
REMARK    5  A    between atoms: C_11  and  C_13
REMARK    6  A    between atoms: C_13  and  C_14
REMARK    7  A    between atoms: C_13  and  C_15
REMARK    8  A    between atoms: N_20  and  C_21
REMARK    9  A    between atoms: C_24  and  C_25
REMARK                            x       y       z     vdW  Elec       q    Type
REMARK                         _______ _______ _______ _____ _____    ______ ____
ROOT
ATOM      1  C   UNL     1      -0.740  13.063  19.998  0.00  0.00    +0.000 C 
ATOM      2  C   UNL     1      -0.386  14.545  19.720  0.00  0.00    +0.000 C 
ATOM      3  C   UNL     1       1.019  14.617  20.226  0.00  0.00    +0.000 C 
ATOM      4  O   UNL     1       1.694  15.627  20.303  0.00  0.00    +0.000 OA
ATOM      5  C   UNL     1       1.547  13.219  20.504  0.00  0.00    +0.000 C 
ATOM      6  O   UNL     1       2.667  12.994  20.913  0.00  0.00    +0.000 OA
ATOM      7  N   UNL     1       0.543  12.356  20.102  0.00  0.00    +0.000 N 
ENDROOT
BRANCH   1  13
ATOM      8  C   UNL     1      -3.167  12.194  19.529  0.00  0.00    +0.000 A 
ATOM      9  C   UNL     1      -4.075  11.632  18.613  0.00  0.00    +0.000 A 
ATOM     10  C   UNL     1      -3.666  11.237  17.341  0.00  0.00    +0.000 A 
ATOM     11  C   UNL     1      -2.342  11.400  16.965  0.00  0.00    +0.000 A 
ATOM     12  C   UNL     1      -1.435  11.968  17.858  0.00  0.00    +0.000 A 
ATOM     13  C   UNL     1      -1.823  12.388  19.154  0.00  0.00    +0.000 A 
BRANCH   8  15
ATOM     14  C   UNL     1      -4.981  12.760  20.950  0.00  0.00    +0.000 C 
ATOM     15  O   UNL     1      -3.569  12.639  20.759  0.00  0.00    +0.000 OA
ENDBRANCH   8  15
ENDBRANCH   1  13
BRANCH   7  16
ATOM     16  C   UNL     1       0.717  10.951  20.092  0.00  0.00    +0.000 A 
ATOM     17  C   UNL     1       0.578  10.163  21.239  0.00  0.00    +0.000 A 
ATOM     18  C   UNL     1       0.943   8.805  21.224  0.00  0.00    +0.000 A 
ATOM     19  C   UNL     1       1.506   8.230  20.077  0.00  0.00    +0.000 A 
ATOM     20  C   UNL     1       1.619   9.019  18.928  0.00  0.00    +0.000 A 
ATOM     21  C   UNL     1       1.230  10.359  18.933  0.00  0.00    +0.000 A 
BRANCH  19  22
ATOM     22  C   UNL     1       2.003   6.853  20.076  0.00  0.00    +0.000 A 
ATOM     23  C   UNL     1       1.552   5.745  20.864  0.00  0.00    +0.000 A 
ATOM     24  C   UNL     1       2.248   4.581  20.604  0.00  0.00    +0.000 A 
ATOM     25  S   UNL     1       3.463   4.813  19.428  0.00  0.00    +0.000 S 
ATOM     26  C   UNL     1       3.064   6.468  19.268  0.00  0.00    +0.000 A 
ENDBRANCH  19  22
ENDBRANCH   7  16
BRANCH   2  27
ATOM     27  C   UNL     1      -1.266  15.542  20.445  0.00  0.00    +0.000 C 
ATOM     28  O   UNL     1      -1.715  15.280  21.564  0.00  0.00    +0.000 OA
BRANCH  27  29
ATOM     29  C   UNL     1      -1.482  16.917  19.793  0.00  0.00    +0.000 C 
ATOM     30  C   UNL     1      -0.951  18.031  20.690  0.00  0.00    +0.000 C 
ATOM     31  C   UNL     1      -0.808  17.000  18.421  0.00  0.00    +0.000 C 
ENDBRANCH  27  29
ENDBRANCH   2  27
TORSDOF 6
ENDMDL
MODEL 3
REMARK VINA RESULT:      -7.1      4.885      9.834
REMARK  Name = 
REMARK  9 active torsions:
REMARK  status: ('A' for Active; 'I' for Inactive)
REMARK    1  A    between atoms: C_1  and  O_2
REMARK    2  A    between atoms: O_2  and  C_3
REMARK    3  A    between atoms: C_8  and  C_9
REMARK    4  A    between atoms: C_10  and  C_11
REMARK    5  A    between atoms: C_11  and  C_13
REMARK    6  A    between atoms: C_13  and  C_14
REMARK    7  A    between atoms: C_13  and  C_15
REMARK    8  A    between atoms: N_20  and  C_21
REMARK    9  A    between atoms: C_24  and  C_25
REMARK                            x       y       z     vdW  Elec       q    Type
REMARK                         _______ _______ _______ _____ _____    ______ ____
ROOT
ATOM      1  C   UNL     1      -0.284  13.290  19.312  0.00  0.00    +0.000 C 
ATOM      2  C   UNL     1      -0.028  14.696  18.716  0.00  0.00    +0.000 C 
ATOM      3  C   UNL     1       1.465  14.722  18.640  0.00  0.00    +0.000 C 
ATOM      4  O   UNL     1       2.142  15.680  18.314  0.00  0.00    +0.000 OA
ATOM      5  C   UNL     1       2.025  13.332  18.893  0.00  0.00    +0.000 C 
ATOM      6  O   UNL     1       3.211  13.074  18.877  0.00  0.00    +0.000 OA
ATOM      7  N   UNL     1       0.924  12.506  19.024  0.00  0.00    +0.000 N 
ENDROOT
BRANCH   1  13
ATOM      8  C   UNL     1      -2.745  12.606  19.894  0.00  0.00    +0.000 A 
ATOM      9  C   UNL     1      -3.944  12.000  19.476  0.00  0.00    +0.000 A 
ATOM     10  C   UNL     1      -4.040  11.369  18.237  0.00  0.00    +0.000 A 
ATOM     11  C   UNL     1      -2.939  11.338  17.396  0.00  0.00    +0.000 A 
ATOM     12  C   UNL     1      -1.749  11.946  17.793  0.00  0.00    +0.000 A 
ATOM     13  C   UNL     1      -1.623  12.602  19.042  0.00  0.00    +0.000 A 
BRANCH   8  15
ATOM     14  C   UNL     1      -3.060  12.548  22.246  0.00  0.00    +0.000 C 
ATOM     15  O   UNL     1      -2.655  13.277  21.084  0.00  0.00    +0.000 OA
ENDBRANCH   8  15
ENDBRANCH   1  13
BRANCH   7  16
ATOM     16  C   UNL     1       1.047  11.101  19.148  0.00  0.00    +0.000 A 
ATOM     17  C   UNL     1       0.803  10.421  20.345  0.00  0.00    +0.000 A 
ATOM     18  C   UNL     1       1.118   9.057  20.473  0.00  0.00    +0.000 A 
ATOM     19  C   UNL     1       1.736   8.366  19.422  0.00  0.00    +0.000 A 
ATOM     20  C   UNL     1       1.955   9.047  18.221  0.00  0.00    +0.000 A 
ATOM     21  C   UNL     1       1.615  10.393  18.082  0.00  0.00    +0.000 A 
BRANCH  19  22
ATOM     22  C   UNL     1       2.182   6.980  19.575  0.00  0.00    +0.000 A 
ATOM     23  C   UNL     1       1.844   6.047  20.608  0.00  0.00    +0.000 A 
ATOM     24  C   UNL     1       2.445   4.815  20.438  0.00  0.00    +0.000 A 
ATOM     25  S   UNL     1       3.439   4.775  19.050  0.00  0.00    +0.000 S 
ATOM     26  C   UNL     1       3.069   6.403  18.676  0.00  0.00    +0.000 A 
ENDBRANCH  19  22
ENDBRANCH   7  16
BRANCH   2  27
ATOM     27  C   UNL     1      -0.538  15.837  19.571  0.00  0.00    +0.000 C 
ATOM     28  O   UNL     1      -0.445  15.787  20.799  0.00  0.00    +0.000 OA
BRANCH  27  29
ATOM     29  C   UNL     1      -1.066  17.091  18.855  0.00  0.00    +0.000 C 
ATOM     30  C   UNL     1      -2.403  17.530  19.446  0.00  0.00    +0.000 C 
ATOM     31  C   UNL     1      -0.066  18.248  18.937  0.00  0.00    +0.000 C 
ENDBRANCH  27  29
ENDBRANCH   2  27
TORSDOF 6
ENDMDL
MODEL 4
REMARK VINA RESULT:      -7.0      4.783      9.794
REMARK  Name = 
REMARK  9 active torsions:
REMARK  status: ('A' for Active; 'I' for Inactive)
REMARK    1  A    between atoms: C_1  and  O_2
REMARK    2  A    between atoms: O_2  and  C_3
REMARK    3  A    between atoms: C_8  and  C_9
REMARK    4  A    between atoms: C_10  and  C_11
REMARK    5  A    between atoms: C_11  and  C_13
REMARK    6  A    between atoms: C_13  and  C_14
REMARK    7  A    between atoms: C_13  and  C_15
REMARK    8  A    between atoms: N_20  and  C_21
REMARK    9  A    between atoms: C_24  and  C_25
REMARK                            x       y       z     vdW  Elec       q    Type
REMARK                         _______ _______ _______ _____ _____    ______ ____
ROOT
ATOM      1  C   UNL     1      -0.488  13.140  19.309  0.00  0.00    +0.000 C 
ATOM      2  C   UNL     1      -0.201  14.564  18.771  0.00  0.00    +0.000 C 
ATOM      3  C   UNL     1       1.284  14.645  18.914  0.00  0.00    +0.000 C 
ATOM      4  O   UNL     1       1.964  15.632  18.699  0.00  0.00    +0.000 OA
ATOM      5  C   UNL     1       1.855  13.272  19.232  0.00  0.00    +0.000 C 
ATOM      6  O   UNL     1       3.039  13.058  19.386  0.00  0.00    +0.000 OA
ATOM      7  N   UNL     1       0.778  12.405  19.193  0.00  0.00    +0.000 N 
ENDROOT
BRANCH   1  13
ATOM      8  C   UNL     1      -2.932  12.236  19.582  0.00  0.00    +0.000 A 
ATOM      9  C   UNL     1      -4.044  11.612  18.989  0.00  0.00    +0.000 A 
ATOM     10  C   UNL     1      -3.991  11.134  17.681  0.00  0.00    +0.000 A 
ATOM     11  C   UNL     1      -2.826  11.276  16.945  0.00  0.00    +0.000 A 
ATOM     12  C   UNL     1      -1.720  11.903  17.517  0.00  0.00    +0.000 A 
ATOM     13  C   UNL     1      -1.746  12.408  18.841  0.00  0.00    +0.000 A 
BRANCH   8  15
ATOM     14  C   UNL     1      -4.290  12.825  21.437  0.00  0.00    +0.000 C 
ATOM     15  O   UNL     1      -2.990  12.760  20.845  0.00  0.00    +0.000 OA
ENDBRANCH   8  15
ENDBRANCH   1  13
BRANCH   7  16
ATOM     16  C   UNL     1       0.936  11.004  19.319  0.00  0.00    +0.000 A 
ATOM     17  C   UNL     1       0.740  10.325  20.526  0.00  0.00    +0.000 A 
ATOM     18  C   UNL     1       1.089   8.969  20.651  0.00  0.00    +0.000 A 
ATOM     19  C   UNL     1       1.693   8.286  19.587  0.00  0.00    +0.000 A 
ATOM     20  C   UNL     1       1.863   8.966  18.377  0.00  0.00    +0.000 A 
ATOM     21  C   UNL     1       1.490  10.303  18.242  0.00  0.00    +0.000 A 
BRANCH  19  22
ATOM     22  C   UNL     1       2.174   6.911  19.734  0.00  0.00    +0.000 A 
ATOM     23  C   UNL     1       1.772   5.928  20.694  0.00  0.00    +0.000 A 
ATOM     24  C   UNL     1       2.433   4.724  20.540  0.00  0.00    +0.000 A 
ATOM     25  S   UNL     1       3.558   4.773  19.257  0.00  0.00    +0.000 S 
ATOM     26  C   UNL     1       3.166   6.401  18.907  0.00  0.00    +0.000 A 
ENDBRANCH  19  22
ENDBRANCH   7  16
BRANCH   2  27
ATOM     27  C   UNL     1      -0.874  15.672  19.553  0.00  0.00    +0.000 C 
ATOM     28  O   UNL     1      -1.230  16.709  18.988  0.00  0.00    +0.000 OA
BRANCH  27  29
ATOM     29  C   UNL     1      -1.195  15.413  21.035  0.00  0.00    +0.000 C 
ATOM     30  C   UNL     1      -0.034  15.850  21.924  0.00  0.00    +0.000 C 
ATOM     31  C   UNL     1      -2.472  16.138  21.467  0.00  0.00    +0.000 C 
ENDBRANCH  27  29
ENDBRANCH   2  27
TORSDOF 6
ENDMDL
MODEL 5
REMARK VINA RESULT:      -7.0      7.116     10.779
REMARK  Name = 
REMARK  9 active torsions:
REMARK  status: ('A' for Active; 'I' for Inactive)
REMARK    1  A    between atoms: C_1  and  O_2
REMARK    2  A    between atoms: O_2  and  C_3
REMARK    3  A    between atoms: C_8  and  C_9
REMARK    4  A    between atoms: C_10  and  C_11
REMARK    5  A    between atoms: C_11  and  C_13
REMARK    6  A    between atoms: C_13  and  C_14
REMARK    7  A    between atoms: C_13  and  C_15
REMARK    8  A    between atoms: N_20  and  C_21
REMARK    9  A    between atoms: C_24  and  C_25
REMARK                            x       y       z     vdW  Elec       q    Type
REMARK                         _______ _______ _______ _____ _____    ______ ____
ROOT
ATOM      1  C   UNL     1      -2.754  12.715  20.234  0.00  0.00    +0.000 C 
ATOM      2  C   UNL     1      -4.177  13.306  20.388  0.00  0.00    +0.000 C 
ATOM      3  C   UNL     1      -3.896  14.574  21.129  0.00  0.00    +0.000 C 
ATOM      4  O   UNL     1      -4.734  15.343  21.563  0.00  0.00    +0.000 OA
ATOM      5  C   UNL     1      -2.401  14.848  21.146  0.00  0.00    +0.000 C 
ATOM      6  O   UNL     1      -1.904  15.822  21.674  0.00  0.00    +0.000 OA
ATOM      7  N   UNL     1      -1.830  13.847  20.382  0.00  0.00    +0.000 N 
ENDROOT
BRANCH   1  13
ATOM      8  C   UNL     1      -1.509  10.723  19.073  0.00  0.00    +0.000 A 
ATOM      9  C   UNL     1      -1.418   9.856  17.970  0.00  0.00    +0.000 A 
ATOM     10  C   UNL     1      -2.251  10.007  16.862  0.00  0.00    +0.000 A 
ATOM     11  C   UNL     1      -3.189  11.027  16.844  0.00  0.00    +0.000 A 
ATOM     12  C   UNL     1      -3.297  11.885  17.936  0.00  0.00    +0.000 A 
ATOM     13  C   UNL     1      -2.472  11.752  19.080  0.00  0.00    +0.000 A 
BRANCH   8  15
ATOM     14  C   UNL     1       0.519   9.895  19.986  0.00  0.00    +0.000 C 
ATOM     15  O   UNL     1      -0.736  10.549  20.190  0.00  0.00    +0.000 OA
ENDBRANCH   8  15
ENDBRANCH   1  13
BRANCH   7  16
ATOM     16  C   UNL     1      -0.452  13.836  20.062  0.00  0.00    +0.000 A 
ATOM     17  C   UNL     1       0.534  13.444  20.973  0.00  0.00    +0.000 A 
ATOM     18  C   UNL     1       1.897  13.628  20.678  0.00  0.00    +0.000 A 
ATOM     19  C   UNL     1       2.292  14.260  19.492  0.00  0.00    +0.000 A 
ATOM     20  C   UNL     1       1.300  14.628  18.577  0.00  0.00    +0.000 A 
ATOM     21  C   UNL     1      -0.051  14.419  18.855  0.00  0.00    +0.000 A 
BRANCH  19  22
ATOM     22  C   UNL     1       3.697  14.570  19.220  0.00  0.00    +0.000 A 
ATOM     23  C   UNL     1       4.390  14.524  17.968  0.00  0.00    +0.000 A 
ATOM     24  C   UNL     1       5.718  14.886  18.075  0.00  0.00    +0.000 A 
ATOM     25  S   UNL     1       6.150  15.262  19.683  0.00  0.00    +0.000 S 
ATOM     26  C   UNL     1       4.565  14.939  20.238  0.00  0.00    +0.000 A 
ENDBRANCH  19  22
ENDBRANCH   7  16
BRANCH   2  27
ATOM     27  C   UNL     1      -5.133  12.432  21.172  0.00  0.00    +0.000 C 
ATOM     28  O   UNL     1      -4.971  12.256  22.382  0.00  0.00    +0.000 OA
BRANCH  27  29
ATOM     29  C   UNL     1      -6.361  11.870  20.436  0.00  0.00    +0.000 C 
ATOM     30  C   UNL     1      -7.542  11.719  21.390  0.00  0.00    +0.000 C 
ATOM     31  C   UNL     1      -6.765  12.761  19.258  0.00  0.00    +0.000 C 
ENDBRANCH  27  29
ENDBRANCH   2  27
TORSDOF 6
ENDMDL
MODEL 6
REMARK VINA RESULT:      -6.9      5.000     10.276
REMARK  Name = 
REMARK  9 active torsions:
REMARK  status: ('A' for Active; 'I' for Inactive)
REMARK    1  A    between atoms: C_1  and  O_2
REMARK    2  A    between atoms: O_2  and  C_3
REMARK    3  A    between atoms: C_8  and  C_9
REMARK    4  A    between atoms: C_10  and  C_11
REMARK    5  A    between atoms: C_11  and  C_13
REMARK    6  A    between atoms: C_13  and  C_14
REMARK    7  A    between atoms: C_13  and  C_15
REMARK    8  A    between atoms: N_20  and  C_21
REMARK    9  A    between atoms: C_24  and  C_25
REMARK                            x       y       z     vdW  Elec       q    Type
REMARK                         _______ _______ _______ _____ _____    ______ ____
ROOT
ATOM      1  C   UNL     1      -1.179  12.835  20.133  0.00  0.00    +0.000 C 
ATOM      2  C   UNL     1      -1.069  14.378  20.197  0.00  0.00    +0.000 C 
ATOM      3  C   UNL     1       0.319  14.557  20.724  0.00  0.00    +0.000 C 
ATOM      4  O   UNL     1       0.829  15.619  21.033  0.00  0.00    +0.000 OA
ATOM      5  C   UNL     1       1.065  13.234  20.690  0.00  0.00    +0.000 C 
ATOM      6  O   UNL     1       2.217  13.104  21.053  0.00  0.00    +0.000 OA
ATOM      7  N   UNL     1       0.201  12.334  20.093  0.00  0.00    +0.000 N 
ENDROOT
BRANCH   1  13
ATOM      8  C   UNL     1      -3.546  12.030  19.347  0.00  0.00    +0.000 A 
ATOM      9  C   UNL     1      -4.344  11.508  18.313  0.00  0.00    +0.000 A 
ATOM     10  C   UNL     1      -3.788  11.129  17.093  0.00  0.00    +0.000 A 
ATOM     11  C   UNL     1      -2.424  11.271  16.887  0.00  0.00    +0.000 A 
ATOM     12  C   UNL     1      -1.625  11.799  17.899  0.00  0.00    +0.000 A 
ATOM     13  C   UNL     1      -2.162  12.202  19.146  0.00  0.00    +0.000 A 
BRANCH   8  15
ATOM     14  C   UNL     1      -5.518  12.467  20.593  0.00  0.00    +0.000 C 
ATOM     15  O   UNL     1      -4.089  12.459  20.528  0.00  0.00    +0.000 OA
ENDBRANCH   8  15
ENDBRANCH   1  13
BRANCH   7  16
ATOM     16  C   UNL     1       0.592  11.012  19.773  0.00  0.00    +0.000 A 
ATOM     17  C   UNL     1       0.517   9.957  20.687  0.00  0.00    +0.000 A 
ATOM     18  C   UNL     1       1.089   8.708  20.390  0.00  0.00    +0.000 A 
ATOM     19  C   UNL     1       1.797   8.513  19.196  0.00  0.00    +0.000 A 
ATOM     20  C   UNL     1       1.848   9.566  18.278  0.00  0.00    +0.000 A 
ATOM     21  C   UNL     1       1.254  10.797  18.559  0.00  0.00    +0.000 A 
BRANCH  19  22
ATOM     22  C   UNL     1       2.503   7.260  18.920  0.00  0.00    +0.000 A 
ATOM     23  C   UNL     1       3.382   6.958  17.831  0.00  0.00    +0.000 A 
ATOM     24  C   UNL     1       3.880   5.671  17.883  0.00  0.00    +0.000 A 
ATOM     25  S   UNL     1       3.278   4.807  19.226  0.00  0.00    +0.000 S 
ATOM     26  C   UNL     1       2.350   6.149  19.739  0.00  0.00    +0.000 A 
ENDBRANCH  19  22
ENDBRANCH   7  16
BRANCH   2  27
ATOM     27  C   UNL     1      -2.077  15.037  21.115  0.00  0.00    +0.000 C 
ATOM     28  O   UNL     1      -2.244  14.618  22.263  0.00  0.00    +0.000 OA
BRANCH  27  29
ATOM     29  C   UNL     1      -2.793  16.299  20.608  0.00  0.00    +0.000 C 
ATOM     30  C   UNL     1      -4.292  16.218  20.880  0.00  0.00    +0.000 C 
ATOM     31  C   UNL     1      -2.223  17.565  21.253  0.00  0.00    +0.000 C 
ENDBRANCH  27  29
ENDBRANCH   2  27
TORSDOF 6
ENDMDL
MODEL 7
REMARK VINA RESULT:      -6.9      4.915     10.216
REMARK  Name = 
REMARK  9 active torsions:
REMARK  status: ('A' for Active; 'I' for Inactive)
REMARK    1  A    between atoms: C_1  and  O_2
REMARK    2  A    between atoms: O_2  and  C_3
REMARK    3  A    between atoms: C_8  and  C_9
REMARK    4  A    between atoms: C_10  and  C_11
REMARK    5  A    between atoms: C_11  and  C_13
REMARK    6  A    between atoms: C_13  and  C_14
REMARK    7  A    between atoms: C_13  and  C_15
REMARK    8  A    between atoms: N_20  and  C_21
REMARK    9  A    between atoms: C_24  and  C_25
REMARK                            x       y       z     vdW  Elec       q    Type
REMARK                         _______ _______ _______ _____ _____    ______ ____
ROOT
ATOM      1  C   UNL     1      -1.234  12.795  20.153  0.00  0.00    +0.000 C 
ATOM      2  C   UNL     1      -1.145  14.338  20.251  0.00  0.00    +0.000 C 
ATOM      3  C   UNL     1       0.241  14.526  20.779  0.00  0.00    +0.000 C 
ATOM      4  O   UNL     1       0.736  15.588  21.109  0.00  0.00    +0.000 OA
ATOM      5  C   UNL     1       1.007  13.214  20.714  0.00  0.00    +0.000 C 
ATOM      6  O   UNL     1       2.160  13.093  21.071  0.00  0.00    +0.000 OA
ATOM      7  N   UNL     1       0.153  12.316  20.099  0.00  0.00    +0.000 N 
ENDROOT
BRANCH   1  13
ATOM      8  C   UNL     1      -3.593  11.987  19.349  0.00  0.00    +0.000 A 
ATOM      9  C   UNL     1      -4.385  11.474  18.306  0.00  0.00    +0.000 A 
ATOM     10  C   UNL     1      -3.823  11.116  17.082  0.00  0.00    +0.000 A 
ATOM     11  C   UNL     1      -2.460  11.268  16.882  0.00  0.00    +0.000 A 
ATOM     12  C   UNL     1      -1.666  11.787  17.904  0.00  0.00    +0.000 A 
ATOM     13  C   UNL     1      -2.210  12.170  19.155  0.00  0.00    +0.000 A 
BRANCH   8  15
ATOM     14  C   UNL     1      -5.571  12.379  20.601  0.00  0.00    +0.000 C 
ATOM     15  O   UNL     1      -4.142  12.396  20.534  0.00  0.00    +0.000 OA
ENDBRANCH   8  15
ENDBRANCH   1  13
BRANCH   7  16
ATOM     16  C   UNL     1       0.563  11.007  19.749  0.00  0.00    +0.000 A 
ATOM     17  C   UNL     1       0.492   9.928  20.636  0.00  0.00    +0.000 A 
ATOM     18  C   UNL     1       1.082   8.694  20.312  0.00  0.00    +0.000 A 
ATOM     19  C   UNL     1       1.802   8.537  19.120  0.00  0.00    +0.000 A 
ATOM     20  C   UNL     1       1.848   9.614  18.229  0.00  0.00    +0.000 A 
ATOM     21  C   UNL     1       1.237  10.830  18.536  0.00  0.00    +0.000 A 
BRANCH  19  22
ATOM     22  C   UNL     1       2.525   7.300  18.819  0.00  0.00    +0.000 A 
ATOM     23  C   UNL     1       3.419   7.037  17.732  0.00  0.00    +0.000 A 
ATOM     24  C   UNL     1       3.931   5.754  17.755  0.00  0.00    +0.000 A 
ATOM     25  S   UNL     1       3.324   4.848  19.068  0.00  0.00    +0.000 S 
ATOM     26  C   UNL     1       2.376   6.166  19.605  0.00  0.00    +0.000 A 
ENDBRANCH  19  22
ENDBRANCH   7  16
BRANCH   2  27
ATOM     27  C   UNL     1      -2.160  14.962  21.185  0.00  0.00    +0.000 C 
ATOM     28  O   UNL     1      -3.137  15.565  20.734  0.00  0.00    +0.000 OA
BRANCH  27  29
ATOM     29  C   UNL     1      -1.991  14.721  22.694  0.00  0.00    +0.000 C 
ATOM     30  C   UNL     1      -1.883  16.045  23.445  0.00  0.00    +0.000 C 
ATOM     31  C   UNL     1      -3.152  13.902  23.265  0.00  0.00    +0.000 C 
ENDBRANCH  27  29
ENDBRANCH   2  27
TORSDOF 6
ENDMDL
MODEL 8
REMARK VINA RESULT:      -6.8      7.641     11.079
REMARK  Name = 
REMARK  9 active torsions:
REMARK  status: ('A' for Active; 'I' for Inactive)
REMARK    1  A    between atoms: C_1  and  O_2
REMARK    2  A    between atoms: O_2  and  C_3
REMARK    3  A    between atoms: C_8  and  C_9
REMARK    4  A    between atoms: C_10  and  C_11
REMARK    5  A    between atoms: C_11  and  C_13
REMARK    6  A    between atoms: C_13  and  C_14
REMARK    7  A    between atoms: C_13  and  C_15
REMARK    8  A    between atoms: N_20  and  C_21
REMARK    9  A    between atoms: C_24  and  C_25
REMARK                            x       y       z     vdW  Elec       q    Type
REMARK                         _______ _______ _______ _____ _____    ______ ____
ROOT
ATOM      1  C   UNL     1      -2.618  13.291  20.666  0.00  0.00    +0.000 C 
ATOM      2  C   UNL     1      -4.154  13.483  20.613  0.00  0.00    +0.000 C 
ATOM      3  C   UNL     1      -4.289  14.924  20.986  0.00  0.00    +0.000 C 
ATOM      4  O   UNL     1      -5.338  15.515  21.169  0.00  0.00    +0.000 OA
ATOM      5  C   UNL     1      -2.926  15.598  20.969  0.00  0.00    +0.000 C 
ATOM      6  O   UNL     1      -2.756  16.773  21.223  0.00  0.00    +0.000 OA
ATOM      7  N   UNL     1      -2.040  14.633  20.524  0.00  0.00    +0.000 N 
ENDROOT
BRANCH   1  13
ATOM      8  C   UNL     1      -0.965  11.301  20.251  0.00  0.00    +0.000 A 
ATOM      9  C   UNL     1      -0.532  10.270  19.398  0.00  0.00    +0.000 A 
ATOM     10  C   UNL     1      -1.071  10.115  18.122  0.00  0.00    +0.000 A 
ATOM     11  C   UNL     1      -2.054  10.987  17.682  0.00  0.00    +0.000 A 
ATOM     12  C   UNL     1      -2.501  12.004  18.523  0.00  0.00    +0.000 A 
ATOM     13  C   UNL     1      -1.980  12.182  19.828  0.00  0.00    +0.000 A 
BRANCH   8  15
ATOM     14  C   UNL     1      -0.485  10.237  22.318  0.00  0.00    +0.000 C 
ATOM     15  O   UNL     1      -0.484  11.428  21.527  0.00  0.00    +0.000 OA
ENDBRANCH   8  15
ENDBRANCH   1  13
BRANCH   7  16
ATOM     16  C   UNL     1      -0.681  14.925  20.258  0.00  0.00    +0.000 A 
ATOM     17  C   UNL     1      -0.205  15.215  18.975  0.00  0.00    +0.000 A 
ATOM     18  C   UNL     1       1.175  15.311  18.727  0.00  0.00    +0.000 A 
ATOM     19  C   UNL     1       2.103  15.062  19.747  0.00  0.00    +0.000 A 
ATOM     20  C   UNL     1       1.618  14.796  21.032  0.00  0.00    +0.000 A 
ATOM     21  C   UNL     1       0.248  14.730  21.286  0.00  0.00    +0.000 A 
BRANCH  19  22
ATOM     22  C   UNL     1       3.543  15.039  19.484  0.00  0.00    +0.000 A 
ATOM     23  C   UNL     1       4.619  15.146  20.422  0.00  0.00    +0.000 A 
ATOM     24  C   UNL     1       5.863  15.081  19.825  0.00  0.00    +0.000 A 
ATOM     25  S   UNL     1       5.749  14.914  18.130  0.00  0.00    +0.000 S 
ATOM     26  C   UNL     1       4.040  14.931  18.192  0.00  0.00    +0.000 A 
ENDBRANCH  19  22
ENDBRANCH   7  16
BRANCH   2  27
ATOM     27  C   UNL     1      -4.925  12.608  21.579  0.00  0.00    +0.000 C 
ATOM     28  O   UNL     1      -4.542  12.476  22.744  0.00  0.00    +0.000 OA
BRANCH  27  29
ATOM     29  C   UNL     1      -6.245  11.989  21.092  0.00  0.00    +0.000 C 
ATOM     30  C   UNL     1      -7.441  12.722  21.693  0.00  0.00    +0.000 C 
ATOM     31  C   UNL     1      -6.346  12.013  19.564  0.00  0.00    +0.000 C 
ENDBRANCH  27  29
ENDBRANCH   2  27
TORSDOF 6
ENDMDL
MODEL 9
REMARK VINA RESULT:      -6.7      7.674     11.182
REMARK  Name = 
REMARK  9 active torsions:
REMARK  status: ('A' for Active; 'I' for Inactive)
REMARK    1  A    between atoms: C_1  and  O_2
REMARK    2  A    between atoms: O_2  and  C_3
REMARK    3  A    between atoms: C_8  and  C_9
REMARK    4  A    between atoms: C_10  and  C_11
REMARK    5  A    between atoms: C_11  and  C_13
REMARK    6  A    between atoms: C_13  and  C_14
REMARK    7  A    between atoms: C_13  and  C_15
REMARK    8  A    between atoms: N_20  and  C_21
REMARK    9  A    between atoms: C_24  and  C_25
REMARK                            x       y       z     vdW  Elec       q    Type
REMARK                         _______ _______ _______ _____ _____    ______ ____
ROOT
ATOM      1  C   UNL     1      -2.453  13.435  20.911  0.00  0.00    +0.000 C 
ATOM      2  C   UNL     1      -3.991  13.613  20.873  0.00  0.00    +0.000 C 
ATOM      3  C   UNL     1      -4.128  15.083  21.107  0.00  0.00    +0.000 C 
ATOM      4  O   UNL     1      -5.177  15.683  21.254  0.00  0.00    +0.000 OA
ATOM      5  C   UNL     1      -2.770  15.759  20.995  0.00  0.00    +0.000 C 
ATOM      6  O   UNL     1      -2.603  16.953  21.131  0.00  0.00    +0.000 OA
ATOM      7  N   UNL     1      -1.887  14.760  20.627  0.00  0.00    +0.000 N 
ENDROOT
BRANCH   1  13
ATOM      8  C   UNL     1      -0.890  11.342  20.703  0.00  0.00    +0.000 A 
ATOM      9  C   UNL     1      -0.459  10.249  19.930  0.00  0.00    +0.000 A 
ATOM     10  C   UNL     1      -0.922  10.058  18.630  0.00  0.00    +0.000 A 
ATOM     11  C   UNL     1      -1.825  10.956  18.084  0.00  0.00    +0.000 A 
ATOM     12  C   UNL     1      -2.268  12.037  18.844  0.00  0.00    +0.000 A 
ATOM     13  C   UNL     1      -1.823  12.253  20.172  0.00  0.00    +0.000 A 
BRANCH   8  15
ATOM     14  C   UNL     1      -0.912  10.501  22.923  0.00  0.00    +0.000 C 
ATOM     15  O   UNL     1      -0.486  11.508  22.001  0.00  0.00    +0.000 OA
ENDBRANCH   8  15
ENDBRANCH   1  13
BRANCH   7  16
ATOM     16  C   UNL     1      -0.536  15.031  20.305  0.00  0.00    +0.000 A 
ATOM     17  C   UNL     1      -0.110  15.314  19.003  0.00  0.00    +0.000 A 
ATOM     18  C   UNL     1       1.261  15.391  18.698  0.00  0.00    +0.000 A 
ATOM     19  C   UNL     1       2.226  15.127  19.679  0.00  0.00    +0.000 A 
ATOM     20  C   UNL     1       1.791  14.868  20.982  0.00  0.00    +0.000 A 
ATOM     21  C   UNL     1       0.432  14.822  21.293  0.00  0.00    +0.000 A 
BRANCH  19  22
ATOM     22  C   UNL     1       3.654  15.082  19.356  0.00  0.00    +0.000 A 
ATOM     23  C   UNL     1       4.270  14.789  18.097  0.00  0.00    +0.000 A 
ATOM     24  C   UNL     1       5.650  14.839  18.149  0.00  0.00    +0.000 A 
ATOM     25  S   UNL     1       6.216  15.214  19.715  0.00  0.00    +0.000 S 
ATOM     26  C   UNL     1       4.621  15.309  20.325  0.00  0.00    +0.000 A 
ENDBRANCH  19  22
ENDBRANCH   7  16
BRANCH   2  27
ATOM     27  C   UNL     1      -4.734  12.832  21.936  0.00  0.00    +0.000 C 
ATOM     28  O   UNL     1      -4.125  12.329  22.883  0.00  0.00    +0.000 OA
BRANCH  27  29
ATOM     29  C   UNL     1      -6.269  12.786  21.853  0.00  0.00    +0.000 C 
ATOM     30  C   UNL     1      -6.726  11.696  20.888  0.00  0.00    +0.000 C 
ATOM     31  C   UNL     1      -6.899  12.550  23.228  0.00  0.00    +0.000 C 
ENDBRANCH  27  29
ENDBRANCH   2  27
TORSDOF 6
ENDMDL
