MODEL 1
REMARK VINA RESULT:      -6.3      0.000      0.000
REMARK  Name = 
REMARK  11 active torsions:
REMARK  status: ('A' for Active; 'I' for Inactive)
REMARK    1  A    between atoms: C_1  and  C_2
REMARK    2  A    between atoms: C_2  and  N_3
REMARK    3  A    between atoms: N_6  and  C_7
REMARK    4  A    between atoms: C_7  and  C_8
REMARK    5  A    between atoms: C_7  and  C_13
REMARK    6  A    between atoms: C_13  and  C_14
REMARK    7  A    between atoms: C_13  and  N_15
REMARK    8  A    between atoms: C_16  and  S_17
REMARK    9  A    between atoms: N_18  and  C_19
REMARK   10  A    between atoms: C_21  and  C_22
REMARK   11  A    between atoms: C_25  and  C_26
REMARK                            x       y       z     vdW  Elec       q    Type
REMARK                         _______ _______ _______ _____ _____    ______ ____
ROOT
ATOM      1  C   UNL     1      -0.285  10.229  19.325  0.00  0.00    +0.000 C 
ATOM      2  C   UNL     1      -0.618  10.041  17.834  0.00  0.00    +0.000 C 
ENDROOT
BRANCH   1   3
ATOM      3  N   UNL     1       0.846   9.318  19.513  0.00  0.00    +0.000 NA
ATOM      4  C   UNL     1       1.026   8.581  20.547  0.00  0.00    +0.000 C 
ATOM      5  N   UNL     1       2.027   7.655  20.645  0.00  0.00    +0.000 N 
ATOM      6  H   UNL     1       2.088   7.210  21.551  0.00  0.00    +0.000 HD
BRANCH   5   7
ATOM      7  C   UNL     1       2.495   6.823  19.603  0.00  0.00    +0.000 A 
ATOM      8  C   UNL     1       3.352   7.285  18.584  0.00  0.00    +0.000 A 
ATOM      9  C   UNL     1       3.785   6.450  17.545  0.00  0.00    +0.000 A 
ATOM     10  C   UNL     1       4.659   6.964  16.438  0.00  0.00    +0.000 C 
ATOM     11  C   UNL     1       3.392   5.111  17.552  0.00  0.00    +0.000 A 
ATOM     12  C   UNL     1       2.567   4.625  18.569  0.00  0.00    +0.000 A 
ATOM     13  C   UNL     1       2.117   5.468  19.591  0.00  0.00    +0.000 A 
ATOM     14  C   UNL     1       1.248   4.904  20.682  0.00  0.00    +0.000 C 
ENDBRANCH   5   7
BRANCH   4  15
ATOM     15  S   UNL     1       0.039   8.605  22.003  0.00  0.00    +0.000 S 
ATOM     16  H   UNL     1      -0.139   9.929  22.076  0.00  0.00    +0.000 HD
ENDBRANCH   4  15
ENDBRANCH   1   3
BRANCH   1  17
ATOM     17  C   UNL     1       0.152  11.692  19.813  0.00  0.00    +0.000 C 
BRANCH  17  21
ATOM     18  N   UNL     1       2.626  14.514  19.528  0.00  0.00    +0.000 NA
ATOM     19  C   UNL     1       1.262  14.755  20.068  0.00  0.00    +0.000 C 
ATOM     20  C   UNL     1       0.047  14.140  19.299  0.00  0.00    +0.000 C 
ATOM     21  N   UNL     1       0.225  12.760  18.755  0.00  0.00    +0.000 NA
ATOM     22  C   UNL     1       1.521  12.813  18.058  0.00  0.00    +0.000 C 
ATOM     23  C   UNL     1       2.703  13.141  18.998  0.00  0.00    +0.000 C 
BRANCH  18  25
ATOM     24  C   UNL     1       4.434  15.149  17.901  0.00  0.00    +0.000 C 
ATOM     25  C   UNL     1       3.066  15.453  18.488  0.00  0.00    +0.000 C 
ENDBRANCH  18  25
ENDBRANCH  17  21
BRANCH  17  26
ATOM     26  C   UNL     1      -0.842  12.127  20.912  0.00  0.00    +0.000 A 
ATOM     27  C   UNL     1      -0.622  12.341  22.264  0.00  0.00    +0.000 A 
ATOM     28  C   UNL     1      -1.803  12.738  22.962  0.00  0.00    +0.000 A 
ATOM     29  C   UNL     1      -2.892  12.820  22.124  0.00  0.00    +0.000 A 
ATOM     30  S   UNL     1      -2.490  12.434  20.508  0.00  0.00    +0.000 S 
ENDBRANCH  17  26
ENDBRANCH   1  17
TORSDOF 7
ENDMDL
MODEL 2
REMARK VINA RESULT:      -6.2      3.608      6.632
REMARK  Name = 
REMARK  11 active torsions:
REMARK  status: ('A' for Active; 'I' for Inactive)
REMARK    1  A    between atoms: C_1  and  C_2
REMARK    2  A    between atoms: C_2  and  N_3
REMARK    3  A    between atoms: N_6  and  C_7
REMARK    4  A    between atoms: C_7  and  C_8
REMARK    5  A    between atoms: C_7  and  C_13
REMARK    6  A    between atoms: C_13  and  C_14
REMARK    7  A    between atoms: C_13  and  N_15
REMARK    8  A    between atoms: C_16  and  S_17
REMARK    9  A    between atoms: N_18  and  C_19
REMARK   10  A    between atoms: C_21  and  C_22
REMARK   11  A    between atoms: C_25  and  C_26
REMARK                            x       y       z     vdW  Elec       q    Type
REMARK                         _______ _______ _______ _____ _____    ______ ____
ROOT
ATOM      1  C   UNL     1      -0.669  11.134  18.711  0.00  0.00    +0.000 C 
ATOM      2  C   UNL     1      -1.047   9.645  18.813  0.00  0.00    +0.000 C 
ENDROOT
BRANCH   1   3
ATOM      3  N   UNL     1      -1.967  11.799  18.842  0.00  0.00    +0.000 NA
ATOM      4  C   UNL     1      -2.920  11.718  17.986  0.00  0.00    +0.000 C 
ATOM      5  N   UNL     1      -4.161  12.254  18.189  0.00  0.00    +0.000 N 
ATOM      6  H   UNL     1      -4.777  12.178  17.391  0.00  0.00    +0.000 HD
BRANCH   5   7
ATOM      7  C   UNL     1      -4.865  12.278  19.414  0.00  0.00    +0.000 A 
ATOM      8  C   UNL     1      -4.340  12.860  20.585  0.00  0.00    +0.000 A 
ATOM      9  C   UNL     1      -5.045  12.852  21.797  0.00  0.00    +0.000 A 
ATOM     10  C   UNL     1      -4.457  13.432  23.050  0.00  0.00    +0.000 C 
ATOM     11  C   UNL     1      -6.323  12.292  21.826  0.00  0.00    +0.000 A 
ATOM     12  C   UNL     1      -6.875  11.737  20.670  0.00  0.00    +0.000 A 
ATOM     13  C   UNL     1      -6.158  11.725  19.468  0.00  0.00    +0.000 A 
ATOM     14  C   UNL     1      -6.792  11.138  18.236  0.00  0.00    +0.000 C 
ENDBRANCH   5   7
BRANCH   4  15
ATOM     15  S   UNL     1      -2.823  10.914  16.425  0.00  0.00    +0.000 S 
ATOM     16  H   UNL     1      -1.863  10.036  16.734  0.00  0.00    +0.000 HD
ENDBRANCH   4  15
ENDBRANCH   1   3
BRANCH   1  17
ATOM     17  C   UNL     1       0.323  11.730  19.820  0.00  0.00    +0.000 C 
BRANCH  17  21
ATOM     18  N   UNL     1       3.179  14.082  19.128  0.00  0.00    +0.000 NA
ATOM     19  C   UNL     1       2.851  13.678  20.520  0.00  0.00    +0.000 C 
ATOM     20  C   UNL     1       1.351  13.706  20.961  0.00  0.00    +0.000 C 
ATOM     21  N   UNL     1       0.348  13.228  19.963  0.00  0.00    +0.000 NA
ATOM     22  C   UNL     1       0.711  13.934  18.723  0.00  0.00    +0.000 C 
ATOM     23  C   UNL     1       2.131  13.586  18.219  0.00  0.00    +0.000 C 
BRANCH  18  25
ATOM     24  C   UNL     1       3.580  15.927  17.468  0.00  0.00    +0.000 C 
ATOM     25  C   UNL     1       3.352  15.525  18.916  0.00  0.00    +0.000 C 
ENDBRANCH  18  25
ENDBRANCH  17  21
BRANCH  17  26
ATOM     26  C   UNL     1      -0.061  11.093  21.173  0.00  0.00    +0.000 A 
ATOM     27  C   UNL     1      -1.086  11.427  22.044  0.00  0.00    +0.000 A 
ATOM     28  C   UNL     1      -1.120  10.598  23.206  0.00  0.00    +0.000 A 
ATOM     29  C   UNL     1      -0.122   9.650  23.189  0.00  0.00    +0.000 A 
ATOM     30  S   UNL     1       0.838   9.752  21.778  0.00  0.00    +0.000 S 
ENDBRANCH  17  26
ENDBRANCH   1  17
TORSDOF 7
ENDMDL
MODEL 3
REMARK VINA RESULT:      -6.2      0.905      1.903
REMARK  Name = 
REMARK  11 active torsions:
REMARK  status: ('A' for Active; 'I' for Inactive)
REMARK    1  A    between atoms: C_1  and  C_2
REMARK    2  A    between atoms: C_2  and  N_3
REMARK    3  A    between atoms: N_6  and  C_7
REMARK    4  A    between atoms: C_7  and  C_8
REMARK    5  A    between atoms: C_7  and  C_13
REMARK    6  A    between atoms: C_13  and  C_14
REMARK    7  A    between atoms: C_13  and  N_15
REMARK    8  A    between atoms: C_16  and  S_17
REMARK    9  A    between atoms: N_18  and  C_19
REMARK   10  A    between atoms: C_21  and  C_22
REMARK   11  A    between atoms: C_25  and  C_26
REMARK                            x       y       z     vdW  Elec       q    Type
REMARK                         _______ _______ _______ _____ _____    ______ ____
ROOT
ATOM      1  C   UNL     1      -0.762  10.297  19.922  0.00  0.00    +0.000 C 
ATOM      2  C   UNL     1      -1.432  10.060  18.557  0.00  0.00    +0.000 C 
ENDROOT
BRANCH   1   3
ATOM      3  N   UNL     1       0.369   9.366  19.885  0.00  0.00    +0.000 NA
ATOM      4  C   UNL     1       1.014   8.958  20.916  0.00  0.00    +0.000 C 
ATOM      5  N   UNL     1       1.988   8.001  20.863  0.00  0.00    +0.000 N 
ATOM      6  H   UNL     1       2.460   7.845  21.743  0.00  0.00    +0.000 HD
BRANCH   5   7
ATOM      7  C   UNL     1       1.978   6.849  20.044  0.00  0.00    +0.000 A 
ATOM      8  C   UNL     1       1.512   5.598  20.494  0.00  0.00    +0.000 A 
ATOM      9  C   UNL     1       1.534   4.461  19.673  0.00  0.00    +0.000 A 
ATOM     10  C   UNL     1       1.079   3.122  20.177  0.00  0.00    +0.000 C 
ATOM     11  C   UNL     1       1.987   4.589  18.360  0.00  0.00    +0.000 A 
ATOM     12  C   UNL     1       2.427   5.827  17.885  0.00  0.00    +0.000 A 
ATOM     13  C   UNL     1       2.426   6.954  18.714  0.00  0.00    +0.000 A 
ATOM     14  C   UNL     1       2.886   8.276  18.162  0.00  0.00    +0.000 C 
ENDBRANCH   5   7
BRANCH   4  15
ATOM     15  S   UNL     1       0.772   9.527  22.563  0.00  0.00    +0.000 S 
ATOM     16  H   UNL     1       0.337  10.756  22.266  0.00  0.00    +0.000 HD
ENDBRANCH   4  15
ENDBRANCH   1   3
BRANCH   1  17
ATOM     17  C   UNL     1      -0.202  11.767  20.234  0.00  0.00    +0.000 C 
BRANCH  17  21
ATOM     18  N   UNL     1       2.463  14.358  19.645  0.00  0.00    +0.000 NA
ATOM     19  C   UNL     1       1.116  14.755  20.132  0.00  0.00    +0.000 C 
ATOM     20  C   UNL     1      -0.135  14.135  19.427  0.00  0.00    +0.000 C 
ATOM     21  N   UNL     1      -0.049  12.690  19.056  0.00  0.00    +0.000 NA
ATOM     22  C   UNL     1       1.251  12.571  18.375  0.00  0.00    +0.000 C 
ATOM     23  C   UNL     1       2.447  12.929  19.285  0.00  0.00    +0.000 C 
BRANCH  18  25
ATOM     24  C   UNL     1       4.371  14.745  18.053  0.00  0.00    +0.000 C 
ATOM     25  C   UNL     1       2.972  15.132  18.505  0.00  0.00    +0.000 C 
ENDBRANCH  18  25
ENDBRANCH  17  21
BRANCH  17  26
ATOM     26  C   UNL     1      -1.149  12.410  21.270  0.00  0.00    +0.000 A 
ATOM     27  C   UNL     1      -0.883  12.831  22.564  0.00  0.00    +0.000 A 
ATOM     28  C   UNL     1      -2.029  13.379  23.216  0.00  0.00    +0.000 A 
ATOM     29  C   UNL     1      -3.138  13.366  22.402  0.00  0.00    +0.000 A 
ATOM     30  S   UNL     1      -2.797  12.709  20.860  0.00  0.00    +0.000 S 
ENDBRANCH  17  26
ENDBRANCH   1  17
TORSDOF 7
ENDMDL
MODEL 4
REMARK VINA RESULT:      -6.1      4.064      6.959
REMARK  Name = 
REMARK  11 active torsions:
REMARK  status: ('A' for Active; 'I' for Inactive)
REMARK    1  A    between atoms: C_1  and  C_2
REMARK    2  A    between atoms: C_2  and  N_3
REMARK    3  A    between atoms: N_6  and  C_7
REMARK    4  A    between atoms: C_7  and  C_8
REMARK    5  A    between atoms: C_7  and  C_13
REMARK    6  A    between atoms: C_13  and  C_14
REMARK    7  A    between atoms: C_13  and  N_15
REMARK    8  A    between atoms: C_16  and  S_17
REMARK    9  A    between atoms: N_18  and  C_19
REMARK   10  A    between atoms: C_21  and  C_22
REMARK   11  A    between atoms: C_25  and  C_26
REMARK                            x       y       z     vdW  Elec       q    Type
REMARK                         _______ _______ _______ _____ _____    ______ ____
ROOT
ATOM      1  C   UNL     1      -1.717  11.621  18.640  0.00  0.00    +0.000 C 
ATOM      2  C   UNL     1      -1.652  10.102  18.882  0.00  0.00    +0.000 C 
ENDROOT
BRANCH   1   3
ATOM      3  N   UNL     1      -3.159  11.872  18.597  0.00  0.00    +0.000 NA
ATOM      4  C   UNL     1      -3.918  11.603  17.599  0.00  0.00    +0.000 C 
ATOM      5  N   UNL     1      -5.278  11.740  17.630  0.00  0.00    +0.000 N 
ATOM      6  H   UNL     1      -5.729  11.565  16.742  0.00  0.00    +0.000 HD
BRANCH   5   7
ATOM      7  C   UNL     1      -6.119  11.449  18.728  0.00  0.00    +0.000 A 
ATOM      8  C   UNL     1      -6.461  10.133  19.100  0.00  0.00    +0.000 A 
ATOM      9  C   UNL     1      -7.317   9.867  20.178  0.00  0.00    +0.000 A 
ATOM     10  C   UNL     1      -7.713   8.464  20.537  0.00  0.00    +0.000 C 
ATOM     11  C   UNL     1      -7.801  10.938  20.930  0.00  0.00    +0.000 A 
ATOM     12  C   UNL     1      -7.451  12.248  20.597  0.00  0.00    +0.000 A 
ATOM     13  C   UNL     1      -6.617  12.511  19.505  0.00  0.00    +0.000 A 
ATOM     14  C   UNL     1      -6.242  13.934  19.189  0.00  0.00    +0.000 C 
ENDBRANCH   5   7
BRANCH   4  15
ATOM     15  S   UNL     1      -3.376  11.007  16.035  0.00  0.00    +0.000 S 
ATOM     16  H   UNL     1      -3.653  12.103  15.320  0.00  0.00    +0.000 HD
ENDBRANCH   4  15
ENDBRANCH   1   3
BRANCH   1  17
ATOM     17  C   UNL     1      -1.065  12.581  19.747  0.00  0.00    +0.000 C 
BRANCH  17  21
ATOM     18  N   UNL     1       2.132  14.554  19.521  0.00  0.00    +0.000 NA
ATOM     19  C   UNL     1       1.241  14.688  20.703  0.00  0.00    +0.000 C 
ATOM     20  C   UNL     1      -0.294  14.855  20.453  0.00  0.00    +0.000 C 
ATOM     21  N   UNL     1      -0.891  14.026  19.364  0.00  0.00    +0.000 NA
ATOM     22  C   UNL     1       0.015  14.229  18.221  0.00  0.00    +0.000 C 
ATOM     23  C   UNL     1       1.456  13.741  18.494  0.00  0.00    +0.000 C 
BRANCH  18  25
ATOM     24  C   UNL     1       3.464  15.659  17.697  0.00  0.00    +0.000 C 
ATOM     25  C   UNL     1       2.571  15.818  18.916  0.00  0.00    +0.000 C 
ENDBRANCH  18  25
ENDBRANCH  17  21
BRANCH  17  26
ATOM     26  C   UNL     1      -1.945  12.489  21.012  0.00  0.00    +0.000 A 
ATOM     27  C   UNL     1      -3.248  12.919  21.212  0.00  0.00    +0.000 A 
ATOM     28  C   UNL     1      -3.723  12.656  22.532  0.00  0.00    +0.000 A 
ATOM     29  C   UNL     1      -2.772  12.030  23.305  0.00  0.00    +0.000 A 
ATOM     30  S   UNL     1      -1.324  11.750  22.441  0.00  0.00    +0.000 S 
ENDBRANCH  17  26
ENDBRANCH   1  17
TORSDOF 7
ENDMDL
MODEL 5
REMARK VINA RESULT:      -6.1      1.196      2.183
REMARK  Name = 
REMARK  11 active torsions:
REMARK  status: ('A' for Active; 'I' for Inactive)
REMARK    1  A    between atoms: C_1  and  C_2
REMARK    2  A    between atoms: C_2  and  N_3
REMARK    3  A    between atoms: N_6  and  C_7
REMARK    4  A    between atoms: C_7  and  C_8
REMARK    5  A    between atoms: C_7  and  C_13
REMARK    6  A    between atoms: C_13  and  C_14
REMARK    7  A    between atoms: C_13  and  N_15
REMARK    8  A    between atoms: C_16  and  S_17
REMARK    9  A    between atoms: N_18  and  C_19
REMARK   10  A    between atoms: C_21  and  C_22
REMARK   11  A    between atoms: C_25  and  C_26
REMARK                            x       y       z     vdW  Elec       q    Type
REMARK                         _______ _______ _______ _____ _____    ______ ____
ROOT
ATOM      1  C   UNL     1      -1.053  10.324  19.589  0.00  0.00    +0.000 C 
ATOM      2  C   UNL     1      -1.597  10.037  18.178  0.00  0.00    +0.000 C 
ENDROOT
BRANCH   1   3
ATOM      3  N   UNL     1       0.139   9.476  19.646  0.00  0.00    +0.000 NA
ATOM      4  C   UNL     1       0.798   9.213  20.715  0.00  0.00    +0.000 C 
ATOM      5  N   UNL     1       1.837   8.326  20.759  0.00  0.00    +0.000 N 
ATOM      6  H   UNL     1       2.307   8.286  21.653  0.00  0.00    +0.000 HD
BRANCH   5   7
ATOM      7  C   UNL     1       1.917   7.103  20.053  0.00  0.00    +0.000 A 
ATOM      8  C   UNL     1       1.507   5.874  20.607  0.00  0.00    +0.000 A 
ATOM      9  C   UNL     1       1.618   4.669  19.899  0.00  0.00    +0.000 A 
ATOM     10  C   UNL     1       1.223   3.359  20.515  0.00  0.00    +0.000 C 
ATOM     11  C   UNL     1       2.104   4.701  18.592  0.00  0.00    +0.000 A 
ATOM     12  C   UNL     1       2.489   5.912  18.013  0.00  0.00    +0.000 A 
ATOM     13  C   UNL     1       2.400   7.110  18.731  0.00  0.00    +0.000 A 
ATOM     14  C   UNL     1       2.801   8.400  18.068  0.00  0.00    +0.000 C 
ENDBRANCH   5   7
BRANCH   4  15
ATOM     15  S   UNL     1       0.497   9.916  22.299  0.00  0.00    +0.000 S 
ATOM     16  H   UNL     1       0.128   8.793  22.926  0.00  0.00    +0.000 HD
ENDBRANCH   4  15
ENDBRANCH   1   3
BRANCH   1  17
ATOM     17  C   UNL     1      -0.624  11.831  19.930  0.00  0.00    +0.000 C 
BRANCH  17  21
ATOM     18  N   UNL     1       2.244  14.265  19.802  0.00  0.00    +0.000 NA
ATOM     19  C   UNL     1       0.849  14.747  19.978  0.00  0.00    +0.000 C 
ATOM     20  C   UNL     1      -0.260  14.147  19.053  0.00  0.00    +0.000 C 
ATOM     21  N   UNL     1      -0.179  12.682  18.772  0.00  0.00    +0.000 NA
ATOM     22  C   UNL     1       1.225  12.467  18.385  0.00  0.00    +0.000 C 
ATOM     23  C   UNL     1       2.225  12.820  19.510  0.00  0.00    +0.000 C 
BRANCH  18  25
ATOM     24  C   UNL     1       2.591  16.386  18.498  0.00  0.00    +0.000 C 
ATOM     25  C   UNL     1       3.021  14.952  18.762  0.00  0.00    +0.000 C 
ENDBRANCH  18  25
ENDBRANCH  17  21
BRANCH  17  26
ATOM     26  C   UNL     1      -1.825  12.505  20.630  0.00  0.00    +0.000 A 
ATOM     27  C   UNL     1      -3.110  12.720  20.159  0.00  0.00    +0.000 A 
ATOM     28  C   UNL     1      -3.946  13.383  21.109  0.00  0.00    +0.000 A 
ATOM     29  C   UNL     1      -3.276  13.652  22.281  0.00  0.00    +0.000 A 
ATOM     30  S   UNL     1      -1.659  13.099  22.240  0.00  0.00    +0.000 S 
ENDBRANCH  17  26
ENDBRANCH   1  17
TORSDOF 7
ENDMDL
MODEL 6
REMARK VINA RESULT:      -6.1      4.177      7.860
REMARK  Name = 
REMARK  11 active torsions:
REMARK  status: ('A' for Active; 'I' for Inactive)
REMARK    1  A    between atoms: C_1  and  C_2
REMARK    2  A    between atoms: C_2  and  N_3
REMARK    3  A    between atoms: N_6  and  C_7
REMARK    4  A    between atoms: C_7  and  C_8
REMARK    5  A    between atoms: C_7  and  C_13
REMARK    6  A    between atoms: C_13  and  C_14
REMARK    7  A    between atoms: C_13  and  N_15
REMARK    8  A    between atoms: C_16  and  S_17
REMARK    9  A    between atoms: N_18  and  C_19
REMARK   10  A    between atoms: C_21  and  C_22
REMARK   11  A    between atoms: C_25  and  C_26
REMARK                            x       y       z     vdW  Elec       q    Type
REMARK                         _______ _______ _______ _____ _____    ______ ____
ROOT
ATOM      1  C   UNL     1      -1.684  11.646  18.360  0.00  0.00    +0.000 C 
ATOM      2  C   UNL     1      -1.593  10.134  18.631  0.00  0.00    +0.000 C 
ENDROOT
BRANCH   1   3
ATOM      3  N   UNL     1      -3.131  11.873  18.318  0.00  0.00    +0.000 NA
ATOM      4  C   UNL     1      -3.891  11.563  17.332  0.00  0.00    +0.000 C 
ATOM      5  N   UNL     1      -5.252  11.678  17.366  0.00  0.00    +0.000 N 
ATOM      6  H   UNL     1      -5.705  11.471  16.486  0.00  0.00    +0.000 HD
BRANCH   5   7
ATOM      7  C   UNL     1      -6.082  11.405  18.477  0.00  0.00    +0.000 A 
ATOM      8  C   UNL     1      -6.360  10.096  18.919  0.00  0.00    +0.000 A 
ATOM      9  C   UNL     1      -7.206   9.846  20.008  0.00  0.00    +0.000 A 
ATOM     10  C   UNL     1      -7.533   8.447  20.442  0.00  0.00    +0.000 C 
ATOM     11  C   UNL     1      -7.748  10.930  20.700  0.00  0.00    +0.000 A 
ATOM     12  C   UNL     1      -7.462  12.236  20.297  0.00  0.00    +0.000 A 
ATOM     13  C   UNL     1      -6.637  12.482  19.194  0.00  0.00    +0.000 A 
ATOM     14  C   UNL     1      -6.332  13.902  18.802  0.00  0.00    +0.000 C 
ENDBRANCH   5   7
BRANCH   4  15
ATOM     15  S   UNL     1      -3.346  10.932  15.783  0.00  0.00    +0.000 S 
ATOM     16  H   UNL     1      -3.391  12.079  15.096  0.00  0.00    +0.000 HD
ENDBRANCH   4  15
ENDBRANCH   1   3
BRANCH   1  17
ATOM     17  C   UNL     1      -1.045  12.639  19.445  0.00  0.00    +0.000 C 
BRANCH  17  21
ATOM     18  N   UNL     1      -2.027  14.490  22.570  0.00  0.00    +0.000 NA
ATOM     19  C   UNL     1      -0.597  14.349  22.192  0.00  0.00    +0.000 C 
ATOM     20  C   UNL     1      -0.091  12.940  21.739  0.00  0.00    +0.000 C 
ATOM     21  N   UNL     1      -1.007  12.147  20.866  0.00  0.00    +0.000 NA
ATOM     22  C   UNL     1      -2.309  12.219  21.551  0.00  0.00    +0.000 C 
ATOM     23  C   UNL     1      -2.851  13.662  21.672  0.00  0.00    +0.000 C 
BRANCH  18  25
ATOM     24  C   UNL     1      -3.741  14.560  24.409  0.00  0.00    +0.000 C 
ATOM     25  C   UNL     1      -2.347  14.149  23.962  0.00  0.00    +0.000 C 
ENDBRANCH  18  25
ENDBRANCH  17  21
BRANCH  17  26
ATOM     26  C   UNL     1       0.391  12.967  18.978  0.00  0.00    +0.000 A 
ATOM     27  C   UNL     1       1.454  12.113  18.734  0.00  0.00    +0.000 A 
ATOM     28  C   UNL     1       2.633  12.800  18.315  0.00  0.00    +0.000 A 
ATOM     29  C   UNL     1       2.437  14.161  18.245  0.00  0.00    +0.000 A 
ATOM     30  S   UNL     1       0.842  14.603  18.671  0.00  0.00    +0.000 S 
ENDBRANCH  17  26
ENDBRANCH   1  17
TORSDOF 7
ENDMDL
MODEL 7
REMARK VINA RESULT:      -6.0      2.627      7.336
REMARK  Name = 
REMARK  11 active torsions:
REMARK  status: ('A' for Active; 'I' for Inactive)
REMARK    1  A    between atoms: C_1  and  C_2
REMARK    2  A    between atoms: C_2  and  N_3
REMARK    3  A    between atoms: N_6  and  C_7
REMARK    4  A    between atoms: C_7  and  C_8
REMARK    5  A    between atoms: C_7  and  C_13
REMARK    6  A    between atoms: C_13  and  C_14
REMARK    7  A    between atoms: C_13  and  N_15
REMARK    8  A    between atoms: C_16  and  S_17
REMARK    9  A    between atoms: N_18  and  C_19
REMARK   10  A    between atoms: C_21  and  C_22
REMARK   11  A    between atoms: C_25  and  C_26
REMARK                            x       y       z     vdW  Elec       q    Type
REMARK                         _______ _______ _______ _____ _____    ______ ____
ROOT
ATOM      1  C   UNL     1       1.671   9.041  18.920  0.00  0.00    +0.000 C 
ATOM      2  C   UNL     1       1.853   8.749  17.420  0.00  0.00    +0.000 C 
ENDROOT
BRANCH   1   3
ATOM      3  N   UNL     1       0.548   9.980  18.925  0.00  0.00    +0.000 NA
ATOM      4  C   UNL     1       0.635  11.225  18.632  0.00  0.00    +0.000 C 
ATOM      5  N   UNL     1      -0.450  12.052  18.532  0.00  0.00    +0.000 N 
ATOM      6  H   UNL     1      -0.214  13.022  18.372  0.00  0.00    +0.000 HD
BRANCH   5   7
ATOM      7  C   UNL     1      -1.711  11.708  17.993  0.00  0.00    +0.000 A 
ATOM      8  C   UNL     1      -1.866  11.147  16.710  0.00  0.00    +0.000 A 
ATOM      9  C   UNL     1      -3.128  10.836  16.185  0.00  0.00    +0.000 A 
ATOM     10  C   UNL     1      -3.286  10.283  14.799  0.00  0.00    +0.000 C 
ATOM     11  C   UNL     1      -4.256  11.046  16.980  0.00  0.00    +0.000 A 
ATOM     12  C   UNL     1      -4.122  11.574  18.266  0.00  0.00    +0.000 A 
ATOM     13  C   UNL     1      -2.863  11.906  18.777  0.00  0.00    +0.000 A 
ATOM     14  C   UNL     1      -2.754  12.451  20.175  0.00  0.00    +0.000 C 
ENDBRANCH   5   7
BRANCH   4  15
ATOM     15  S   UNL     1       2.127  12.093  18.296  0.00  0.00    +0.000 S 
ATOM     16  H   UNL     1       2.884  11.518  19.237  0.00  0.00    +0.000 HD
ENDBRANCH   4  15
ENDBRANCH   1   3
BRANCH   1  17
ATOM     17  C   UNL     1       1.311   7.809  19.882  0.00  0.00    +0.000 C 
BRANCH  17  21
ATOM     18  N   UNL     1       1.733   4.183  18.968  0.00  0.00    +0.000 NA
ATOM     19  C   UNL     1       1.253   4.572  20.320  0.00  0.00    +0.000 C 
ATOM     20  C   UNL     1       2.009   5.718  21.068  0.00  0.00    +0.000 C 
ATOM     21  N   UNL     1       2.443   6.886  20.243  0.00  0.00    +0.000 NA
ATOM     22  C   UNL     1       3.104   6.276  19.077  0.00  0.00    +0.000 C 
ATOM     23  C   UNL     1       2.157   5.390  18.237  0.00  0.00    +0.000 C 
BRANCH  18  25
ATOM     24  C   UNL     1       3.337   2.857  17.558  0.00  0.00    +0.000 C 
ATOM     25  C   UNL     1       2.827   3.203  18.947  0.00  0.00    +0.000 C 
ENDBRANCH  18  25
ENDBRANCH  17  21
BRANCH  17  26
ATOM     26  C   UNL     1       0.697   8.396  21.171  0.00  0.00    +0.000 A 
ATOM     27  C   UNL     1      -0.612   8.351  21.623  0.00  0.00    +0.000 A 
ATOM     28  C   UNL     1      -0.792   9.017  22.873  0.00  0.00    +0.000 A 
ATOM     29  C   UNL     1       0.386   9.551  23.344  0.00  0.00    +0.000 A 
ATOM     30  S   UNL     1       1.698   9.240  22.294  0.00  0.00    +0.000 S 
ENDBRANCH  17  26
ENDBRANCH   1  17
TORSDOF 7
ENDMDL
MODEL 8
REMARK VINA RESULT:      -5.7      4.149      7.497
REMARK  Name = 
REMARK  11 active torsions:
REMARK  status: ('A' for Active; 'I' for Inactive)
REMARK    1  A    between atoms: C_1  and  C_2
REMARK    2  A    between atoms: C_2  and  N_3
REMARK    3  A    between atoms: N_6  and  C_7
REMARK    4  A    between atoms: C_7  and  C_8
REMARK    5  A    between atoms: C_7  and  C_13
REMARK    6  A    between atoms: C_13  and  C_14
REMARK    7  A    between atoms: C_13  and  N_15
REMARK    8  A    between atoms: C_16  and  S_17
REMARK    9  A    between atoms: N_18  and  C_19
REMARK   10  A    between atoms: C_21  and  C_22
REMARK   11  A    between atoms: C_25  and  C_26
REMARK                            x       y       z     vdW  Elec       q    Type
REMARK                         _______ _______ _______ _____ _____    ______ ____
ROOT
ATOM      1  C   UNL     1      -2.326  14.849  22.330  0.00  0.00    +0.000 C 
ATOM      2  C   UNL     1      -1.550  13.893  23.253  0.00  0.00    +0.000 C 
ENDROOT
BRANCH   1   3
ATOM      3  N   UNL     1      -2.015  14.325  20.999  0.00  0.00    +0.000 NA
ATOM      4  C   UNL     1      -1.138  14.822  20.205  0.00  0.00    +0.000 C 
ATOM      5  N   UNL     1      -0.786  14.244  19.017  0.00  0.00    +0.000 N 
ATOM      6  H   UNL     1      -0.141  14.795  18.467  0.00  0.00    +0.000 HD
BRANCH   5   7
ATOM      7  C   UNL     1      -0.655  12.857  18.773  0.00  0.00    +0.000 A 
ATOM      8  C   UNL     1      -1.719  12.061  18.305  0.00  0.00    +0.000 A 
ATOM      9  C   UNL     1      -1.575  10.683  18.093  0.00  0.00    +0.000 A 
ATOM     10  C   UNL     1      -2.727   9.835  17.638  0.00  0.00    +0.000 C 
ATOM     11  C   UNL     1      -0.326  10.098  18.309  0.00  0.00    +0.000 A 
ATOM     12  C   UNL     1       0.749  10.874  18.746  0.00  0.00    +0.000 A 
ATOM     13  C   UNL     1       0.595  12.245  18.980  0.00  0.00    +0.000 A 
ATOM     14  C   UNL     1       1.781  13.054  19.429  0.00  0.00    +0.000 C 
ENDBRANCH   5   7
BRANCH   4  15
ATOM     15  S   UNL     1      -0.229  16.301  20.485  0.00  0.00    +0.000 S 
ATOM     16  H   UNL     1       0.004  16.614  19.206  0.00  0.00    +0.000 HD
ENDBRANCH   4  15
ENDBRANCH   1   3
BRANCH   1  17
ATOM     17  C   UNL     1      -3.920  14.913  22.493  0.00  0.00    +0.000 C 
BRANCH  17  21
ATOM     18  N   UNL     1      -6.865  13.052  21.069  0.00  0.00    +0.000 NA
ATOM     19  C   UNL     1      -7.040  13.986  22.211  0.00  0.00    +0.000 C 
ATOM     20  C   UNL     1      -6.023  13.900  23.396  0.00  0.00    +0.000 C 
ATOM     21  N   UNL     1      -4.590  13.680  23.036  0.00  0.00    +0.000 NA
ATOM     22  C   UNL     1      -4.627  12.559  22.082  0.00  0.00    +0.000 C 
ATOM     23  C   UNL     1      -5.426  12.880  20.799  0.00  0.00    +0.000 C 
BRANCH  18  25
ATOM     24  C   UNL     1      -7.247  10.772  20.080  0.00  0.00    +0.000 C 
ATOM     25  C   UNL     1      -7.480  11.729  21.238  0.00  0.00    +0.000 C 
ENDBRANCH  18  25
ENDBRANCH  17  21
BRANCH  17  26
ATOM     26  C   UNL     1      -4.242  16.116  23.407  0.00  0.00    +0.000 A 
ATOM     27  C   UNL     1      -3.959  16.301  24.751  0.00  0.00    +0.000 A 
ATOM     28  C   UNL     1      -4.423  17.556  25.248  0.00  0.00    +0.000 A 
ATOM     29  C   UNL     1      -5.045  18.298  24.269  0.00  0.00    +0.000 A 
ATOM     30  S   UNL     1      -5.058  17.492  22.762  0.00  0.00    +0.000 S 
ENDBRANCH  17  26
ENDBRANCH   1  17
TORSDOF 7
ENDMDL
MODEL 9
REMARK VINA RESULT:      -5.6      5.427      9.170
REMARK  Name = 
REMARK  11 active torsions:
REMARK  status: ('A' for Active; 'I' for Inactive)
REMARK    1  A    between atoms: C_1  and  C_2
REMARK    2  A    between atoms: C_2  and  N_3
REMARK    3  A    between atoms: N_6  and  C_7
REMARK    4  A    between atoms: C_7  and  C_8
REMARK    5  A    between atoms: C_7  and  C_13
REMARK    6  A    between atoms: C_13  and  C_14
REMARK    7  A    between atoms: C_13  and  N_15
REMARK    8  A    between atoms: C_16  and  S_17
REMARK    9  A    between atoms: N_18  and  C_19
REMARK   10  A    between atoms: C_21  and  C_22
REMARK   11  A    between atoms: C_25  and  C_26
REMARK                            x       y       z     vdW  Elec       q    Type
REMARK                         _______ _______ _______ _____ _____    ______ ____
ROOT
ATOM      1  C   UNL     1      -2.935  12.514  20.395  0.00  0.00    +0.000 C 
ATOM      2  C   UNL     1      -1.901  13.636  20.191  0.00  0.00    +0.000 C 
ENDROOT
BRANCH   1   3
ATOM      3  N   UNL     1      -3.584  12.907  21.648  0.00  0.00    +0.000 NA
ATOM      4  C   UNL     1      -3.132  12.645  22.819  0.00  0.00    +0.000 C 
ATOM      5  N   UNL     1      -3.696  13.124  23.968  0.00  0.00    +0.000 N 
ATOM      6  H   UNL     1      -3.274  12.765  24.814  0.00  0.00    +0.000 HD
BRANCH   5   7
ATOM      7  C   UNL     1      -4.254  14.410  24.147  0.00  0.00    +0.000 A 
ATOM      8  C   UNL     1      -5.545  14.752  23.698  0.00  0.00    +0.000 A 
ATOM      9  C   UNL     1      -6.071  16.041  23.864  0.00  0.00    +0.000 A 
ATOM     10  C   UNL     1      -7.429  16.407  23.340  0.00  0.00    +0.000 C 
ATOM     11  C   UNL     1      -5.306  16.995  24.536  0.00  0.00    +0.000 A 
ATOM     12  C   UNL     1      -4.035  16.670  25.014  0.00  0.00    +0.000 A 
ATOM     13  C   UNL     1      -3.505  15.389  24.825  0.00  0.00    +0.000 A 
ATOM     14  C   UNL     1      -2.141  15.067  25.375  0.00  0.00    +0.000 C 
ENDBRANCH   5   7
BRANCH   4  15
ATOM     15  S   UNL     1      -1.723  11.652  23.170  0.00  0.00    +0.000 S 
ATOM     16  H   UNL     1      -2.184  10.502  22.665  0.00  0.00    +0.000 HD
ENDBRANCH   4  15
ENDBRANCH   1   3
BRANCH   1  17
ATOM     17  C   UNL     1      -4.065  12.328  19.272  0.00  0.00    +0.000 C 
BRANCH  17  21
ATOM     18  N   UNL     1      -3.081  11.299  15.788  0.00  0.00    +0.000 NA
ATOM     19  C   UNL     1      -4.506  11.553  16.129  0.00  0.00    +0.000 C 
ATOM     20  C   UNL     1      -5.068  10.935  17.451  0.00  0.00    +0.000 C 
ATOM     21  N   UNL     1      -4.168  10.965  18.643  0.00  0.00    +0.000 NA
ATOM     22  C   UNL     1      -2.885  10.449  18.136  0.00  0.00    +0.000 C 
ATOM     23  C   UNL     1      -2.275  11.328  17.021  0.00  0.00    +0.000 C 
BRANCH  18  25
ATOM     24  C   UNL     1      -3.544   9.907  13.747  0.00  0.00    +0.000 C 
ATOM     25  C   UNL     1      -2.819  10.042  15.075  0.00  0.00    +0.000 C 
ENDBRANCH  18  25
ENDBRANCH  17  21
BRANCH  17  26
ATOM     26  C   UNL     1      -5.419  12.699  19.915  0.00  0.00    +0.000 A 
ATOM     27  C   UNL     1      -6.257  11.931  20.708  0.00  0.00    +0.000 A 
ATOM     28  C   UNL     1      -7.433  12.632  21.114  0.00  0.00    +0.000 A 
ATOM     29  C   UNL     1      -7.460  13.917  20.624  0.00  0.00    +0.000 A 
ATOM     30  S   UNL     1      -6.073  14.279  19.692  0.00  0.00    +0.000 S 
ENDBRANCH  17  26
ENDBRANCH   1  17
TORSDOF 7
ENDMDL
