MODEL 1
REMARK VINA RESULT:      -6.8      0.000      0.000
REMARK  Name = 
REMARK  8 active torsions:
REMARK  status: ('A' for Active; 'I' for Inactive)
REMARK    1  A    between atoms: C_1  and  C_2
REMARK    2  A    between atoms: C_4  and  C_5
REMARK    3  A    between atoms: C_6  and  N_7
REMARK    4  A    between atoms: C_8  and  C_10
REMARK    5  A    between atoms: C_10  and  C_11
REMARK    6  A    between atoms: C_11  and  C_12
REMARK    7  A    between atoms: C_12  and  C_13
REMARK    8  A    between atoms: C_13  and  O_15
REMARK                            x       y       z     vdW  Elec       q    Type
REMARK                         _______ _______ _______ _____ _____    ______ ____
ROOT
ATOM      1  N   UNL     1       4.905   4.385  16.295  0.00  0.00    +0.000 N 
ATOM      2  C   UNL     1       6.285   4.407  16.278  0.00  0.00    +0.000 C 
ATOM      3  O   UNL     1       7.051   4.471  17.230  0.00  0.00    +0.000 OA
ATOM      4  H   UNL     1       4.452   4.405  15.380  0.00  0.00    +0.000 HD
ENDROOT
BRANCH   1  10
ATOM      5  C   UNL     1       1.121   4.844  20.658  0.00  0.00    +0.000 C 
ATOM      6  C   UNL     1       2.101   4.717  19.529  0.00  0.00    +0.000 A 
ATOM      7  C   UNL     1       2.484   3.456  19.078  0.00  0.00    +0.000 A 
ATOM      8  C   UNL     1       3.405   3.263  18.018  0.00  0.00    +0.000 A 
ATOM      9  C   UNL     1       3.672   1.825  17.693  0.00  0.00    +0.000 C 
ATOM     10  C   UNL     1       3.971   4.383  17.379  0.00  0.00    +0.000 A 
ATOM     11  C   UNL     1       3.567   5.665  17.851  0.00  0.00    +0.000 A 
ATOM     12 CL   UNL     1       4.198   7.120  17.135  0.00  0.00    +0.000 Cl
ATOM     13  C   UNL     1       2.651   5.832  18.905  0.00  0.00    +0.000 A 
ENDBRANCH   1  10
BRANCH   2  14
ATOM     14  C   UNL     1       6.898   4.296  14.895  0.00  0.00    +0.000 C 
BRANCH  14  15
ATOM     15  C   UNL     1       5.806   4.053  13.843  0.00  0.00    +0.000 C 
BRANCH  15  16
ATOM     16  C   UNL     1       6.338   3.596  12.481  0.00  0.00    +0.000 C 
BRANCH  16  17
ATOM     17  C   UNL     1       5.376   2.692  11.746  0.00  0.00    +0.000 C 
ATOM     18  O   UNL     1       4.267   3.011  11.351  0.00  0.00    +0.000 OA
BRANCH  17  19
ATOM     19  O   UNL     1       5.870   1.445  11.575  0.00  0.00    +0.000 OA
ATOM     20  H   UNL     1       5.236   0.735  11.791  0.00  0.00    +0.000 HD
ENDBRANCH  17  19
ENDBRANCH  16  17
ENDBRANCH  15  16
ENDBRANCH  14  15
ENDBRANCH   2  14
TORSDOF 6
ENDMDL
MODEL 2
REMARK VINA RESULT:      -6.7      3.557      6.281
REMARK  Name = 
REMARK  8 active torsions:
REMARK  status: ('A' for Active; 'I' for Inactive)
REMARK    1  A    between atoms: C_1  and  C_2
REMARK    2  A    between atoms: C_4  and  C_5
REMARK    3  A    between atoms: C_6  and  N_7
REMARK    4  A    between atoms: C_8  and  C_10
REMARK    5  A    between atoms: C_10  and  C_11
REMARK    6  A    between atoms: C_11  and  C_12
REMARK    7  A    between atoms: C_12  and  C_13
REMARK    8  A    between atoms: C_13  and  O_15
REMARK                            x       y       z     vdW  Elec       q    Type
REMARK                         _______ _______ _______ _____ _____    ______ ____
ROOT
ATOM      1  N   UNL     1       4.358   4.572  19.185  0.00  0.00    +0.000 N 
ATOM      2  C   UNL     1       3.317   5.352  19.649  0.00  0.00    +0.000 C 
ATOM      3  O   UNL     1       2.863   6.377  19.156  0.00  0.00    +0.000 OA
ATOM      4  H   UNL     1       4.630   3.795  19.788  0.00  0.00    +0.000 HD
ENDROOT
BRANCH   1  10
ATOM      5  C   UNL     1       7.280   4.850  14.190  0.00  0.00    +0.000 C 
ATOM      6  C   UNL     1       6.530   4.780  15.488  0.00  0.00    +0.000 A 
ATOM      7  C   UNL     1       7.141   5.197  16.669  0.00  0.00    +0.000 A 
ATOM      8  C   UNL     1       6.492   5.157  17.928  0.00  0.00    +0.000 A 
ATOM      9  C   UNL     1       7.331   5.656  19.065  0.00  0.00    +0.000 C 
ATOM     10  C   UNL     1       5.170   4.678  18.012  0.00  0.00    +0.000 A 
ATOM     11  C   UNL     1       4.560   4.259  16.795  0.00  0.00    +0.000 A 
ATOM     12 CL   UNL     1       2.929   3.653  16.777  0.00  0.00    +0.000 Cl
ATOM     13  C   UNL     1       5.224   4.307  15.557  0.00  0.00    +0.000 A 
ENDBRANCH   1  10
BRANCH   2  14
ATOM     14  C   UNL     1       2.648   4.824  20.904  0.00  0.00    +0.000 C 
BRANCH  14  15
ATOM     15  C   UNL     1       1.241   4.302  20.582  0.00  0.00    +0.000 C 
BRANCH  15  16
ATOM     16  C   UNL     1       1.112   2.777  20.628  0.00  0.00    +0.000 C 
BRANCH  16  17
ATOM     17  C   UNL     1       1.102   2.144  19.256  0.00  0.00    +0.000 C 
ATOM     18  O   UNL     1       0.194   2.227  18.446  0.00  0.00    +0.000 OA
BRANCH  17  19
ATOM     19  O   UNL     1       2.228   1.437  19.007  0.00  0.00    +0.000 OA
ATOM     20  H   UNL     1       2.920   1.948  18.545  0.00  0.00    +0.000 HD
ENDBRANCH  17  19
ENDBRANCH  16  17
ENDBRANCH  15  16
ENDBRANCH  14  15
ENDBRANCH   2  14
TORSDOF 6
ENDMDL
MODEL 3
REMARK VINA RESULT:      -6.7      2.602      3.507
REMARK  Name = 
REMARK  8 active torsions:
REMARK  status: ('A' for Active; 'I' for Inactive)
REMARK    1  A    between atoms: C_1  and  C_2
REMARK    2  A    between atoms: C_4  and  C_5
REMARK    3  A    between atoms: C_6  and  N_7
REMARK    4  A    between atoms: C_8  and  C_10
REMARK    5  A    between atoms: C_10  and  C_11
REMARK    6  A    between atoms: C_11  and  C_12
REMARK    7  A    between atoms: C_12  and  C_13
REMARK    8  A    between atoms: C_13  and  O_15
REMARK                            x       y       z     vdW  Elec       q    Type
REMARK                         _______ _______ _______ _____ _____    ______ ____
ROOT
ATOM      1  N   UNL     1       3.638   5.417  17.622  0.00  0.00    +0.000 N 
ATOM      2  C   UNL     1       4.911   5.920  17.436  0.00  0.00    +0.000 C 
ATOM      3  O   UNL     1       5.819   5.999  18.254  0.00  0.00    +0.000 OA
ATOM      4  H   UNL     1       3.006   5.512  16.827  0.00  0.00    +0.000 HD
ENDROOT
BRANCH   1  10
ATOM      5  C   UNL     1       1.260   2.569  22.071  0.00  0.00    +0.000 C 
ATOM      6  C   UNL     1       1.872   3.313  20.921  0.00  0.00    +0.000 A 
ATOM      7  C   UNL     1       1.807   4.704  20.879  0.00  0.00    +0.000 A 
ATOM      8  C   UNL     1       2.362   5.471  19.824  0.00  0.00    +0.000 A 
ATOM      9  C   UNL     1       2.181   6.950  19.980  0.00  0.00    +0.000 C 
ATOM     10  C   UNL     1       3.015   4.816  18.761  0.00  0.00    +0.000 A 
ATOM     11  C   UNL     1       3.076   3.394  18.822  0.00  0.00    +0.000 A 
ATOM     12 CL   UNL     1       3.859   2.480  17.566  0.00  0.00    +0.000 Cl
ATOM     13  C   UNL     1       2.516   2.656  19.879  0.00  0.00    +0.000 A 
ENDBRANCH   1  10
BRANCH   2  14
ATOM     14  C   UNL     1       5.203   6.384  16.021  0.00  0.00    +0.000 C 
BRANCH  14  15
ATOM     15  C   UNL     1       4.925   5.254  15.019  0.00  0.00    +0.000 C 
BRANCH  15  16
ATOM     16  C   UNL     1       6.066   4.243  14.882  0.00  0.00    +0.000 C 
BRANCH  16  17
ATOM     17  C   UNL     1       7.426   4.851  15.133  0.00  0.00    +0.000 C 
ATOM     18  O   UNL     1       8.051   5.537  14.342  0.00  0.00    +0.000 OA
BRANCH  17  19
ATOM     19  O   UNL     1       7.912   4.539  16.356  0.00  0.00    +0.000 OA
ATOM     20  H   UNL     1       7.445   4.981  17.091  0.00  0.00    +0.000 HD
ENDBRANCH  17  19
ENDBRANCH  16  17
ENDBRANCH  15  16
ENDBRANCH  14  15
ENDBRANCH   2  14
TORSDOF 6
ENDMDL
MODEL 4
REMARK VINA RESULT:      -6.6      3.525      4.986
REMARK  Name = 
REMARK  8 active torsions:
REMARK  status: ('A' for Active; 'I' for Inactive)
REMARK    1  A    between atoms: C_1  and  C_2
REMARK    2  A    between atoms: C_4  and  C_5
REMARK    3  A    between atoms: C_6  and  N_7
REMARK    4  A    between atoms: C_8  and  C_10
REMARK    5  A    between atoms: C_10  and  C_11
REMARK    6  A    between atoms: C_11  and  C_12
REMARK    7  A    between atoms: C_12  and  C_13
REMARK    8  A    between atoms: C_13  and  O_15
REMARK                            x       y       z     vdW  Elec       q    Type
REMARK                         _______ _______ _______ _____ _____    ______ ____
ROOT
ATOM      1  N   UNL     1       4.784   6.089  18.019  0.00  0.00    +0.000 N 
ATOM      2  C   UNL     1       5.138   6.851  16.923  0.00  0.00    +0.000 C 
ATOM      3  O   UNL     1       4.584   6.910  15.834  0.00  0.00    +0.000 OA
ATOM      4  H   UNL     1       5.427   6.129  18.810  0.00  0.00    +0.000 HD
ENDROOT
BRANCH   1  10
ATOM      5  C   UNL     1       0.545   2.189  18.639  0.00  0.00    +0.000 C 
ATOM      6  C   UNL     1       1.638   3.205  18.482  0.00  0.00    +0.000 A 
ATOM      7  C   UNL     1       1.569   4.414  19.171  0.00  0.00    +0.000 A 
ATOM      8  C   UNL     1       2.565   5.417  19.069  0.00  0.00    +0.000 A 
ATOM      9  C   UNL     1       2.293   6.636  19.896  0.00  0.00    +0.000 C 
ATOM     10  C   UNL     1       3.683   5.202  18.240  0.00  0.00    +0.000 A 
ATOM     11  C   UNL     1       3.740   3.960  17.546  0.00  0.00    +0.000 A 
ATOM     12 CL   UNL     1       5.075   3.583  16.497  0.00  0.00    +0.000 Cl
ATOM     13  C   UNL     1       2.739   2.979  17.662  0.00  0.00    +0.000 A 
ENDBRANCH   1  10
BRANCH   2  14
ATOM     14  C   UNL     1       6.344   7.745  17.143  0.00  0.00    +0.000 C 
BRANCH  14  15
ATOM     15  C   UNL     1       7.614   6.899  17.316  0.00  0.00    +0.000 C 
BRANCH  15  16
ATOM     16  C   UNL     1       8.118   6.813  18.759  0.00  0.00    +0.000 C 
BRANCH  16  17
ATOM     17  C   UNL     1       7.797   5.492  19.419  0.00  0.00    +0.000 C 
ATOM     18  O   UNL     1       7.198   4.567  18.894  0.00  0.00    +0.000 OA
BRANCH  17  19
ATOM     19  O   UNL     1       8.236   5.433  20.696  0.00  0.00    +0.000 OA
ATOM     20  H   UNL     1       7.649   5.878  21.337  0.00  0.00    +0.000 HD
ENDBRANCH  17  19
ENDBRANCH  16  17
ENDBRANCH  15  16
ENDBRANCH  14  15
ENDBRANCH   2  14
TORSDOF 6
ENDMDL
MODEL 5
REMARK VINA RESULT:      -6.6      1.099      1.234
REMARK  Name = 
REMARK  8 active torsions:
REMARK  status: ('A' for Active; 'I' for Inactive)
REMARK    1  A    between atoms: C_1  and  C_2
REMARK    2  A    between atoms: C_4  and  C_5
REMARK    3  A    between atoms: C_6  and  N_7
REMARK    4  A    between atoms: C_8  and  C_10
REMARK    5  A    between atoms: C_10  and  C_11
REMARK    6  A    between atoms: C_11  and  C_12
REMARK    7  A    between atoms: C_12  and  C_13
REMARK    8  A    between atoms: C_13  and  O_15
REMARK                            x       y       z     vdW  Elec       q    Type
REMARK                         _______ _______ _______ _____ _____    ______ ____
ROOT
ATOM      1  N   UNL     1       3.996   4.326  16.843  0.00  0.00    +0.000 N 
ATOM      2  C   UNL     1       5.326   4.571  16.560  0.00  0.00    +0.000 C 
ATOM      3  O   UNL     1       6.286   4.492  17.316  0.00  0.00    +0.000 OA
ATOM      4  H   UNL     1       3.341   4.524  16.086  0.00  0.00    +0.000 HD
ENDROOT
BRANCH   1  10
ATOM      5  C   UNL     1       1.220   2.956  21.739  0.00  0.00    +0.000 C 
ATOM      6  C   UNL     1       1.943   3.303  20.471  0.00  0.00    +0.000 A 
ATOM      7  C   UNL     1       2.604   2.310  19.753  0.00  0.00    +0.000 A 
ATOM      8  C   UNL     1       3.306   2.568  18.548  0.00  0.00    +0.000 A 
ATOM      9  C   UNL     1       3.942   1.356  17.939  0.00  0.00    +0.000 C 
ATOM     10  C   UNL     1       3.349   3.880  18.038  0.00  0.00    +0.000 A 
ATOM     11  C   UNL     1       2.665   4.882  18.783  0.00  0.00    +0.000 A 
ATOM     12 CL   UNL     1       2.647   6.537  18.247  0.00  0.00    +0.000 Cl
ATOM     13  C   UNL     1       1.975   4.603  19.976  0.00  0.00    +0.000 A 
ENDBRANCH   1  10
BRANCH   2  14
ATOM     14  C   UNL     1       5.603   4.940  15.115  0.00  0.00    +0.000 C 
BRANCH  14  15
ATOM     15  C   UNL     1       6.201   3.744  14.361  0.00  0.00    +0.000 C 
BRANCH  15  16
ATOM     16  C   UNL     1       6.366   3.970  12.856  0.00  0.00    +0.000 C 
BRANCH  16  17
ATOM     17  C   UNL     1       5.482   3.070  12.024  0.00  0.00    +0.000 C 
ATOM     18  O   UNL     1       4.367   3.354  11.617  0.00  0.00    +0.000 OA
BRANCH  17  19
ATOM     19  O   UNL     1       6.055   1.871  11.775  0.00  0.00    +0.000 OA
ATOM     20  H   UNL     1       6.724   1.609  12.437  0.00  0.00    +0.000 HD
ENDBRANCH  17  19
ENDBRANCH  16  17
ENDBRANCH  15  16
ENDBRANCH  14  15
ENDBRANCH   2  14
TORSDOF 6
ENDMDL
MODEL 6
REMARK VINA RESULT:      -6.6      3.681      6.617
REMARK  Name = 
REMARK  8 active torsions:
REMARK  status: ('A' for Active; 'I' for Inactive)
REMARK    1  A    between atoms: C_1  and  C_2
REMARK    2  A    between atoms: C_4  and  C_5
REMARK    3  A    between atoms: C_6  and  N_7
REMARK    4  A    between atoms: C_8  and  C_10
REMARK    5  A    between atoms: C_10  and  C_11
REMARK    6  A    between atoms: C_11  and  C_12
REMARK    7  A    between atoms: C_12  and  C_13
REMARK    8  A    between atoms: C_13  and  O_15
REMARK                            x       y       z     vdW  Elec       q    Type
REMARK                         _______ _______ _______ _____ _____    ______ ____
ROOT
ATOM      1  N   UNL     1       4.114   4.791  19.159  0.00  0.00    +0.000 N 
ATOM      2  C   UNL     1       3.182   5.711  19.597  0.00  0.00    +0.000 C 
ATOM      3  O   UNL     1       2.900   6.794  19.102  0.00  0.00    +0.000 OA
ATOM      4  H   UNL     1       4.248   3.978  19.762  0.00  0.00    +0.000 HD
ENDROOT
BRANCH   1  10
ATOM      5  C   UNL     1       7.239   4.606  14.284  0.00  0.00    +0.000 C 
ATOM      6  C   UNL     1       6.436   4.655  15.551  0.00  0.00    +0.000 A 
ATOM      7  C   UNL     1       7.009   5.154  16.719  0.00  0.00    +0.000 A 
ATOM      8  C   UNL     1       6.310   5.230  17.950  0.00  0.00    +0.000 A 
ATOM      9  C   UNL     1       7.114   5.801  19.077  0.00  0.00    +0.000 C 
ATOM     10  C   UNL     1       4.974   4.785  18.017  0.00  0.00    +0.000 A 
ATOM     11  C   UNL     1       4.404   4.281  16.813  0.00  0.00    +0.000 A 
ATOM     12 CL   UNL     1       2.762   3.708  16.776  0.00  0.00    +0.000 Cl
ATOM     13  C   UNL     1       5.118   4.216  15.604  0.00  0.00    +0.000 A 
ENDBRANCH   1  10
BRANCH   2  14
ATOM     14  C   UNL     1       2.399   5.277  20.822  0.00  0.00    +0.000 C 
BRANCH  14  15
ATOM     15  C   UNL     1       1.098   4.576  20.405  0.00  0.00    +0.000 C 
BRANCH  15  16
ATOM     16  C   UNL     1       1.017   3.105  20.822  0.00  0.00    +0.000 C 
BRANCH  16  17
ATOM     17  C   UNL     1       2.375   2.465  20.992  0.00  0.00    +0.000 C 
ATOM     18  O   UNL     1       2.938   2.273  22.058  0.00  0.00    +0.000 OA
BRANCH  17  19
ATOM     19  O   UNL     1       2.937   2.126  19.810  0.00  0.00    +0.000 OA
ATOM     20  H   UNL     1       2.921   2.841  19.146  0.00  0.00    +0.000 HD
ENDBRANCH  17  19
ENDBRANCH  16  17
ENDBRANCH  15  16
ENDBRANCH  14  15
ENDBRANCH   2  14
TORSDOF 6
ENDMDL
MODEL 7
REMARK VINA RESULT:      -6.5      1.289      2.117
REMARK  Name = 
REMARK  8 active torsions:
REMARK  status: ('A' for Active; 'I' for Inactive)
REMARK    1  A    between atoms: C_1  and  C_2
REMARK    2  A    between atoms: C_4  and  C_5
REMARK    3  A    between atoms: C_6  and  N_7
REMARK    4  A    between atoms: C_8  and  C_10
REMARK    5  A    between atoms: C_10  and  C_11
REMARK    6  A    between atoms: C_11  and  C_12
REMARK    7  A    between atoms: C_12  and  C_13
REMARK    8  A    between atoms: C_13  and  O_15
REMARK                            x       y       z     vdW  Elec       q    Type
REMARK                         _______ _______ _______ _____ _____    ______ ____
ROOT
ATOM      1  N   UNL     1       4.846   4.730  16.237  0.00  0.00    +0.000 N 
ATOM      2  C   UNL     1       6.226   4.783  16.204  0.00  0.00    +0.000 C 
ATOM      3  O   UNL     1       6.998   4.960  17.137  0.00  0.00    +0.000 OA
ATOM      4  H   UNL     1       4.386   4.647  15.330  0.00  0.00    +0.000 HD
ENDROOT
BRANCH   1  10
ATOM      5  C   UNL     1       1.119   4.602  20.671  0.00  0.00    +0.000 C 
ATOM      6  C   UNL     1       2.083   4.643  19.522  0.00  0.00    +0.000 A 
ATOM      7  C   UNL     1       2.498   5.868  19.005  0.00  0.00    +0.000 A 
ATOM      8  C   UNL     1       3.406   5.981  17.922  0.00  0.00    +0.000 A 
ATOM      9  C   UNL     1       3.719   7.393  17.530  0.00  0.00    +0.000 C 
ATOM     10  C   UNL     1       3.922   4.814  17.326  0.00  0.00    +0.000 A 
ATOM     11  C   UNL     1       3.489   3.570  17.868  0.00  0.00    +0.000 A 
ATOM     12 CL   UNL     1       4.063   2.063  17.215  0.00  0.00    +0.000 Cl
ATOM     13  C   UNL     1       2.587   3.483  18.944  0.00  0.00    +0.000 A 
ENDBRANCH   1  10
BRANCH   2  14
ATOM     14  C   UNL     1       6.830   4.549  14.832  0.00  0.00    +0.000 C 
BRANCH  14  15
ATOM     15  C   UNL     1       5.787   3.941  13.884  0.00  0.00    +0.000 C 
BRANCH  15  16
ATOM     16  C   UNL     1       6.346   3.527  12.519  0.00  0.00    +0.000 C 
BRANCH  16  17
ATOM     17  C   UNL     1       5.391   2.664  11.728  0.00  0.00    +0.000 C 
ATOM     18  O   UNL     1       4.277   2.997  11.358  0.00  0.00    +0.000 OA
BRANCH  17  19
ATOM     19  O   UNL     1       5.897   1.436  11.472  0.00  0.00    +0.000 OA
ATOM     20  H   UNL     1       5.754   1.134  10.555  0.00  0.00    +0.000 HD
ENDBRANCH  17  19
ENDBRANCH  16  17
ENDBRANCH  15  16
ENDBRANCH  14  15
ENDBRANCH   2  14
TORSDOF 6
ENDMDL
MODEL 8
REMARK VINA RESULT:      -6.5      2.469      3.827
REMARK  Name = 
REMARK  8 active torsions:
REMARK  status: ('A' for Active; 'I' for Inactive)
REMARK    1  A    between atoms: C_1  and  C_2
REMARK    2  A    between atoms: C_4  and  C_5
REMARK    3  A    between atoms: C_6  and  N_7
REMARK    4  A    between atoms: C_8  and  C_10
REMARK    5  A    between atoms: C_10  and  C_11
REMARK    6  A    between atoms: C_11  and  C_12
REMARK    7  A    between atoms: C_12  and  C_13
REMARK    8  A    between atoms: C_13  and  O_15
REMARK                            x       y       z     vdW  Elec       q    Type
REMARK                         _______ _______ _______ _____ _____    ______ ____
ROOT
ATOM      1  N   UNL     1       3.294   4.933  18.411  0.00  0.00    +0.000 N 
ATOM      2  C   UNL     1       2.848   3.981  17.515  0.00  0.00    +0.000 C 
ATOM      3  O   UNL     1       1.694   3.647  17.279  0.00  0.00    +0.000 OA
ATOM      4  H   UNL     1       4.307   5.006  18.508  0.00  0.00    +0.000 HD
ENDROOT
BRANCH   1  10
ATOM      5  C   UNL     1       0.520   8.885  21.612  0.00  0.00    +0.000 C 
ATOM      6  C   UNL     1       1.237   7.856  20.789  0.00  0.00    +0.000 A 
ATOM      7  C   UNL     1       1.240   6.522  21.190  0.00  0.00    +0.000 A 
ATOM      8  C   UNL     1       1.897   5.499  20.462  0.00  0.00    +0.000 A 
ATOM      9  C   UNL     1       1.771   4.136  21.071  0.00  0.00    +0.000 C 
ATOM     10  C   UNL     1       2.585   5.824  19.276  0.00  0.00    +0.000 A 
ATOM     11  C   UNL     1       2.569   7.192  18.879  0.00  0.00    +0.000 A 
ATOM     12 CL   UNL     1       3.381   7.710  17.430  0.00  0.00    +0.000 Cl
ATOM     13  C   UNL     1       1.910   8.190  19.618  0.00  0.00    +0.000 A 
ENDBRANCH   1  10
BRANCH   2  14
ATOM     14  C   UNL     1       3.946   3.314  16.709  0.00  0.00    +0.000 C 
BRANCH  14  15
ATOM     15  C   UNL     1       5.239   4.139  16.779  0.00  0.00    +0.000 C 
BRANCH  15  16
ATOM     16  C   UNL     1       5.616   4.827  15.463  0.00  0.00    +0.000 C 
BRANCH  16  17
ATOM     17  C   UNL     1       7.110   4.949  15.269  0.00  0.00    +0.000 C 
ATOM     18  O   UNL     1       7.659   5.386  14.271  0.00  0.00    +0.000 OA
BRANCH  17  19
ATOM     19  O   UNL     1       7.807   4.499  16.336  0.00  0.00    +0.000 OA
ATOM     20  H   UNL     1       7.855   3.525  16.394  0.00  0.00    +0.000 HD
ENDBRANCH  17  19
ENDBRANCH  16  17
ENDBRANCH  15  16
ENDBRANCH  14  15
ENDBRANCH   2  14
TORSDOF 6
ENDMDL
MODEL 9
REMARK VINA RESULT:      -6.5      1.956      2.795
REMARK  Name = 
REMARK  8 active torsions:
REMARK  status: ('A' for Active; 'I' for Inactive)
REMARK    1  A    between atoms: C_1  and  C_2
REMARK    2  A    between atoms: C_4  and  C_5
REMARK    3  A    between atoms: C_6  and  N_7
REMARK    4  A    between atoms: C_8  and  C_10
REMARK    5  A    between atoms: C_10  and  C_11
REMARK    6  A    between atoms: C_11  and  C_12
REMARK    7  A    between atoms: C_12  and  C_13
REMARK    8  A    between atoms: C_13  and  O_15
REMARK                            x       y       z     vdW  Elec       q    Type
REMARK                         _______ _______ _______ _____ _____    ______ ____
ROOT
ATOM      1  N   UNL     1       3.693   5.233  17.382  0.00  0.00    +0.000 N 
ATOM      2  C   UNL     1       4.998   5.610  17.131  0.00  0.00    +0.000 C 
ATOM      3  O   UNL     1       5.946   5.611  17.906  0.00  0.00    +0.000 OA
ATOM      4  H   UNL     1       3.037   5.379  16.614  0.00  0.00    +0.000 HD
ENDROOT
BRANCH   1  10
ATOM      5  C   UNL     1       1.288   2.672  21.988  0.00  0.00    +0.000 C 
ATOM      6  C   UNL     1       1.908   3.342  20.797  0.00  0.00    +0.000 A 
ATOM      7  C   UNL     1       1.907   4.732  20.703  0.00  0.00    +0.000 A 
ATOM      8  C   UNL     1       2.474   5.431  19.607  0.00  0.00    +0.000 A 
ATOM      9  C   UNL     1       2.367   6.922  19.710  0.00  0.00    +0.000 C 
ATOM     10  C   UNL     1       3.069   4.706  18.556  0.00  0.00    +0.000 A 
ATOM     11  C   UNL     1       3.063   3.286  18.670  0.00  0.00    +0.000 A 
ATOM     12 CL   UNL     1       3.772   2.289  17.434  0.00  0.00    +0.000 Cl
ATOM     13  C   UNL     1       2.494   2.616  19.767  0.00  0.00    +0.000 A 
ENDBRANCH   1  10
BRANCH   2  14
ATOM     14  C   UNL     1       5.266   6.029  15.698  0.00  0.00    +0.000 C 
BRANCH  14  15
ATOM     15  C   UNL     1       6.411   5.198  15.102  0.00  0.00    +0.000 C 
BRANCH  15  16
ATOM     16  C   UNL     1       5.955   3.916  14.399  0.00  0.00    +0.000 C 
BRANCH  16  17
ATOM     17  C   UNL     1       6.510   3.781  13.000  0.00  0.00    +0.000 C 
ATOM     18  O   UNL     1       7.257   4.578  12.456  0.00  0.00    +0.000 OA
BRANCH  17  19
ATOM     19  O   UNL     1       6.074   2.663  12.378  0.00  0.00    +0.000 OA
ATOM     20  H   UNL     1       6.206   1.846  12.896  0.00  0.00    +0.000 HD
ENDBRANCH  17  19
ENDBRANCH  16  17
ENDBRANCH  15  16
ENDBRANCH  14  15
ENDBRANCH   2  14
TORSDOF 6
ENDMDL
