MODEL 1
REMARK VINA RESULT:      -9.3      0.000      0.000
REMARK  Name = 
REMARK  7 active torsions:
REMARK  status: ('A' for Active; 'I' for Inactive)
REMARK    1  A    between atoms: C_1  and  N_2
REMARK    2  A    between atoms: N_5  and  C_6
REMARK    3  A    between atoms: C_6  and  C_7
REMARK    4  A    between atoms: C_10  and  C_11
REMARK    5  A    between atoms: C_11  and  O_12
REMARK    6  A    between atoms: O_12  and  C_13
REMARK    7  A    between atoms: N_20  and  C_21
REMARK                            x       y       z     vdW  Elec       q    Type
REMARK                         _______ _______ _______ _____ _____    ______ ____
ROOT
ATOM      1  C   UNL     1       8.680  10.370  18.360  0.00  0.00    +0.000 A 
ATOM      2  C   UNL     1       9.290  10.004  19.568  0.00  0.00    +0.000 A 
ATOM      3  C   UNL     1      10.332  10.778  20.127  0.00  0.00    +0.000 A 
ATOM      4  C   UNL     1      10.915  11.798  19.383  0.00  0.00    +0.000 A 
ATOM      5  C   UNL     1      10.330  12.095  18.170  0.00  0.00    +0.000 A 
ATOM      6  C   UNL     1       9.080  11.588  17.842  0.00  0.00    +0.000 A 
ATOM      7  C   UNL     1       8.247  12.785  17.425  0.00  0.00    +0.000 C 
ATOM      8  N   UNL     1       9.203  13.927  17.493  0.00  0.00    +0.000 N 
ATOM      9  C   UNL     1      10.474  13.370  17.485  0.00  0.00    +0.000 C 
ATOM     10  O   UNL     1      11.509  13.837  17.061  0.00  0.00    +0.000 OA
ENDROOT
BRANCH   8  11
ATOM     11  C   UNL     1       9.052  15.013  18.509  0.00  0.00    +0.000 C 
ATOM     12  C   UNL     1       7.885  14.778  19.499  0.00  0.00    +0.000 C 
ATOM     13  C   UNL     1       6.565  15.430  19.079  0.00  0.00    +0.000 C 
ATOM     14  C   UNL     1       6.730  16.907  18.863  0.00  0.00    +0.000 C 
ATOM     15  O   UNL     1       5.849  17.720  19.070  0.00  0.00    +0.000 OA
ATOM     16  N   UNL     1       7.942  17.280  18.328  0.00  0.00    +0.000 N 
ATOM     17  C   UNL     1       9.004  16.478  17.967  0.00  0.00    +0.000 C 
ATOM     18  O   UNL     1       9.876  16.936  17.232  0.00  0.00    +0.000 OA
ATOM     19  H   UNL     1       7.990  18.243  18.028  0.00  0.00    +0.000 HD
ENDBRANCH   8  11
BRANCH   1  20
ATOM     20  O   UNL     1       7.771   9.492  17.822  0.00  0.00    +0.000 OA
BRANCH  20  21
ATOM     21  C   UNL     1       8.213   8.125  17.698  0.00  0.00    +0.000 C 
BRANCH  21  25
ATOM     22  C   UNL     1       4.991   5.159  17.296  0.00  0.00    +0.000 A 
ATOM     23  C   UNL     1       6.336   4.770  17.374  0.00  0.00    +0.000 A 
ATOM     24  C   UNL     1       7.370   5.724  17.457  0.00  0.00    +0.000 A 
ATOM     25  C   UNL     1       7.097   7.100  17.474  0.00  0.00    +0.000 A 
ATOM     26  C   UNL     1       5.747   7.489  17.391  0.00  0.00    +0.000 A 
ATOM     27  C   UNL     1       4.713   6.535  17.305  0.00  0.00    +0.000 A 
BRANCH  22  28
ATOM     28  C   UNL     1       3.871   4.140  17.116  0.00  0.00    +0.000 C 
BRANCH  28  33
ATOM     29  C   UNL     1       0.849   3.099  20.744  0.00  0.00    +0.000 C 
ATOM     30  N   UNL     1       1.972   2.595  19.959  0.00  0.00    +0.000 NA
ATOM     31  C   UNL     1       3.169   3.442  20.130  0.00  0.00    +0.000 C 
ATOM     32  C   UNL     1       4.356   2.989  19.242  0.00  0.00    +0.000 C 
ATOM     33  N   UNL     1       4.054   2.846  17.802  0.00  0.00    +0.000 NA
ATOM     34  C   UNL     1       2.834   2.006  17.686  0.00  0.00    +0.000 C 
ATOM     35  C   UNL     1       1.624   2.484  18.532  0.00  0.00    +0.000 C 
ENDBRANCH  28  33
ENDBRANCH  22  28
ENDBRANCH  21  25
ENDBRANCH  20  21
ENDBRANCH   1  20
TORSDOF 6
ENDMDL
MODEL 2
REMARK VINA RESULT:      -9.3      6.798     11.031
REMARK  Name = 
REMARK  7 active torsions:
REMARK  status: ('A' for Active; 'I' for Inactive)
REMARK    1  A    between atoms: C_1  and  N_2
REMARK    2  A    between atoms: N_5  and  C_6
REMARK    3  A    between atoms: C_6  and  C_7
REMARK    4  A    between atoms: C_10  and  C_11
REMARK    5  A    between atoms: C_11  and  O_12
REMARK    6  A    between atoms: O_12  and  C_13
REMARK    7  A    between atoms: N_20  and  C_21
REMARK                            x       y       z     vdW  Elec       q    Type
REMARK                         _______ _______ _______ _____ _____    ______ ____
ROOT
ATOM      1  C   UNL     1       1.776   5.349  20.569  0.00  0.00    +0.000 A 
ATOM      2  C   UNL     1       2.139   4.343  21.476  0.00  0.00    +0.000 A 
ATOM      3  C   UNL     1       2.700   3.125  21.032  0.00  0.00    +0.000 A 
ATOM      4  C   UNL     1       2.705   2.816  19.677  0.00  0.00    +0.000 A 
ATOM      5  C   UNL     1       2.284   3.804  18.811  0.00  0.00    +0.000 A 
ATOM      6  C   UNL     1       2.123   5.111  19.253  0.00  0.00    +0.000 A 
ATOM      7  C   UNL     1       2.917   5.971  18.288  0.00  0.00    +0.000 C 
ATOM      8  N   UNL     1       3.427   4.999  17.279  0.00  0.00    +0.000 N 
ATOM      9  C   UNL     1       2.640   3.862  17.403  0.00  0.00    +0.000 C 
ATOM     10  O   UNL     1       2.341   3.045  16.559  0.00  0.00    +0.000 OA
ENDROOT
BRANCH   8  11
ATOM     11  C   UNL     1       4.883   4.686  17.161  0.00  0.00    +0.000 C 
ATOM     12  C   UNL     1       5.548   4.312  18.508  0.00  0.00    +0.000 C 
ATOM     13  C   UNL     1       6.191   5.493  19.240  0.00  0.00    +0.000 C 
ATOM     14  C   UNL     1       7.203   6.187  18.374  0.00  0.00    +0.000 C 
ATOM     15  O   UNL     1       8.198   6.735  18.809  0.00  0.00    +0.000 OA
ATOM     16  N   UNL     1       6.884   6.231  17.036  0.00  0.00    +0.000 N 
ATOM     17  C   UNL     1       5.765   5.731  16.404  0.00  0.00    +0.000 C 
ATOM     18  O   UNL     1       5.495   6.120  15.269  0.00  0.00    +0.000 OA
ATOM     19  H   UNL     1       7.473   6.837  16.484  0.00  0.00    +0.000 HD
ENDBRANCH   8  11
BRANCH   1  20
ATOM     20  O   UNL     1       1.115   6.443  21.073  0.00  0.00    +0.000 OA
BRANCH  20  21
ATOM     21  C   UNL     1       1.664   7.729  20.719  0.00  0.00    +0.000 C 
BRANCH  21  25
ATOM     22  C   UNL     1      -0.812  11.078  22.132  0.00  0.00    +0.000 A 
ATOM     23  C   UNL     1      -0.378  11.002  20.799  0.00  0.00    +0.000 A 
ATOM     24  C   UNL     1       0.452   9.951  20.360  0.00  0.00    +0.000 A 
ATOM     25  C   UNL     1       0.873   8.937  21.233  0.00  0.00    +0.000 A 
ATOM     26  C   UNL     1       0.441   9.017  22.569  0.00  0.00    +0.000 A 
ATOM     27  C   UNL     1      -0.387  10.069  23.009  0.00  0.00    +0.000 A 
BRANCH  22  28
ATOM     28  C   UNL     1      -1.636  12.257  22.639  0.00  0.00    +0.000 C 
BRANCH  28  33
ATOM     29  C   UNL     1      -4.412  16.092  23.619  0.00  0.00    +0.000 C 
ATOM     30  N   UNL     1      -4.431  14.659  23.343  0.00  0.00    +0.000 NA
ATOM     31  C   UNL     1      -3.709  13.904  24.387  0.00  0.00    +0.000 C 
ATOM     32  C   UNL     1      -3.632  12.385  24.083  0.00  0.00    +0.000 C 
ATOM     33  N   UNL     1      -3.090  12.031  22.753  0.00  0.00    +0.000 NA
ATOM     34  C   UNL     1      -3.832  12.831  21.745  0.00  0.00    +0.000 C 
ATOM     35  C   UNL     1      -3.870  14.358  22.015  0.00  0.00    +0.000 C 
ENDBRANCH  28  33
ENDBRANCH  22  28
ENDBRANCH  21  25
ENDBRANCH  20  21
ENDBRANCH   1  20
TORSDOF 6
ENDMDL
MODEL 3
REMARK VINA RESULT:      -9.1      0.946      1.313
REMARK  Name = 
REMARK  7 active torsions:
REMARK  status: ('A' for Active; 'I' for Inactive)
REMARK    1  A    between atoms: C_1  and  N_2
REMARK    2  A    between atoms: N_5  and  C_6
REMARK    3  A    between atoms: C_6  and  C_7
REMARK    4  A    between atoms: C_10  and  C_11
REMARK    5  A    between atoms: C_11  and  O_12
REMARK    6  A    between atoms: O_12  and  C_13
REMARK    7  A    between atoms: N_20  and  C_21
REMARK                            x       y       z     vdW  Elec       q    Type
REMARK                         _______ _______ _______ _____ _____    ______ ____
ROOT
ATOM      1  C   UNL     1       8.894  10.881  18.494  0.00  0.00    +0.000 A 
ATOM      2  C   UNL     1       9.578  10.505  19.659  0.00  0.00    +0.000 A 
ATOM      3  C   UNL     1      10.572  11.334  20.225  0.00  0.00    +0.000 A 
ATOM      4  C   UNL     1      11.039  12.438  19.521  0.00  0.00    +0.000 A 
ATOM      5  C   UNL     1      10.386  12.749  18.346  0.00  0.00    +0.000 A 
ATOM      6  C   UNL     1       9.171  12.154  18.032  0.00  0.00    +0.000 A 
ATOM      7  C   UNL     1       8.225  13.296  17.710  0.00  0.00    +0.000 C 
ATOM      8  N   UNL     1       9.084  14.510  17.811  0.00  0.00    +0.000 N 
ATOM      9  C   UNL     1      10.396  14.065  17.730  0.00  0.00    +0.000 C 
ATOM     10  O   UNL     1      11.372  14.641  17.298  0.00  0.00    +0.000 OA
ENDROOT
BRANCH   8  11
ATOM     11  C   UNL     1       8.882  15.524  18.891  0.00  0.00    +0.000 C 
ATOM     12  C   UNL     1       7.725  15.175  19.859  0.00  0.00    +0.000 C 
ATOM     13  C   UNL     1       6.377  15.791  19.473  0.00  0.00    +0.000 C 
ATOM     14  C   UNL     1       6.474  17.285  19.349  0.00  0.00    +0.000 C 
ATOM     15  O   UNL     1       5.556  18.042  19.601  0.00  0.00    +0.000 OA
ATOM     16  N   UNL     1       7.669  17.745  18.844  0.00  0.00    +0.000 N 
ATOM     17  C   UNL     1       8.767  17.015  18.439  0.00  0.00    +0.000 C 
ATOM     18  O   UNL     1       9.619  17.557  17.737  0.00  0.00    +0.000 OA
ATOM     19  H   UNL     1       7.674  18.726  18.604  0.00  0.00    +0.000 HD
ENDBRANCH   8  11
BRANCH   1  20
ATOM     20  O   UNL     1       8.042   9.958  17.937  0.00  0.00    +0.000 OA
BRANCH  20  21
ATOM     21  C   UNL     1       8.598   8.648  17.704  0.00  0.00    +0.000 C 
BRANCH  21  25
ATOM     22  C   UNL     1       5.884   5.200  17.998  0.00  0.00    +0.000 A 
ATOM     23  C   UNL     1       5.603   6.280  17.148  0.00  0.00    +0.000 A 
ATOM     24  C   UNL     1       6.451   7.404  17.089  0.00  0.00    +0.000 A 
ATOM     25  C   UNL     1       7.613   7.486  17.870  0.00  0.00    +0.000 A 
ATOM     26  C   UNL     1       7.891   6.404  18.725  0.00  0.00    +0.000 A 
ATOM     27  C   UNL     1       7.042   5.281  18.786  0.00  0.00    +0.000 A 
BRANCH  22  28
ATOM     28  C   UNL     1       4.928   4.020  18.136  0.00  0.00    +0.000 C 
BRANCH  28  33
ATOM     29  C   UNL     1       0.457   2.299  18.792  0.00  0.00    +0.000 C 
ATOM     30  N   UNL     1       1.710   2.625  19.468  0.00  0.00    +0.000 NA
ATOM     31  C   UNL     1       2.008   4.068  19.376  0.00  0.00    +0.000 C 
ATOM     32  C   UNL     1       3.375   4.439  20.006  0.00  0.00    +0.000 C 
ATOM     33  N   UNL     1       4.533   3.663  19.513  0.00  0.00    +0.000 NA
ATOM     34  C   UNL     1       4.174   2.224  19.606  0.00  0.00    +0.000 C 
ATOM     35  C   UNL     1       2.832   1.836  18.932  0.00  0.00    +0.000 C 
ENDBRANCH  28  33
ENDBRANCH  22  28
ENDBRANCH  21  25
ENDBRANCH  20  21
ENDBRANCH   1  20
TORSDOF 6
ENDMDL
MODEL 4
REMARK VINA RESULT:      -9.0      6.691     10.951
REMARK  Name = 
REMARK  7 active torsions:
REMARK  status: ('A' for Active; 'I' for Inactive)
REMARK    1  A    between atoms: C_1  and  N_2
REMARK    2  A    between atoms: N_5  and  C_6
REMARK    3  A    between atoms: C_6  and  C_7
REMARK    4  A    between atoms: C_10  and  C_11
REMARK    5  A    between atoms: C_11  and  O_12
REMARK    6  A    between atoms: O_12  and  C_13
REMARK    7  A    between atoms: N_20  and  C_21
REMARK                            x       y       z     vdW  Elec       q    Type
REMARK                         _______ _______ _______ _____ _____    ______ ____
ROOT
ATOM      1  C   UNL     1       1.803   5.264  20.510  0.00  0.00    +0.000 A 
ATOM      2  C   UNL     1       2.202   4.278  21.425  0.00  0.00    +0.000 A 
ATOM      3  C   UNL     1       2.801   3.075  20.990  0.00  0.00    +0.000 A 
ATOM      4  C   UNL     1       2.811   2.754  19.637  0.00  0.00    +0.000 A 
ATOM      5  C   UNL     1       2.355   3.720  18.765  0.00  0.00    +0.000 A 
ATOM      6  C   UNL     1       2.153   5.025  19.195  0.00  0.00    +0.000 A 
ATOM      7  C   UNL     1       2.915   5.902  18.220  0.00  0.00    +0.000 C 
ATOM      8  N   UNL     1       3.453   4.938  17.217  0.00  0.00    +0.000 N 
ATOM      9  C   UNL     1       2.704   3.778  17.355  0.00  0.00    +0.000 C 
ATOM     10  O   UNL     1       2.429   2.944  16.519  0.00  0.00    +0.000 OA
ENDROOT
BRANCH   8  11
ATOM     11  C   UNL     1       4.919   4.672  17.097  0.00  0.00    +0.000 C 
ATOM     12  C   UNL     1       5.605   4.357  18.448  0.00  0.00    +0.000 C 
ATOM     13  C   UNL     1       6.212   5.579  19.143  0.00  0.00    +0.000 C 
ATOM     14  C   UNL     1       7.195   6.283  18.251  0.00  0.00    +0.000 C 
ATOM     15  O   UNL     1       8.173   6.877  18.663  0.00  0.00    +0.000 OA
ATOM     16  N   UNL     1       6.865   6.280  16.915  0.00  0.00    +0.000 N 
ATOM     17  C   UNL     1       5.759   5.725  16.305  0.00  0.00    +0.000 C 
ATOM     18  O   UNL     1       5.469   6.073  15.162  0.00  0.00    +0.000 OA
ATOM     19  H   UNL     1       7.429   6.890  16.341  0.00  0.00    +0.000 HD
ENDBRANCH   8  11
BRANCH   1  20
ATOM     20  O   UNL     1       1.109   6.341  21.007  0.00  0.00    +0.000 OA
BRANCH  20  21
ATOM     21  C   UNL     1       1.686   7.637  20.749  0.00  0.00    +0.000 C 
BRANCH  21  25
ATOM     22  C   UNL     1      -0.526  11.145  22.212  0.00  0.00    +0.000 A 
ATOM     23  C   UNL     1      -0.410   9.980  22.985  0.00  0.00    +0.000 A 
ATOM     24  C   UNL     1       0.261   8.841  22.495  0.00  0.00    +0.000 A 
ATOM     25  C   UNL     1       0.846   8.828  21.221  0.00  0.00    +0.000 A 
ATOM     26  C   UNL     1       0.726   9.995  20.445  0.00  0.00    +0.000 A 
ATOM     27  C   UNL     1       0.052  11.133  20.933  0.00  0.00    +0.000 A 
BRANCH  22  28
ATOM     28  C   UNL     1      -1.325  12.350  22.694  0.00  0.00    +0.000 C 
BRANCH  28  33
ATOM     29  C   UNL     1      -5.541  14.521  23.642  0.00  0.00    +0.000 C 
ATOM     30  N   UNL     1      -4.486  14.372  22.644  0.00  0.00    +0.000 NA
ATOM     31  C   UNL     1      -4.391  12.977  22.169  0.00  0.00    +0.000 C 
ATOM     32  C   UNL     1      -3.223  12.760  21.173  0.00  0.00    +0.000 C 
ATOM     33  N   UNL     1      -1.896  13.214  21.641  0.00  0.00    +0.000 NA
ATOM     34  C   UNL     1      -2.051  14.610  22.127  0.00  0.00    +0.000 C 
ATOM     35  C   UNL     1      -3.184  14.824  23.164  0.00  0.00    +0.000 C 
ENDBRANCH  28  33
ENDBRANCH  22  28
ENDBRANCH  21  25
ENDBRANCH  20  21
ENDBRANCH   1  20
TORSDOF 6
ENDMDL
MODEL 5
REMARK VINA RESULT:      -9.0      6.496     11.074
REMARK  Name = 
REMARK  7 active torsions:
REMARK  status: ('A' for Active; 'I' for Inactive)
REMARK    1  A    between atoms: C_1  and  N_2
REMARK    2  A    between atoms: N_5  and  C_6
REMARK    3  A    between atoms: C_6  and  C_7
REMARK    4  A    between atoms: C_10  and  C_11
REMARK    5  A    between atoms: C_11  and  O_12
REMARK    6  A    between atoms: O_12  and  C_13
REMARK    7  A    between atoms: N_20  and  C_21
REMARK                            x       y       z     vdW  Elec       q    Type
REMARK                         _______ _______ _______ _____ _____    ______ ____
ROOT
ATOM      1  C   UNL     1       1.838   5.282  20.587  0.00  0.00    +0.000 A 
ATOM      2  C   UNL     1       2.211   4.250  21.461  0.00  0.00    +0.000 A 
ATOM      3  C   UNL     1       2.770   3.047  20.977  0.00  0.00    +0.000 A 
ATOM      4  C   UNL     1       2.763   2.777  19.613  0.00  0.00    +0.000 A 
ATOM      5  C   UNL     1       2.332   3.789  18.781  0.00  0.00    +0.000 A 
ATOM      6  C   UNL     1       2.173   5.082  19.261  0.00  0.00    +0.000 A 
ATOM      7  C   UNL     1       2.956   5.972  18.315  0.00  0.00    +0.000 C 
ATOM      8  N   UNL     1       3.458   5.031  17.273  0.00  0.00    +0.000 N 
ATOM      9  C   UNL     1       2.675   3.889  17.372  0.00  0.00    +0.000 C 
ATOM     10  O   UNL     1       2.370   3.097  16.507  0.00  0.00    +0.000 OA
ENDROOT
BRANCH   8  11
ATOM     11  C   UNL     1       4.914   4.725  17.133  0.00  0.00    +0.000 C 
ATOM     12  C   UNL     1       5.590   4.302  18.460  0.00  0.00    +0.000 C 
ATOM     13  C   UNL     1       6.237   5.457  19.230  0.00  0.00    +0.000 C 
ATOM     14  C   UNL     1       7.242   6.183  18.382  0.00  0.00    +0.000 C 
ATOM     15  O   UNL     1       8.239   6.718  18.829  0.00  0.00    +0.000 OA
ATOM     16  N   UNL     1       6.913   6.276  17.049  0.00  0.00    +0.000 N 
ATOM     17  C   UNL     1       5.789   5.797  16.407  0.00  0.00    +0.000 C 
ATOM     18  O   UNL     1       5.510   6.227  15.290  0.00  0.00    +0.000 OA
ATOM     19  H   UNL     1       7.497   6.903  16.514  0.00  0.00    +0.000 HD
ENDBRANCH   8  11
BRANCH   1  20
ATOM     20  O   UNL     1       1.180   6.359  21.129  0.00  0.00    +0.000 OA
BRANCH  20  21
ATOM     21  C   UNL     1       1.599   7.656  20.658  0.00  0.00    +0.000 C 
BRANCH  21  25
ATOM     22  C   UNL     1      -0.875  10.929  22.242  0.00  0.00    +0.000 A 
ATOM     23  C   UNL     1      -0.560  10.846  20.877  0.00  0.00    +0.000 A 
ATOM     24  C   UNL     1       0.269   9.821  20.379  0.00  0.00    +0.000 A 
ATOM     25  C   UNL     1       0.808   8.840  21.224  0.00  0.00    +0.000 A 
ATOM     26  C   UNL     1       0.496   8.927  22.593  0.00  0.00    +0.000 A 
ATOM     27  C   UNL     1      -0.332   9.953  23.092  0.00  0.00    +0.000 A 
BRANCH  22  28
ATOM     28  C   UNL     1      -1.697  12.082  22.806  0.00  0.00    +0.000 C 
BRANCH  28  33
ATOM     29  C   UNL     1      -4.576  15.768  24.033  0.00  0.00    +0.000 C 
ATOM     30  N   UNL     1      -3.319  15.417  23.379  0.00  0.00    +0.000 NA
ATOM     31  C   UNL     1      -3.553  14.580  22.185  0.00  0.00    +0.000 C 
ATOM     32  C   UNL     1      -2.236  14.113  21.513  0.00  0.00    +0.000 C 
ATOM     33  N   UNL     1      -1.271  13.439  22.407  0.00  0.00    +0.000 NA
ATOM     34  C   UNL     1      -1.088  14.309  23.598  0.00  0.00    +0.000 C 
ATOM     35  C   UNL     1      -2.400  14.737  24.307  0.00  0.00    +0.000 C 
ENDBRANCH  28  33
ENDBRANCH  22  28
ENDBRANCH  21  25
ENDBRANCH  20  21
ENDBRANCH   1  20
TORSDOF 6
ENDMDL
MODEL 6
REMARK VINA RESULT:      -8.9      6.051     11.145
REMARK  Name = 
REMARK  7 active torsions:
REMARK  status: ('A' for Active; 'I' for Inactive)
REMARK    1  A    between atoms: C_1  and  N_2
REMARK    2  A    between atoms: N_5  and  C_6
REMARK    3  A    between atoms: C_6  and  C_7
REMARK    4  A    between atoms: C_10  and  C_11
REMARK    5  A    between atoms: C_11  and  O_12
REMARK    6  A    between atoms: O_12  and  C_13
REMARK    7  A    between atoms: N_20  and  C_21
REMARK                            x       y       z     vdW  Elec       q    Type
REMARK                         _______ _______ _______ _____ _____    ______ ____
ROOT
ATOM      1  C   UNL     1       1.771   5.120  20.448  0.00  0.00    +0.000 A 
ATOM      2  C   UNL     1       2.212   4.251  21.457  0.00  0.00    +0.000 A 
ATOM      3  C   UNL     1       2.826   3.018  21.146  0.00  0.00    +0.000 A 
ATOM      4  C   UNL     1       2.813   2.547  19.838  0.00  0.00    +0.000 A 
ATOM      5  C   UNL     1       2.317   3.399  18.874  0.00  0.00    +0.000 A 
ATOM      6  C   UNL     1       2.097   4.741  19.160  0.00  0.00    +0.000 A 
ATOM      7  C   UNL     1       2.819   5.516  18.074  0.00  0.00    +0.000 C 
ATOM      8  N   UNL     1       3.354   4.455  17.173  0.00  0.00    +0.000 N 
ATOM      9  C   UNL     1       2.634   3.304  17.458  0.00  0.00    +0.000 C 
ATOM     10  O   UNL     1       2.358   2.376  16.728  0.00  0.00    +0.000 OA
ENDROOT
BRANCH   8  11
ATOM     11  C   UNL     1       4.822   4.204  17.047  0.00  0.00    +0.000 C 
ATOM     12  C   UNL     1       5.643   4.700  18.263  0.00  0.00    +0.000 C 
ATOM     13  C   UNL     1       6.199   6.118  18.107  0.00  0.00    +0.000 C 
ATOM     14  C   UNL     1       7.041   6.242  16.869  0.00  0.00    +0.000 C 
ATOM     15  O   UNL     1       7.996   6.989  16.776  0.00  0.00    +0.000 OA
ATOM     16  N   UNL     1       6.603   5.497  15.797  0.00  0.00    +0.000 N 
ATOM     17  C   UNL     1       5.502   4.670  15.720  0.00  0.00    +0.000 C 
ATOM     18  O   UNL     1       5.089   4.326  14.614  0.00  0.00    +0.000 OA
ATOM     19  H   UNL     1       7.064   5.707  14.924  0.00  0.00    +0.000 HD
ENDBRANCH   8  11
BRANCH   1  20
ATOM     20  O   UNL     1       1.066   6.233  20.837  0.00  0.00    +0.000 OA
BRANCH  20  21
ATOM     21  C   UNL     1       1.699   7.503  20.580  0.00  0.00    +0.000 C 
BRANCH  21  25
ATOM     22  C   UNL     1      -0.639  10.883  22.145  0.00  0.00    +0.000 A 
ATOM     23  C   UNL     1      -0.379  10.748  20.773  0.00  0.00    +0.000 A 
ATOM     24  C   UNL     1       0.408   9.688  20.279  0.00  0.00    +0.000 A 
ATOM     25  C   UNL     1       0.957   8.723  21.135  0.00  0.00    +0.000 A 
ATOM     26  C   UNL     1       0.699   8.862  22.511  0.00  0.00    +0.000 A 
ATOM     27  C   UNL     1      -0.086   9.923  23.006  0.00  0.00    +0.000 A 
BRANCH  22  28
ATOM     28  C   UNL     1      -1.413  12.073  22.700  0.00  0.00    +0.000 C 
BRANCH  28  33
ATOM     29  C   UNL     1      -2.656  16.472  21.125  0.00  0.00    +0.000 C 
ATOM     30  N   UNL     1      -1.721  15.741  21.975  0.00  0.00    +0.000 NA
ATOM     31  C   UNL     1      -0.893  14.811  21.183  0.00  0.00    +0.000 C 
ATOM     32  C   UNL     1       0.052  13.952  22.062  0.00  0.00    +0.000 C 
ATOM     33  N   UNL     1      -0.601  13.215  23.165  0.00  0.00    +0.000 NA
ATOM     34  C   UNL     1      -1.436  14.190  23.915  0.00  0.00    +0.000 C 
ATOM     35  C   UNL     1      -2.422  15.016  23.047  0.00  0.00    +0.000 C 
ENDBRANCH  28  33
ENDBRANCH  22  28
ENDBRANCH  21  25
ENDBRANCH  20  21
ENDBRANCH   1  20
TORSDOF 6
ENDMDL
MODEL 7
REMARK VINA RESULT:      -8.9      7.059     11.131
REMARK  Name = 
REMARK  7 active torsions:
REMARK  status: ('A' for Active; 'I' for Inactive)
REMARK    1  A    between atoms: C_1  and  N_2
REMARK    2  A    between atoms: N_5  and  C_6
REMARK    3  A    between atoms: C_6  and  C_7
REMARK    4  A    between atoms: C_10  and  C_11
REMARK    5  A    between atoms: C_11  and  O_12
REMARK    6  A    between atoms: O_12  and  C_13
REMARK    7  A    between atoms: N_20  and  C_21
REMARK                            x       y       z     vdW  Elec       q    Type
REMARK                         _______ _______ _______ _____ _____    ______ ____
ROOT
ATOM      1  C   UNL     1       2.158   7.524  19.051  0.00  0.00    +0.000 A 
ATOM      2  C   UNL     1       1.875   7.134  20.368  0.00  0.00    +0.000 A 
ATOM      3  C   UNL     1       1.817   5.770  20.731  0.00  0.00    +0.000 A 
ATOM      4  C   UNL     1       1.828   4.788  19.747  0.00  0.00    +0.000 A 
ATOM      5  C   UNL     1       2.047   5.208  18.452  0.00  0.00    +0.000 A 
ATOM      6  C   UNL     1       2.495   6.496  18.190  0.00  0.00    +0.000 A 
ATOM      7  C   UNL     1       3.714   6.336  17.302  0.00  0.00    +0.000 C 
ATOM      8  N   UNL     1       3.798   4.864  17.073  0.00  0.00    +0.000 N 
ATOM      9  C   UNL     1       2.548   4.351  17.389  0.00  0.00    +0.000 C 
ATOM     10  O   UNL     1       1.989   3.374  16.940  0.00  0.00    +0.000 OA
ENDROOT
BRANCH   8  11
ATOM     11  C   UNL     1       4.918   4.049  17.631  0.00  0.00    +0.000 C 
ATOM     12  C   UNL     1       5.148   4.266  19.147  0.00  0.00    +0.000 C 
ATOM     13  C   UNL     1       6.192   5.336  19.476  0.00  0.00    +0.000 C 
ATOM     14  C   UNL     1       7.510   5.033  18.824  0.00  0.00    +0.000 C 
ATOM     15  O   UNL     1       8.585   5.337  19.304  0.00  0.00    +0.000 OA
ATOM     16  N   UNL     1       7.417   4.448  17.581  0.00  0.00    +0.000 N 
ATOM     17  C   UNL     1       6.282   4.117  16.871  0.00  0.00    +0.000 C 
ATOM     18  O   UNL     1       6.375   3.888  15.667  0.00  0.00    +0.000 OA
ATOM     19  H   UNL     1       8.289   4.399  17.074  0.00  0.00    +0.000 HD
ENDBRANCH   8  11
BRANCH   1  20
ATOM     20  O   UNL     1       2.063   8.862  18.755  0.00  0.00    +0.000 OA
BRANCH  20  21
ATOM     21  C   UNL     1       0.895   9.261  18.009  0.00  0.00    +0.000 C 
BRANCH  21  25
ATOM     22  C   UNL     1      -1.815  11.989  20.143  0.00  0.00    +0.000 A 
ATOM     23  C   UNL     1      -0.687  11.440  20.772  0.00  0.00    +0.000 A 
ATOM     24  C   UNL     1       0.154  10.531  20.100  0.00  0.00    +0.000 A 
ATOM     25  C   UNL     1      -0.095  10.144  18.775  0.00  0.00    +0.000 A 
ATOM     26  C   UNL     1      -1.229  10.691  18.148  0.00  0.00    +0.000 A 
ATOM     27  C   UNL     1      -2.073  11.598  18.820  0.00  0.00    +0.000 A 
BRANCH  22  28
ATOM     28  C   UNL     1      -2.783  12.902  20.889  0.00  0.00    +0.000 C 
BRANCH  28  33
ATOM     29  C   UNL     1      -4.460  15.831  24.351  0.00  0.00    +0.000 C 
ATOM     30  N   UNL     1      -4.408  14.444  23.898  0.00  0.00    +0.000 NA
ATOM     31  C   UNL     1      -3.021  13.940  23.877  0.00  0.00    +0.000 C 
ATOM     32  C   UNL     1      -2.915  12.497  23.318  0.00  0.00    +0.000 C 
ATOM     33  N   UNL     1      -3.539  12.282  21.995  0.00  0.00    +0.000 NA
ATOM     34  C   UNL     1      -4.920  12.825  22.063  0.00  0.00    +0.000 C 
ATOM     35  C   UNL     1      -5.029  14.286  22.573  0.00  0.00    +0.000 C 
ENDBRANCH  28  33
ENDBRANCH  22  28
ENDBRANCH  21  25
ENDBRANCH  20  21
ENDBRANCH   1  20
TORSDOF 6
ENDMDL
MODEL 8
REMARK VINA RESULT:      -8.8      6.936     11.184
REMARK  Name = 
REMARK  7 active torsions:
REMARK  status: ('A' for Active; 'I' for Inactive)
REMARK    1  A    between atoms: C_1  and  N_2
REMARK    2  A    between atoms: N_5  and  C_6
REMARK    3  A    between atoms: C_6  and  C_7
REMARK    4  A    between atoms: C_10  and  C_11
REMARK    5  A    between atoms: C_11  and  O_12
REMARK    6  A    between atoms: O_12  and  C_13
REMARK    7  A    between atoms: N_20  and  C_21
REMARK                            x       y       z     vdW  Elec       q    Type
REMARK                         _______ _______ _______ _____ _____    ______ ____
ROOT
ATOM      1  C   UNL     1       2.221   7.511  19.058  0.00  0.00    +0.000 A 
ATOM      2  C   UNL     1       1.931   7.116  20.372  0.00  0.00    +0.000 A 
ATOM      3  C   UNL     1       1.857   5.751  20.728  0.00  0.00    +0.000 A 
ATOM      4  C   UNL     1       1.860   4.775  19.738  0.00  0.00    +0.000 A 
ATOM      5  C   UNL     1       2.086   5.199  18.446  0.00  0.00    +0.000 A 
ATOM      6  C   UNL     1       2.549   6.484  18.193  0.00  0.00    +0.000 A 
ATOM      7  C   UNL     1       3.769   6.315  17.307  0.00  0.00    +0.000 C 
ATOM      8  N   UNL     1       3.837   4.844  17.070  0.00  0.00    +0.000 N 
ATOM      9  C   UNL     1       2.581   4.343  17.380  0.00  0.00    +0.000 C 
ATOM     10  O   UNL     1       2.012   3.374  16.924  0.00  0.00    +0.000 OA
ENDROOT
BRANCH   8  11
ATOM     11  C   UNL     1       4.947   4.013  17.627  0.00  0.00    +0.000 C 
ATOM     12  C   UNL     1       5.141   4.180  19.153  0.00  0.00    +0.000 C 
ATOM     13  C   UNL     1       6.174   5.242  19.542  0.00  0.00    +0.000 C 
ATOM     14  C   UNL     1       7.508   4.964  18.910  0.00  0.00    +0.000 C 
ATOM     15  O   UNL     1       8.570   5.254  19.426  0.00  0.00    +0.000 OA
ATOM     16  N   UNL     1       7.445   4.421  17.647  0.00  0.00    +0.000 N 
ATOM     17  C   UNL     1       6.328   4.111  16.901  0.00  0.00    +0.000 C 
ATOM     18  O   UNL     1       6.450   3.922  15.692  0.00  0.00    +0.000 OA
ATOM     19  H   UNL     1       8.329   4.390  17.159  0.00  0.00    +0.000 HD
ENDBRANCH   8  11
BRANCH   1  20
ATOM     20  O   UNL     1       2.141   8.851  18.770  0.00  0.00    +0.000 OA
BRANCH  20  21
ATOM     21  C   UNL     1       0.906   9.295  18.173  0.00  0.00    +0.000 C 
BRANCH  21  25
ATOM     22  C   UNL     1      -1.619  11.874  20.685  0.00  0.00    +0.000 A 
ATOM     23  C   UNL     1      -1.879  11.709  19.316  0.00  0.00    +0.000 A 
ATOM     24  C   UNL     1      -1.042  10.917  18.505  0.00  0.00    +0.000 A 
ATOM     25  C   UNL     1       0.079  10.258  19.031  0.00  0.00    +0.000 A 
ATOM     26  C   UNL     1       0.340  10.429  20.403  0.00  0.00    +0.000 A 
ATOM     27  C   UNL     1      -0.495  11.222  21.215  0.00  0.00    +0.000 A 
BRANCH  22  28
ATOM     28  C   UNL     1      -2.465  12.799  21.554  0.00  0.00    +0.000 C 
BRANCH  28  33
ATOM     29  C   UNL     1      -4.699  16.054  24.346  0.00  0.00    +0.000 C 
ATOM     30  N   UNL     1      -3.799  14.904  24.359  0.00  0.00    +0.000 NA
ATOM     31  C   UNL     1      -2.548  15.195  23.632  0.00  0.00    +0.000 C 
ATOM     32  C   UNL     1      -1.604  13.969  23.548  0.00  0.00    +0.000 C 
ATOM     33  N   UNL     1      -2.213  12.734  23.008  0.00  0.00    +0.000 NA
ATOM     34  C   UNL     1      -3.475  12.499  23.756  0.00  0.00    +0.000 C 
ATOM     35  C   UNL     1      -4.448  13.706  23.799  0.00  0.00    +0.000 C 
ENDBRANCH  28  33
ENDBRANCH  22  28
ENDBRANCH  21  25
ENDBRANCH  20  21
ENDBRANCH   1  20
TORSDOF 6
ENDMDL
MODEL 9
REMARK VINA RESULT:      -8.8      1.524      2.042
REMARK  Name = 
REMARK  7 active torsions:
REMARK  status: ('A' for Active; 'I' for Inactive)
REMARK    1  A    between atoms: C_1  and  N_2
REMARK    2  A    between atoms: N_5  and  C_6
REMARK    3  A    between atoms: C_6  and  C_7
REMARK    4  A    between atoms: C_10  and  C_11
REMARK    5  A    between atoms: C_11  and  O_12
REMARK    6  A    between atoms: O_12  and  C_13
REMARK    7  A    between atoms: N_20  and  C_21
REMARK                            x       y       z     vdW  Elec       q    Type
REMARK                         _______ _______ _______ _____ _____    ______ ____
ROOT
ATOM      1  C   UNL     1       8.782  10.517  18.353  0.00  0.00    +0.000 A 
ATOM      2  C   UNL     1       9.473  10.187  19.528  0.00  0.00    +0.000 A 
ATOM      3  C   UNL     1      10.344  11.110  20.148  0.00  0.00    +0.000 A 
ATOM      4  C   UNL     1      10.697  12.282  19.490  0.00  0.00    +0.000 A 
ATOM      5  C   UNL     1      10.045  12.551  18.305  0.00  0.00    +0.000 A 
ATOM      6  C   UNL     1       8.919  11.827  17.936  0.00  0.00    +0.000 A 
ATOM      7  C   UNL     1       7.854  12.859  17.616  0.00  0.00    +0.000 C 
ATOM      8  N   UNL     1       8.559  14.163  17.778  0.00  0.00    +0.000 N 
ATOM      9  C   UNL     1       9.917  13.878  17.726  0.00  0.00    +0.000 C 
ATOM     10  O   UNL     1      10.829  14.578  17.341  0.00  0.00    +0.000 OA
ENDROOT
BRANCH   8  11
ATOM     11  C   UNL     1       8.207  15.111  18.878  0.00  0.00    +0.000 C 
ATOM     12  C   UNL     1       8.893  14.779  20.226  0.00  0.00    +0.000 C 
ATOM     13  C   UNL     1       8.056  13.896  21.155  0.00  0.00    +0.000 C 
ATOM     14  C   UNL     1       6.714  14.512  21.432  0.00  0.00    +0.000 C 
ATOM     15  O   UNL     1       6.109  14.367  22.477  0.00  0.00    +0.000 OA
ATOM     16  N   UNL     1       6.166  15.199  20.373  0.00  0.00    +0.000 N 
ATOM     17  C   UNL     1       6.686  15.384  19.108  0.00  0.00    +0.000 C 
ATOM     18  O   UNL     1       5.940  15.755  18.204  0.00  0.00    +0.000 OA
ATOM     19  H   UNL     1       5.201  15.467  20.500  0.00  0.00    +0.000 HD
ENDBRANCH   8  11
BRANCH   1  20
ATOM     20  O   UNL     1       8.062   9.518  17.744  0.00  0.00    +0.000 OA
BRANCH  20  21
ATOM     21  C   UNL     1       8.401   8.171  18.131  0.00  0.00    +0.000 C 
BRANCH  21  25
ATOM     22  C   UNL     1       5.043   5.342  17.882  0.00  0.00    +0.000 A 
ATOM     23  C   UNL     1       6.145   5.096  18.715  0.00  0.00    +0.000 A 
ATOM     24  C   UNL     1       7.240   5.982  18.759  0.00  0.00    +0.000 A 
ATOM     25  C   UNL     1       7.271   7.147  17.979  0.00  0.00    +0.000 A 
ATOM     26  C   UNL     1       6.167   7.390  17.141  0.00  0.00    +0.000 A 
ATOM     27  C   UNL     1       5.073   6.503  17.094  0.00  0.00    +0.000 A 
BRANCH  22  28
ATOM     28  C   UNL     1       3.894   4.347  17.758  0.00  0.00    +0.000 C 
BRANCH  28  33
ATOM     29  C   UNL     1       1.422   2.691  21.570  0.00  0.00    +0.000 C 
ATOM     30  N   UNL     1       1.376   3.618  20.443  0.00  0.00    +0.000 NA
ATOM     31  C   UNL     1       1.441   2.899  19.155  0.00  0.00    +0.000 C 
ATOM     32  C   UNL     1       1.484   3.855  17.936  0.00  0.00    +0.000 C 
ATOM     33  N   UNL     1       2.538   4.890  17.977  0.00  0.00    +0.000 NA
ATOM     34  C   UNL     1       2.444   5.567  19.296  0.00  0.00    +0.000 C 
ATOM     35  C   UNL     1       2.454   4.618  20.524  0.00  0.00    +0.000 C 
ENDBRANCH  28  33
ENDBRANCH  22  28
ENDBRANCH  21  25
ENDBRANCH  20  21
ENDBRANCH   1  20
TORSDOF 6
ENDMDL
