MODEL 1
REMARK VINA RESULT:      -7.9      0.000      0.000
REMARK  Name = 
REMARK  6 active torsions:
REMARK  status: ('A' for Active; 'I' for Inactive)
REMARK    1  A    between atoms: C_1  and  C_2
REMARK    2  A    between atoms: C_5  and  C_6
REMARK    3  A    between atoms: N_8  and  C_9
REMARK    4  A    between atoms: N_17  and  O_18
REMARK    5  A    between atoms: C_19  and  C_20
REMARK    6  A    between atoms: C_19  and  C_21
REMARK                            x       y       z     vdW  Elec       q    Type
REMARK                         _______ _______ _______ _____ _____    ______ ____
ROOT
ATOM      1  C   UNL     1       1.240   2.807  20.158  0.00  0.00    +0.000 C 
ATOM      2  C   UNL     1       2.442   3.576  19.658  0.00  0.00    +0.000 C 
ATOM      3  C   UNL     1       3.809   3.058  20.164  0.00  0.00    +0.000 C 
ATOM      4  C   UNL     1       4.822   3.714  19.193  0.00  0.00    +0.000 C 
ATOM      5  C   UNL     1       3.923   4.563  18.254  0.00  0.00    +0.000 C 
ATOM      6  C   UNL     1       3.433   5.786  19.076  0.00  0.00    +0.000 C 
ATOM      7  C   UNL     1       2.474   5.067  20.004  0.00  0.00    +0.000 C 
ATOM      8  N   UNL     1       1.785   5.575  20.975  0.00  0.00    +0.000 NA
ATOM      9  C   UNL     1       2.631   3.664  18.120  0.00  0.00    +0.000 C 
ATOM     10  C   UNL     1       1.433   4.324  17.391  0.00  0.00    +0.000 C 
ATOM     11  C   UNL     1       2.858   2.287  17.449  0.00  0.00    +0.000 C 
ENDROOT
BRANCH   5  12
ATOM     12  C   UNL     1       4.541   4.927  16.908  0.00  0.00    +0.000 C 
ATOM     13  O   UNL     1       4.430   6.071  16.472  0.00  0.00    +0.000 OA
ATOM     14  N   UNL     1       5.195   3.911  16.236  0.00  0.00    +0.000 N 
ATOM     15  H   UNL     1       5.037   2.955  16.528  0.00  0.00    +0.000 HD
BRANCH  14  16
ATOM     16  C   UNL     1       5.902   4.102  15.019  0.00  0.00    +0.000 A 
ATOM     17  C   UNL     1       7.050   4.902  14.925  0.00  0.00    +0.000 A 
ATOM     18  C   UNL     1       7.692   5.113  13.705  0.00  0.00    +0.000 A 
ATOM     19  C   UNL     1       7.204   4.507  12.555  0.00  0.00    +0.000 A 
ATOM     20  C   UNL     1       6.086   3.681  12.634  0.00  0.00    +0.000 A 
ATOM     21  C   UNL     1       5.441   3.469  13.860  0.00  0.00    +0.000 A 
ENDBRANCH  14  16
ENDBRANCH   5  12
BRANCH   8  22
ATOM     22  O   UNL     1       2.014   6.950  21.073  0.00  0.00    +0.000 OA
ATOM     23  H   UNL     1       1.467   7.194  21.844  0.00  0.00    +0.000 HD
ENDBRANCH   8  22
TORSDOF 3
ENDMDL
MODEL 2
REMARK VINA RESULT:      -7.8      0.078      1.050
REMARK  Name = 
REMARK  6 active torsions:
REMARK  status: ('A' for Active; 'I' for Inactive)
REMARK    1  A    between atoms: C_1  and  C_2
REMARK    2  A    between atoms: C_5  and  C_6
REMARK    3  A    between atoms: N_8  and  C_9
REMARK    4  A    between atoms: N_17  and  O_18
REMARK    5  A    between atoms: C_19  and  C_20
REMARK    6  A    between atoms: C_19  and  C_21
REMARK                            x       y       z     vdW  Elec       q    Type
REMARK                         _______ _______ _______ _____ _____    ______ ____
ROOT
ATOM      1  C   UNL     1       1.202   2.801  20.158  0.00  0.00    +0.000 C 
ATOM      2  C   UNL     1       2.402   3.572  19.655  0.00  0.00    +0.000 C 
ATOM      3  C   UNL     1       3.772   3.046  20.145  0.00  0.00    +0.000 C 
ATOM      4  C   UNL     1       4.778   3.710  19.171  0.00  0.00    +0.000 C 
ATOM      5  C   UNL     1       3.873   4.568  18.248  0.00  0.00    +0.000 C 
ATOM      6  C   UNL     1       3.393   5.785  19.084  0.00  0.00    +0.000 C 
ATOM      7  C   UNL     1       2.440   5.059  20.014  0.00  0.00    +0.000 C 
ATOM      8  N   UNL     1       1.760   5.560  20.995  0.00  0.00    +0.000 NA
ATOM      9  C   UNL     1       2.579   3.673  18.116  0.00  0.00    +0.000 C 
ATOM     10  C   UNL     1       1.376   4.341  17.403  0.00  0.00    +0.000 C 
ATOM     11  C   UNL     1       2.798   2.302  17.431  0.00  0.00    +0.000 C 
ENDROOT
BRANCH   5  12
ATOM     12  C   UNL     1       4.481   4.943  16.900  0.00  0.00    +0.000 C 
ATOM     13  O   UNL     1       4.382   6.095  16.483  0.00  0.00    +0.000 OA
ATOM     14  N   UNL     1       5.111   3.928  16.205  0.00  0.00    +0.000 N 
ATOM     15  H   UNL     1       4.942   2.969  16.485  0.00  0.00    +0.000 HD
BRANCH  14  16
ATOM     16  C   UNL     1       5.807   4.126  14.982  0.00  0.00    +0.000 A 
ATOM     17  C   UNL     1       5.363   3.597  13.762  0.00  0.00    +0.000 A 
ATOM     18  C   UNL     1       6.095   3.765  12.587  0.00  0.00    +0.000 A 
ATOM     19  C   UNL     1       7.282   4.486  12.611  0.00  0.00    +0.000 A 
ATOM     20  C   UNL     1       7.720   5.050  13.806  0.00  0.00    +0.000 A 
ATOM     21  C   UNL     1       6.984   4.881  14.987  0.00  0.00    +0.000 A 
ENDBRANCH  14  16
ENDBRANCH   5  12
BRANCH   8  22
ATOM     22  O   UNL     1       1.992   6.933  21.103  0.00  0.00    +0.000 OA
ATOM     23  H   UNL     1       2.908   7.012  20.773  0.00  0.00    +0.000 HD
ENDBRANCH   8  22
TORSDOF 3
ENDMDL
MODEL 3
REMARK VINA RESULT:      -7.5      1.752      2.322
REMARK  Name = 
REMARK  6 active torsions:
REMARK  status: ('A' for Active; 'I' for Inactive)
REMARK    1  A    between atoms: C_1  and  C_2
REMARK    2  A    between atoms: C_5  and  C_6
REMARK    3  A    between atoms: N_8  and  C_9
REMARK    4  A    between atoms: N_17  and  O_18
REMARK    5  A    between atoms: C_19  and  C_20
REMARK    6  A    between atoms: C_19  and  C_21
REMARK                            x       y       z     vdW  Elec       q    Type
REMARK                         _______ _______ _______ _____ _____    ______ ____
ROOT
ATOM      1  C   UNL     1       1.364   3.580  20.727  0.00  0.00    +0.000 C 
ATOM      2  C   UNL     1       2.337   3.230  19.624  0.00  0.00    +0.000 C 
ATOM      3  C   UNL     1       1.832   2.168  18.618  0.00  0.00    +0.000 C 
ATOM      4  C   UNL     1       2.796   2.328  17.415  0.00  0.00    +0.000 C 
ATOM      5  C   UNL     1       3.767   3.447  17.878  0.00  0.00    +0.000 C 
ATOM      6  C   UNL     1       4.700   2.823  18.952  0.00  0.00    +0.000 C 
ATOM      7  C   UNL     1       3.692   2.681  20.075  0.00  0.00    +0.000 C 
ATOM      8  N   UNL     1       3.881   2.157  21.243  0.00  0.00    +0.000 NA
ATOM      9  C   UNL     1       2.819   4.393  18.715  0.00  0.00    +0.000 C 
ATOM     10  C   UNL     1       3.529   5.527  19.496  0.00  0.00    +0.000 C 
ATOM     11  C   UNL     1       1.676   5.055  17.906  0.00  0.00    +0.000 C 
ENDROOT
BRANCH   5  12
ATOM     12  C   UNL     1       4.506   4.176  16.762  0.00  0.00    +0.000 C 
ATOM     13  O   UNL     1       4.435   5.401  16.678  0.00  0.00    +0.000 OA
ATOM     14  N   UNL     1       5.220   3.388  15.878  0.00  0.00    +0.000 N 
ATOM     15  H   UNL     1       5.036   2.393  15.857  0.00  0.00    +0.000 HD
BRANCH  14  16
ATOM     16  C   UNL     1       6.036   3.913  14.840  0.00  0.00    +0.000 A 
ATOM     17  C   UNL     1       7.052   4.850  15.074  0.00  0.00    +0.000 A 
ATOM     18  C   UNL     1       7.802   5.386  14.026  0.00  0.00    +0.000 A 
ATOM     19  C   UNL     1       7.557   4.975  12.722  0.00  0.00    +0.000 A 
ATOM     20  C   UNL     1       6.576   4.019  12.474  0.00  0.00    +0.000 A 
ATOM     21  C   UNL     1       5.823   3.480  13.527  0.00  0.00    +0.000 A 
ENDBRANCH  14  16
ENDBRANCH   5  12
BRANCH   8  22
ATOM     22  O   UNL     1       5.203   1.729  21.382  0.00  0.00    +0.000 OA
ATOM     23  H   UNL     1       5.640   2.167  20.626  0.00  0.00    +0.000 HD
ENDBRANCH   8  22
TORSDOF 3
ENDMDL
MODEL 4
REMARK VINA RESULT:      -7.5      1.784      2.563
REMARK  Name = 
REMARK  6 active torsions:
REMARK  status: ('A' for Active; 'I' for Inactive)
REMARK    1  A    between atoms: C_1  and  C_2
REMARK    2  A    between atoms: C_5  and  C_6
REMARK    3  A    between atoms: N_8  and  C_9
REMARK    4  A    between atoms: N_17  and  O_18
REMARK    5  A    between atoms: C_19  and  C_20
REMARK    6  A    between atoms: C_19  and  C_21
REMARK                            x       y       z     vdW  Elec       q    Type
REMARK                         _______ _______ _______ _____ _____    ______ ____
ROOT
ATOM      1  C   UNL     1       1.299   3.499  20.850  0.00  0.00    +0.000 C 
ATOM      2  C   UNL     1       2.264   3.167  19.734  0.00  0.00    +0.000 C 
ATOM      3  C   UNL     1       1.753   2.120  18.715  0.00  0.00    +0.000 C 
ATOM      4  C   UNL     1       2.708   2.300  17.509  0.00  0.00    +0.000 C 
ATOM      5  C   UNL     1       3.682   3.411  17.983  0.00  0.00    +0.000 C 
ATOM      6  C   UNL     1       4.623   2.772  19.040  0.00  0.00    +0.000 C 
ATOM      7  C   UNL     1       3.622   2.611  20.167  0.00  0.00    +0.000 C 
ATOM      8  N   UNL     1       3.819   2.068  21.326  0.00  0.00    +0.000 NA
ATOM      9  C   UNL     1       2.739   4.344  18.840  0.00  0.00    +0.000 C 
ATOM     10  C   UNL     1       3.455   5.466  19.635  0.00  0.00    +0.000 C 
ATOM     11  C   UNL     1       1.591   5.018  18.051  0.00  0.00    +0.000 C 
ENDROOT
BRANCH   5  12
ATOM     12  C   UNL     1       4.413   4.159  16.873  0.00  0.00    +0.000 C 
ATOM     13  O   UNL     1       4.308   5.381  16.785  0.00  0.00    +0.000 OA
ATOM     14  N   UNL     1       5.159   3.390  15.999  0.00  0.00    +0.000 N 
ATOM     15  H   UNL     1       5.003   2.389  15.979  0.00  0.00    +0.000 HD
BRANCH  14  16
ATOM     16  C   UNL     1       5.972   3.934  14.969  0.00  0.00    +0.000 A 
ATOM     17  C   UNL     1       5.814   3.594  13.619  0.00  0.00    +0.000 A 
ATOM     18  C   UNL     1       6.663   4.105  12.636  0.00  0.00    +0.000 A 
ATOM     19  C   UNL     1       7.676   4.986  12.990  0.00  0.00    +0.000 A 
ATOM     20  C   UNL     1       7.825   5.364  14.322  0.00  0.00    +0.000 A 
ATOM     21  C   UNL     1       6.973   4.850  15.309  0.00  0.00    +0.000 A 
ENDBRANCH  14  16
ENDBRANCH   5  12
BRANCH   8  22
ATOM     22  O   UNL     1       5.143   1.639  21.448  0.00  0.00    +0.000 OA
ATOM     23  H   UNL     1       5.501   2.265  22.107  0.00  0.00    +0.000 HD
ENDBRANCH   8  22
TORSDOF 3
ENDMDL
MODEL 5
REMARK VINA RESULT:      -7.4      1.679      2.469
REMARK  Name = 
REMARK  6 active torsions:
REMARK  status: ('A' for Active; 'I' for Inactive)
REMARK    1  A    between atoms: C_1  and  C_2
REMARK    2  A    between atoms: C_5  and  C_6
REMARK    3  A    between atoms: N_8  and  C_9
REMARK    4  A    between atoms: N_17  and  O_18
REMARK    5  A    between atoms: C_19  and  C_20
REMARK    6  A    between atoms: C_19  and  C_21
REMARK                            x       y       z     vdW  Elec       q    Type
REMARK                         _______ _______ _______ _____ _____    ______ ____
ROOT
ATOM      1  C   UNL     1       1.799   5.678  20.317  0.00  0.00    +0.000 C 
ATOM      2  C   UNL     1       2.499   4.761  19.339  0.00  0.00    +0.000 C 
ATOM      3  C   UNL     1       1.584   4.134  18.260  0.00  0.00    +0.000 C 
ATOM      4  C   UNL     1       2.586   3.630  17.191  0.00  0.00    +0.000 C 
ATOM      5  C   UNL     1       3.969   3.997  17.792  0.00  0.00    +0.000 C 
ATOM      6  C   UNL     1       4.233   3.012  18.964  0.00  0.00    +0.000 C 
ATOM      7  C   UNL     1       3.213   3.552  19.948  0.00  0.00    +0.000 C 
ATOM      8  N   UNL     1       2.927   3.088  21.122  0.00  0.00    +0.000 NA
ATOM      9  C   UNL     1       3.669   5.367  18.519  0.00  0.00    +0.000 C 
ATOM     10  C   UNL     1       4.816   5.919  19.403  0.00  0.00    +0.000 C 
ATOM     11  C   UNL     1       3.231   6.521  17.584  0.00  0.00    +0.000 C 
ENDROOT
BRANCH   5  12
ATOM     12  C   UNL     1       5.115   4.091  16.791  0.00  0.00    +0.000 C 
ATOM     13  O   UNL     1       6.277   3.999  17.179  0.00  0.00    +0.000 OA
ATOM     14  N   UNL     1       4.763   4.292  15.469  0.00  0.00    +0.000 N 
ATOM     15  H   UNL     1       3.822   4.601  15.259  0.00  0.00    +0.000 HD
BRANCH  14  16
ATOM     16  C   UNL     1       5.699   4.310  14.400  0.00  0.00    +0.000 A 
ATOM     17  C   UNL     1       6.834   5.133  14.399  0.00  0.00    +0.000 A 
ATOM     18  C   UNL     1       7.707   5.168  13.311  0.00  0.00    +0.000 A 
ATOM     19  C   UNL     1       7.465   4.359  12.208  0.00  0.00    +0.000 A 
ATOM     20  C   UNL     1       6.363   3.509  12.205  0.00  0.00    +0.000 A 
ATOM     21  C   UNL     1       5.486   3.474  13.299  0.00  0.00    +0.000 A 
ENDBRANCH  14  16
ENDBRANCH   5  12
BRANCH   8  22
ATOM     22  O   UNL     1       3.722   1.978  21.418  0.00  0.00    +0.000 OA
ATOM     23  H   UNL     1       3.054   1.280  21.562  0.00  0.00    +0.000 HD
ENDBRANCH   8  22
TORSDOF 3
ENDMDL
MODEL 6
REMARK VINA RESULT:      -7.3      1.796      2.771
REMARK  Name = 
REMARK  6 active torsions:
REMARK  status: ('A' for Active; 'I' for Inactive)
REMARK    1  A    between atoms: C_1  and  C_2
REMARK    2  A    between atoms: C_5  and  C_6
REMARK    3  A    between atoms: N_8  and  C_9
REMARK    4  A    between atoms: N_17  and  O_18
REMARK    5  A    between atoms: C_19  and  C_20
REMARK    6  A    between atoms: C_19  and  C_21
REMARK                            x       y       z     vdW  Elec       q    Type
REMARK                         _______ _______ _______ _____ _____    ______ ____
ROOT
ATOM      1  C   UNL     1       2.408   4.695  20.886  0.00  0.00    +0.000 C 
ATOM      2  C   UNL     1       2.910   4.178  19.557  0.00  0.00    +0.000 C 
ATOM      3  C   UNL     1       1.824   3.566  18.639  0.00  0.00    +0.000 C 
ATOM      4  C   UNL     1       2.509   3.532  17.250  0.00  0.00    +0.000 C 
ATOM      5  C   UNL     1       3.925   4.101  17.531  0.00  0.00    +0.000 C 
ATOM      6  C   UNL     1       4.712   3.005  18.299  0.00  0.00    +0.000 C 
ATOM      7  C   UNL     1       3.979   3.085  19.624  0.00  0.00    +0.000 C 
ATOM      8  N   UNL     1       4.164   2.350  20.674  0.00  0.00    +0.000 NA
ATOM      9  C   UNL     1       3.636   5.194  18.634  0.00  0.00    +0.000 C 
ATOM     10  C   UNL     1       4.890   5.828  19.289  0.00  0.00    +0.000 C 
ATOM     11  C   UNL     1       2.732   6.364  18.177  0.00  0.00    +0.000 C 
ENDROOT
BRANCH   5  12
ATOM     12  C   UNL     1       4.660   4.657  16.317  0.00  0.00    +0.000 C 
ATOM     13  O   UNL     1       4.733   5.873  16.148  0.00  0.00    +0.000 OA
ATOM     14  N   UNL     1       5.204   3.730  15.447  0.00  0.00    +0.000 N 
ATOM     15  H   UNL     1       4.899   2.766  15.512  0.00  0.00    +0.000 HD
BRANCH  14  16
ATOM     16  C   UNL     1       5.997   4.078  14.321  0.00  0.00    +0.000 A 
ATOM     17  C   UNL     1       5.780   3.540  13.045  0.00  0.00    +0.000 A 
ATOM     18  C   UNL     1       6.609   3.861  11.969  0.00  0.00    +0.000 A 
ATOM     19  C   UNL     1       7.662   4.748  12.152  0.00  0.00    +0.000 A 
ATOM     20  C   UNL     1       7.871   5.320  13.403  0.00  0.00    +0.000 A 
ATOM     21  C   UNL     1       7.038   4.998  14.484  0.00  0.00    +0.000 A 
ENDBRANCH  14  16
ENDBRANCH   5  12
BRANCH   8  22
ATOM     22  O   UNL     1       5.192   1.430  20.455  0.00  0.00    +0.000 OA
ATOM     23  H   UNL     1       4.731   0.577  20.575  0.00  0.00    +0.000 HD
ENDBRANCH   8  22
TORSDOF 3
ENDMDL
MODEL 7
REMARK VINA RESULT:      -7.2      1.827      2.562
REMARK  Name = 
REMARK  6 active torsions:
REMARK  status: ('A' for Active; 'I' for Inactive)
REMARK    1  A    between atoms: C_1  and  C_2
REMARK    2  A    between atoms: C_5  and  C_6
REMARK    3  A    between atoms: N_8  and  C_9
REMARK    4  A    between atoms: N_17  and  O_18
REMARK    5  A    between atoms: C_19  and  C_20
REMARK    6  A    between atoms: C_19  and  C_21
REMARK                            x       y       z     vdW  Elec       q    Type
REMARK                         _______ _______ _______ _____ _____    ______ ____
ROOT
ATOM      1  C   UNL     1       2.592   4.487  21.200  0.00  0.00    +0.000 C 
ATOM      2  C   UNL     1       2.722   4.468  19.694  0.00  0.00    +0.000 C 
ATOM      3  C   UNL     1       2.439   5.819  18.994  0.00  0.00    +0.000 C 
ATOM      4  C   UNL     1       3.050   5.625  17.584  0.00  0.00    +0.000 C 
ATOM      5  C   UNL     1       3.590   4.171  17.621  0.00  0.00    +0.000 C 
ATOM      6  C   UNL     1       2.359   3.226  17.565  0.00  0.00    +0.000 C 
ATOM      7  C   UNL     1       1.811   3.485  18.956  0.00  0.00    +0.000 C 
ATOM      8  N   UNL     1       0.731   3.001  19.481  0.00  0.00    +0.000 NA
ATOM      9  C   UNL     1       4.095   4.036  19.111  0.00  0.00    +0.000 C 
ATOM     10  C   UNL     1       4.524   2.611  19.544  0.00  0.00    +0.000 C 
ATOM     11  C   UNL     1       5.254   4.988  19.499  0.00  0.00    +0.000 C 
ENDROOT
BRANCH   5  12
ATOM     12  C   UNL     1       4.668   3.846  16.593  0.00  0.00    +0.000 C 
ATOM     13  O   UNL     1       5.329   2.816  16.703  0.00  0.00    +0.000 OA
ATOM     14  N   UNL     1       4.849   4.767  15.578  0.00  0.00    +0.000 N 
ATOM     15  H   UNL     1       4.452   5.693  15.685  0.00  0.00    +0.000 HD
BRANCH  14  16
ATOM     16  C   UNL     1       5.744   4.575  14.491  0.00  0.00    +0.000 A 
ATOM     17  C   UNL     1       6.975   5.239  14.396  0.00  0.00    +0.000 A 
ATOM     18  C   UNL     1       7.810   5.069  13.291  0.00  0.00    +0.000 A 
ATOM     19  C   UNL     1       7.431   4.211  12.267  0.00  0.00    +0.000 A 
ATOM     20  C   UNL     1       6.229   3.515  12.360  0.00  0.00    +0.000 A 
ATOM     21  C   UNL     1       5.390   3.686  13.471  0.00  0.00    +0.000 A 
ENDBRANCH  14  16
ENDBRANCH   5  12
BRANCH   8  22
ATOM     22  O   UNL     1       0.091   2.142  18.584  0.00  0.00    +0.000 OA
ATOM     23  H   UNL     1      -0.239   2.763  17.907  0.00  0.00    +0.000 HD
ENDBRANCH   8  22
TORSDOF 3
ENDMDL
MODEL 8
REMARK VINA RESULT:      -7.1      3.184      6.503
REMARK  Name = 
REMARK  6 active torsions:
REMARK  status: ('A' for Active; 'I' for Inactive)
REMARK    1  A    between atoms: C_1  and  C_2
REMARK    2  A    between atoms: C_5  and  C_6
REMARK    3  A    between atoms: N_8  and  C_9
REMARK    4  A    between atoms: N_17  and  O_18
REMARK    5  A    between atoms: C_19  and  C_20
REMARK    6  A    between atoms: C_19  and  C_21
REMARK                            x       y       z     vdW  Elec       q    Type
REMARK                         _______ _______ _______ _____ _____    ______ ____
ROOT
ATOM      1  C   UNL     1       3.395   1.828  17.458  0.00  0.00    +0.000 C 
ATOM      2  C   UNL     1       3.517   3.051  18.337  0.00  0.00    +0.000 C 
ATOM      3  C   UNL     1       4.425   4.173  17.778  0.00  0.00    +0.000 C 
ATOM      4  C   UNL     1       4.028   5.409  18.624  0.00  0.00    +0.000 C 
ATOM      5  C   UNL     1       2.956   4.850  19.598  0.00  0.00    +0.000 C 
ATOM      6  C   UNL     1       3.702   3.977  20.643  0.00  0.00    +0.000 C 
ATOM      7  C   UNL     1       4.070   2.812  19.744  0.00  0.00    +0.000 C 
ATOM      8  N   UNL     1       4.767   1.766  20.054  0.00  0.00    +0.000 NA
ATOM      9  C   UNL     1       2.202   3.793  18.700  0.00  0.00    +0.000 C 
ATOM     10  C   UNL     1       1.178   2.897  19.442  0.00  0.00    +0.000 C 
ATOM     11  C   UNL     1       1.470   4.382  17.469  0.00  0.00    +0.000 C 
ENDROOT
BRANCH   5  12
ATOM     12  C   UNL     1       2.023   5.889  20.210  0.00  0.00    +0.000 C 
ATOM     13  O   UNL     1       1.095   5.529  20.931  0.00  0.00    +0.000 OA
ATOM     14  N   UNL     1       2.279   7.210  19.894  0.00  0.00    +0.000 N 
ATOM     15  H   UNL     1       2.891   7.413  19.113  0.00  0.00    +0.000 HD
BRANCH  14  16
ATOM     16  C   UNL     1       1.565   8.305  20.451  0.00  0.00    +0.000 A 
ATOM     17  C   UNL     1       1.395   8.475  21.832  0.00  0.00    +0.000 A 
ATOM     18  C   UNL     1       0.643   9.532  22.348  0.00  0.00    +0.000 A 
ATOM     19  C   UNL     1       0.063  10.451  21.483  0.00  0.00    +0.000 A 
ATOM     20  C   UNL     1       0.251  10.319  20.110  0.00  0.00    +0.000 A 
ATOM     21  C   UNL     1       1.006   9.257  19.592  0.00  0.00    +0.000 A 
ENDBRANCH  14  16
ENDBRANCH   5  12
BRANCH   8  22
ATOM     22  O   UNL     1       5.152   1.812  21.396  0.00  0.00    +0.000 OA
ATOM     23  H   UNL     1       5.874   2.469  21.379  0.00  0.00    +0.000 HD
ENDBRANCH   8  22
TORSDOF 3
ENDMDL
MODEL 9
REMARK VINA RESULT:      -7.1      3.119      5.923
REMARK  Name = 
REMARK  6 active torsions:
REMARK  status: ('A' for Active; 'I' for Inactive)
REMARK    1  A    between atoms: C_1  and  C_2
REMARK    2  A    between atoms: C_5  and  C_6
REMARK    3  A    between atoms: N_8  and  C_9
REMARK    4  A    between atoms: N_17  and  O_18
REMARK    5  A    between atoms: C_19  and  C_20
REMARK    6  A    between atoms: C_19  and  C_21
REMARK                            x       y       z     vdW  Elec       q    Type
REMARK                         _______ _______ _______ _____ _____    ______ ____
ROOT
ATOM      1  C   UNL     1       3.345   1.692  18.310  0.00  0.00    +0.000 C 
ATOM      2  C   UNL     1       3.451   3.030  19.006  0.00  0.00    +0.000 C 
ATOM      3  C   UNL     1       4.890   3.464  19.378  0.00  0.00    +0.000 C 
ATOM      4  C   UNL     1       4.745   4.981  19.655  0.00  0.00    +0.000 C 
ATOM      5  C   UNL     1       3.230   5.244  19.442  0.00  0.00    +0.000 C 
ATOM      6  C   UNL     1       2.485   4.627  20.656  0.00  0.00    +0.000 C 
ATOM      7  C   UNL     1       2.687   3.160  20.325  0.00  0.00    +0.000 C 
ATOM      8  N   UNL     1       2.319   2.136  21.026  0.00  0.00    +0.000 NA
ATOM      9  C   UNL     1       2.881   4.263  18.254  0.00  0.00    +0.000 C 
ATOM     10  C   UNL     1       1.374   4.132  17.918  0.00  0.00    +0.000 C 
ATOM     11  C   UNL     1       3.612   4.561  16.922  0.00  0.00    +0.000 C 
ENDROOT
BRANCH   5  12
ATOM     12  C   UNL     1       2.851   6.692  19.152  0.00  0.00    +0.000 C 
ATOM     13  O   UNL     1       3.293   7.252  18.151  0.00  0.00    +0.000 OA
ATOM     14  N   UNL     1       2.019   7.307  20.069  0.00  0.00    +0.000 N 
ATOM     15  H   UNL     1       1.897   6.877  20.978  0.00  0.00    +0.000 HD
BRANCH  14  16
ATOM     16  C   UNL     1       1.497   8.618  19.902  0.00  0.00    +0.000 A 
ATOM     17  C   UNL     1       1.432   9.256  18.656  0.00  0.00    +0.000 A 
ATOM     18  C   UNL     1       0.964  10.564  18.532  0.00  0.00    +0.000 A 
ATOM     19  C   UNL     1       0.532  11.251  19.659  0.00  0.00    +0.000 A 
ATOM     20  C   UNL     1       0.555  10.621  20.900  0.00  0.00    +0.000 A 
ATOM     21  C   UNL     1       1.026   9.307  21.025  0.00  0.00    +0.000 A 
ENDBRANCH  14  16
ENDBRANCH   5  12
BRANCH   8  22
ATOM     22  O   UNL     1       1.652   2.545  22.183  0.00  0.00    +0.000 OA
ATOM     23  H   UNL     1       2.361   3.001  22.677  0.00  0.00    +0.000 HD
ENDBRANCH   8  22
TORSDOF 3
ENDMDL
