MODEL 1
REMARK VINA RESULT:      -7.3      0.000      0.000
REMARK  Name = 
REMARK  5 active torsions:
REMARK  status: ('A' for Active; 'I' for Inactive)
REMARK    1  A    between atoms: C_1  and  C_2
REMARK    2  A    between atoms: C_2  and  N_3
REMARK    3  A    between atoms: C_7  and  C_8
REMARK    4  A    between atoms: C_8  and  N_9
REMARK    5  A    between atoms: C_10  and  C_12
REMARK                            x       y       z     vdW  Elec       q    Type
REMARK                         _______ _______ _______ _____ _____    ______ ____
ROOT
ATOM      1  N   UNL     1       4.961   4.536  16.083  0.00  0.00    +0.000 N 
ATOM      2  C   UNL     1       5.204   4.923  17.382  0.00  0.00    +0.000 C 
ATOM      3  O   UNL     1       6.158   4.506  18.028  0.00  0.00    +0.000 OA
ATOM      4  H   UNL     1       4.041   4.674  15.675  0.00  0.00    +0.000 HD
ENDROOT
BRANCH   2   5
ATOM      5  C   UNL     1       4.240   5.879  18.000  0.00  0.00    +0.000 A 
ATOM      6  C   UNL     1       3.610   5.598  19.234  0.00  0.00    +0.000 A 
ATOM      7  C   UNL     1       2.648   6.474  19.756  0.00  0.00    +0.000 A 
ATOM      8  C   UNL     1       2.346   7.608  19.032  0.00  0.00    +0.000 A 
ATOM      9  C   UNL     1       2.959   7.886  17.833  0.00  0.00    +0.000 A 
ATOM     10  C   UNL     1       3.906   7.043  17.288  0.00  0.00    +0.000 A 
ATOM     11  O   UNL     1       2.513   9.047  17.281  0.00  0.00    +0.000 OA
ATOM     12  C   UNL     1       1.539   9.460  18.263  0.00  0.00    +0.000 C 
ATOM     13  O   UNL     1       1.430   8.552  19.378  0.00  0.00    +0.000 OA
ENDBRANCH   2   5
BRANCH   1  14
ATOM     14  C   UNL     1       5.822   3.568  15.433  0.00  0.00    +0.000 C 
BRANCH  14  19
ATOM     15  N   UNL     1       6.696   3.990  13.073  0.00  0.00    +0.000 N 
ATOM     16  C   UNL     1       7.563   4.890  12.529  0.00  0.00    +0.000 A 
ATOM     17  N   UNL     1       8.047   5.663  13.472  0.00  0.00    +0.000 NA
ATOM     18  N   UNL     1       7.480   5.271  14.659  0.00  0.00    +0.000 NA
ATOM     19  C   UNL     1       6.661   4.264  14.418  0.00  0.00    +0.000 A 
BRANCH  15  21
ATOM     20  C   UNL     1       4.628   3.510  11.818  0.00  0.00    +0.000 C 
ATOM     21  C   UNL     1       5.968   2.996  12.319  0.00  0.00    +0.000 C 
ENDBRANCH  15  21
ENDBRANCH  14  19
ENDBRANCH   1  14
TORSDOF 4
ENDMDL
MODEL 2
REMARK VINA RESULT:      -7.1      0.777      1.646
REMARK  Name = 
REMARK  5 active torsions:
REMARK  status: ('A' for Active; 'I' for Inactive)
REMARK    1  A    between atoms: C_1  and  C_2
REMARK    2  A    between atoms: C_2  and  N_3
REMARK    3  A    between atoms: C_7  and  C_8
REMARK    4  A    between atoms: C_8  and  N_9
REMARK    5  A    between atoms: C_10  and  C_12
REMARK                            x       y       z     vdW  Elec       q    Type
REMARK                         _______ _______ _______ _____ _____    ______ ____
ROOT
ATOM      1  N   UNL     1       5.004   4.544  15.996  0.00  0.00    +0.000 N 
ATOM      2  C   UNL     1       5.204   4.994  17.282  0.00  0.00    +0.000 C 
ATOM      3  O   UNL     1       6.166   4.655  17.959  0.00  0.00    +0.000 OA
ATOM      4  H   UNL     1       4.086   4.616  15.568  0.00  0.00    +0.000 HD
ENDROOT
BRANCH   2   5
ATOM      5  C   UNL     1       4.180   5.923  17.845  0.00  0.00    +0.000 A 
ATOM      6  C   UNL     1       3.903   7.170  17.240  0.00  0.00    +0.000 A 
ATOM      7  C   UNL     1       2.996   8.061  17.831  0.00  0.00    +0.000 A 
ATOM      8  C   UNL     1       2.388   7.678  19.008  0.00  0.00    +0.000 A 
ATOM      9  C   UNL     1       2.654   6.464  19.597  0.00  0.00    +0.000 A 
ATOM     10  C   UNL     1       3.545   5.566  19.045  0.00  0.00    +0.000 A 
ATOM     11  O   UNL     1       1.956   6.287  20.753  0.00  0.00    +0.000 OA
ATOM     12  C   UNL     1       1.233   7.534  20.829  0.00  0.00    +0.000 C 
ATOM     13  O   UNL     1       1.501   8.420  19.723  0.00  0.00    +0.000 OA
ENDBRANCH   2   5
BRANCH   1  14
ATOM     14  C   UNL     1       5.926   3.596  15.400  0.00  0.00    +0.000 C 
BRANCH  14  19
ATOM     15  N   UNL     1       6.700   4.006  13.004  0.00  0.00    +0.000 N 
ATOM     16  C   UNL     1       7.545   4.902  12.419  0.00  0.00    +0.000 A 
ATOM     17  N   UNL     1       8.068   5.679  13.337  0.00  0.00    +0.000 NA
ATOM     18  N   UNL     1       7.552   5.294  14.548  0.00  0.00    +0.000 NA
ATOM     19  C   UNL     1       6.722   4.286  14.348  0.00  0.00    +0.000 A 
BRANCH  15  21
ATOM     20  C   UNL     1       4.627   3.553  11.745  0.00  0.00    +0.000 C 
ATOM     21  C   UNL     1       5.939   3.009  12.285  0.00  0.00    +0.000 C 
ENDBRANCH  15  21
ENDBRANCH  14  19
ENDBRANCH   1  14
TORSDOF 4
ENDMDL
MODEL 3
REMARK VINA RESULT:      -7.0      2.265      3.606
REMARK  Name = 
REMARK  5 active torsions:
REMARK  status: ('A' for Active; 'I' for Inactive)
REMARK    1  A    between atoms: C_1  and  C_2
REMARK    2  A    between atoms: C_2  and  N_3
REMARK    3  A    between atoms: C_7  and  C_8
REMARK    4  A    between atoms: C_8  and  N_9
REMARK    5  A    between atoms: C_10  and  C_12
REMARK                            x       y       z     vdW  Elec       q    Type
REMARK                         _______ _______ _______ _____ _____    ______ ____
ROOT
ATOM      1  N   UNL     1       3.333   5.623  17.766  0.00  0.00    +0.000 N 
ATOM      2  C   UNL     1       2.881   6.061  18.991  0.00  0.00    +0.000 C 
ATOM      3  O   UNL     1       2.996   5.398  20.014  0.00  0.00    +0.000 OA
ATOM      4  H   UNL     1       2.990   6.054  16.913  0.00  0.00    +0.000 HD
ENDROOT
BRANCH   2   5
ATOM      5  C   UNL     1       2.221   7.399  19.035  0.00  0.00    +0.000 A 
ATOM      6  C   UNL     1       2.166   8.232  17.894  0.00  0.00    +0.000 A 
ATOM      7  C   UNL     1       1.612   9.518  17.979  0.00  0.00    +0.000 A 
ATOM      8  C   UNL     1       1.125   9.932  19.201  0.00  0.00    +0.000 A 
ATOM      9  C   UNL     1       1.176   9.123  20.311  0.00  0.00    +0.000 A 
ATOM     10  C   UNL     1       1.719   7.855  20.265  0.00  0.00    +0.000 A 
ATOM     11  O   UNL     1       0.650   9.725  21.414  0.00  0.00    +0.000 OA
ATOM     12  C   UNL     1       0.277  11.009  20.872  0.00  0.00    +0.000 C 
ATOM     13  O   UNL     1       0.575  11.146  19.467  0.00  0.00    +0.000 OA
ENDBRANCH   2   5
BRANCH   1  14
ATOM     14  C   UNL     1       3.935   4.311  17.635  0.00  0.00    +0.000 C 
BRANCH  14  19
ATOM     15  N   UNL     1       6.254   4.792  16.684  0.00  0.00    +0.000 N 
ATOM     16  C   UNL     1       7.508   4.830  17.215  0.00  0.00    +0.000 A 
ATOM     17  N   UNL     1       7.459   4.514  18.487  0.00  0.00    +0.000 NA
ATOM     18  N   UNL     1       6.146   4.272  18.802  0.00  0.00    +0.000 NA
ATOM     19  C   UNL     1       5.416   4.444  17.715  0.00  0.00    +0.000 A 
BRANCH  15  21
ATOM     20  C   UNL     1       6.104   3.904  14.387  0.00  0.00    +0.000 C 
ATOM     21  C   UNL     1       5.938   5.101  15.308  0.00  0.00    +0.000 C 
ENDBRANCH  15  21
ENDBRANCH  14  19
ENDBRANCH   1  14
TORSDOF 4
ENDMDL
MODEL 4
REMARK VINA RESULT:      -7.0      3.532      6.853
REMARK  Name = 
REMARK  5 active torsions:
REMARK  status: ('A' for Active; 'I' for Inactive)
REMARK    1  A    between atoms: C_1  and  C_2
REMARK    2  A    between atoms: C_2  and  N_3
REMARK    3  A    between atoms: C_7  and  C_8
REMARK    4  A    between atoms: C_8  and  N_9
REMARK    5  A    between atoms: C_10  and  C_12
REMARK                            x       y       z     vdW  Elec       q    Type
REMARK                         _______ _______ _______ _____ _____    ______ ____
ROOT
ATOM      1  N   UNL     1       3.674   5.610  19.702  0.00  0.00    +0.000 N 
ATOM      2  C   UNL     1       3.581   6.086  18.413  0.00  0.00    +0.000 C 
ATOM      3  O   UNL     1       2.573   6.631  17.980  0.00  0.00    +0.000 OA
ATOM      4  H   UNL     1       4.393   4.937  19.945  0.00  0.00    +0.000 HD
ENDROOT
BRANCH   2   5
ATOM      5  C   UNL     1       4.772   5.904  17.532  0.00  0.00    +0.000 A 
ATOM      6  C   UNL     1       6.003   6.539  17.815  0.00  0.00    +0.000 A 
ATOM      7  C   UNL     1       7.084   6.417  16.931  0.00  0.00    +0.000 A 
ATOM      8  C   UNL     1       6.906   5.662  15.791  0.00  0.00    +0.000 A 
ATOM      9  C   UNL     1       5.710   5.042  15.514  0.00  0.00    +0.000 A 
ATOM     10  C   UNL     1       4.624   5.144  16.360  0.00  0.00    +0.000 A 
ATOM     11  O   UNL     1       5.744   4.355  14.340  0.00  0.00    +0.000 OA
ATOM     12  C   UNL     1       7.092   4.626  13.903  0.00  0.00    +0.000 C 
ATOM     13  O   UNL     1       7.836   5.454  14.821  0.00  0.00    +0.000 OA
ENDBRANCH   2   5
BRANCH   1  14
ATOM     14  C   UNL     1       2.539   5.702  20.600  0.00  0.00    +0.000 C 
BRANCH  14  19
ATOM     15  N   UNL     1       1.492   3.420  20.143  0.00  0.00    +0.000 N 
ATOM     16  C   UNL     1       1.310   2.293  20.889  0.00  0.00    +0.000 A 
ATOM     17  N   UNL     1       1.761   2.489  22.104  0.00  0.00    +0.000 NA
ATOM     18  N   UNL     1       2.259   3.767  22.158  0.00  0.00    +0.000 NA
ATOM     19  C   UNL     1       2.101   4.328  20.974  0.00  0.00    +0.000 A 
BRANCH  15  21
ATOM     20  C   UNL     1       2.049   2.772  17.829  0.00  0.00    +0.000 C 
ATOM     21  C   UNL     1       1.124   3.549  18.752  0.00  0.00    +0.000 C 
ENDBRANCH  15  21
ENDBRANCH  14  19
ENDBRANCH   1  14
TORSDOF 4
ENDMDL
MODEL 5
REMARK VINA RESULT:      -7.0      3.528      6.991
REMARK  Name = 
REMARK  5 active torsions:
REMARK  status: ('A' for Active; 'I' for Inactive)
REMARK    1  A    between atoms: C_1  and  C_2
REMARK    2  A    between atoms: C_2  and  N_3
REMARK    3  A    between atoms: C_7  and  C_8
REMARK    4  A    between atoms: C_8  and  N_9
REMARK    5  A    between atoms: C_10  and  C_12
REMARK                            x       y       z     vdW  Elec       q    Type
REMARK                         _______ _______ _______ _____ _____    ______ ____
ROOT
ATOM      1  N   UNL     1       4.971   2.871  18.845  0.00  0.00    +0.000 N 
ATOM      2  C   UNL     1       5.243   4.197  18.591  0.00  0.00    +0.000 C 
ATOM      3  O   UNL     1       4.926   5.096  19.360  0.00  0.00    +0.000 OA
ATOM      4  H   UNL     1       4.993   2.194  18.089  0.00  0.00    +0.000 HD
ENDROOT
BRANCH   2   5
ATOM      5  C   UNL     1       5.944   4.516  17.313  0.00  0.00    +0.000 A 
ATOM      6  C   UNL     1       6.848   5.598  17.217  0.00  0.00    +0.000 A 
ATOM      7  C   UNL     1       7.434   5.928  15.987  0.00  0.00    +0.000 A 
ATOM      8  C   UNL     1       7.102   5.165  14.887  0.00  0.00    +0.000 A 
ATOM      9  C   UNL     1       6.224   4.111  14.978  0.00  0.00    +0.000 A 
ATOM     10  C   UNL     1       5.626   3.762  16.172  0.00  0.00    +0.000 A 
ATOM     11  O   UNL     1       6.029   3.496  13.779  0.00  0.00    +0.000 OA
ATOM     12  C   UNL     1       6.874   4.294  12.922  0.00  0.00    +0.000 C 
ATOM     13  O   UNL     1       7.559   5.354  13.621  0.00  0.00    +0.000 OA
ENDBRANCH   2   5
BRANCH   1  14
ATOM     14  C   UNL     1       4.244   2.489  20.039  0.00  0.00    +0.000 C 
BRANCH  14  19
ATOM     15  N   UNL     1       1.878   3.411  20.286  0.00  0.00    +0.000 N 
ATOM     16  C   UNL     1       0.676   3.105  19.720  0.00  0.00    +0.000 A 
ATOM     17  N   UNL     1       0.818   2.091  18.901  0.00  0.00    +0.000 NA
ATOM     18  N   UNL     1       2.141   1.727  18.921  0.00  0.00    +0.000 NA
ATOM     19  C   UNL     1       2.782   2.526  19.754  0.00  0.00    +0.000 A 
BRANCH  15  21
ATOM     20  C   UNL     1       1.825   5.855  20.617  0.00  0.00    +0.000 C 
ATOM     21  C   UNL     1       2.089   4.488  21.226  0.00  0.00    +0.000 C 
ENDBRANCH  15  21
ENDBRANCH  14  19
ENDBRANCH   1  14
TORSDOF 4
ENDMDL
MODEL 6
REMARK VINA RESULT:      -7.0      2.922      3.956
REMARK  Name = 
REMARK  5 active torsions:
REMARK  status: ('A' for Active; 'I' for Inactive)
REMARK    1  A    between atoms: C_1  and  C_2
REMARK    2  A    between atoms: C_2  and  N_3
REMARK    3  A    between atoms: C_7  and  C_8
REMARK    4  A    between atoms: C_8  and  N_9
REMARK    5  A    between atoms: C_10  and  C_12
REMARK                            x       y       z     vdW  Elec       q    Type
REMARK                         _______ _______ _______ _____ _____    ______ ____
ROOT
ATOM      1  N   UNL     1       3.678   5.623  19.868  0.00  0.00    +0.000 N 
ATOM      2  C   UNL     1       2.715   6.180  19.055  0.00  0.00    +0.000 C 
ATOM      3  O   UNL     1       2.381   5.680  17.989  0.00  0.00    +0.000 OA
ATOM      4  H   UNL     1       4.122   6.183  20.588  0.00  0.00    +0.000 HD
ENDROOT
BRANCH   2   5
ATOM      5  C   UNL     1       2.084   7.449  19.520  0.00  0.00    +0.000 A 
ATOM      6  C   UNL     1       1.544   7.573  20.821  0.00  0.00    +0.000 A 
ATOM      7  C   UNL     1       0.885   8.748  21.208  0.00  0.00    +0.000 A 
ATOM      8  C   UNL     1       0.786   9.768  20.285  0.00  0.00    +0.000 A 
ATOM      9  C   UNL     1       1.311   9.652  19.020  0.00  0.00    +0.000 A 
ATOM     10  C   UNL     1       1.962   8.508  18.604  0.00  0.00    +0.000 A 
ATOM     11  O   UNL     1       1.099  10.766  18.268  0.00  0.00    +0.000 OA
ATOM     12  C   UNL     1       0.368  11.590  19.200  0.00  0.00    +0.000 C 
ATOM     13  O   UNL     1       0.168  10.962  20.484  0.00  0.00    +0.000 OA
ENDBRANCH   2   5
BRANCH   1  14
ATOM     14  C   UNL     1       4.375   4.420  19.458  0.00  0.00    +0.000 C 
BRANCH  14  19
ATOM     15  N   UNL     1       6.220   4.861  17.751  0.00  0.00    +0.000 N 
ATOM     16  C   UNL     1       7.522   5.254  17.841  0.00  0.00    +0.000 A 
ATOM     17  N   UNL     1       7.856   5.392  19.102  0.00  0.00    +0.000 NA
ATOM     18  N   UNL     1       6.750   5.093  19.857  0.00  0.00    +0.000 NA
ATOM     19  C   UNL     1       5.760   4.777  19.042  0.00  0.00    +0.000 A 
BRANCH  15  21
ATOM     20  C   UNL     1       5.199   5.921  15.771  0.00  0.00    +0.000 C 
ATOM     21  C   UNL     1       5.518   4.631  16.509  0.00  0.00    +0.000 C 
ENDBRANCH  15  21
ENDBRANCH  14  19
ENDBRANCH   1  14
TORSDOF 4
ENDMDL
MODEL 7
REMARK VINA RESULT:      -6.9      4.289      5.967
REMARK  Name = 
REMARK  5 active torsions:
REMARK  status: ('A' for Active; 'I' for Inactive)
REMARK    1  A    between atoms: C_1  and  C_2
REMARK    2  A    between atoms: C_2  and  N_3
REMARK    3  A    between atoms: C_7  and  C_8
REMARK    4  A    between atoms: C_8  and  N_9
REMARK    5  A    between atoms: C_10  and  C_12
REMARK                            x       y       z     vdW  Elec       q    Type
REMARK                         _______ _______ _______ _____ _____    ______ ____
ROOT
ATOM      1  N   UNL     1       2.962   6.268  19.872  0.00  0.00    +0.000 N 
ATOM      2  C   UNL     1       2.573   7.356  19.123  0.00  0.00    +0.000 C 
ATOM      3  O   UNL     1       2.992   7.564  17.991  0.00  0.00    +0.000 OA
ATOM      4  H   UNL     1       2.821   6.267  20.877  0.00  0.00    +0.000 HD
ENDROOT
BRANCH   2   5
ATOM      5  C   UNL     1       1.608   8.306  19.750  0.00  0.00    +0.000 A 
ATOM      6  C   UNL     1       1.079   9.403  19.033  0.00  0.00    +0.000 A 
ATOM      7  C   UNL     1       0.236  10.327  19.667  0.00  0.00    +0.000 A 
ATOM      8  C   UNL     1      -0.057  10.126  20.999  0.00  0.00    +0.000 A 
ATOM      9  C   UNL     1       0.454   9.059  21.699  0.00  0.00    +0.000 A 
ATOM     10  C   UNL     1       1.291   8.134  21.108  0.00  0.00    +0.000 A 
ATOM     11  O   UNL     1       0.048   9.051  22.998  0.00  0.00    +0.000 OA
ATOM     12  C   UNL     1      -0.765  10.243  23.038  0.00  0.00    +0.000 C 
ATOM     13  O   UNL     1      -0.837  10.929  21.771  0.00  0.00    +0.000 OA
ENDBRANCH   2   5
BRANCH   1  14
ATOM     14  C   UNL     1       3.939   5.332  19.351  0.00  0.00    +0.000 C 
BRANCH  14  19
ATOM     15  N   UNL     1       2.786   3.056  19.404  0.00  0.00    +0.000 N 
ATOM     16  C   UNL     1       2.162   2.287  18.468  0.00  0.00    +0.000 A 
ATOM     17  N   UNL     1       2.221   2.878  17.299  0.00  0.00    +0.000 NA
ATOM     18  N   UNL     1       2.889   4.064  17.469  0.00  0.00    +0.000 NA
ATOM     19  C   UNL     1       3.227   4.175  18.741  0.00  0.00    +0.000 A 
BRANCH  15  21
ATOM     20  C   UNL     1       1.621   3.015  21.578  0.00  0.00    +0.000 C 
ATOM     21  C   UNL     1       2.894   2.716  20.804  0.00  0.00    +0.000 C 
ENDBRANCH  15  21
ENDBRANCH  14  19
ENDBRANCH   1  14
TORSDOF 4
ENDMDL
MODEL 8
REMARK VINA RESULT:      -6.9      2.093      3.466
REMARK  Name = 
REMARK  5 active torsions:
REMARK  status: ('A' for Active; 'I' for Inactive)
REMARK    1  A    between atoms: C_1  and  C_2
REMARK    2  A    between atoms: C_2  and  N_3
REMARK    3  A    between atoms: C_7  and  C_8
REMARK    4  A    between atoms: C_8  and  N_9
REMARK    5  A    between atoms: C_10  and  C_12
REMARK                            x       y       z     vdW  Elec       q    Type
REMARK                         _______ _______ _______ _____ _____    ______ ____
ROOT
ATOM      1  N   UNL     1       3.641   5.432  17.527  0.00  0.00    +0.000 N 
ATOM      2  C   UNL     1       3.398   5.911  18.795  0.00  0.00    +0.000 C 
ATOM      3  O   UNL     1       3.829   5.363  19.802  0.00  0.00    +0.000 OA
ATOM      4  H   UNL     1       3.062   5.734  16.750  0.00  0.00    +0.000 HD
ENDROOT
BRANCH   2   5
ATOM      5  C   UNL     1       2.564   7.143  18.910  0.00  0.00    +0.000 A 
ATOM      6  C   UNL     1       2.400   8.027  17.820  0.00  0.00    +0.000 A 
ATOM      7  C   UNL     1       1.677   9.219  17.974  0.00  0.00    +0.000 A 
ATOM      8  C   UNL     1       1.136   9.491  19.213  0.00  0.00    +0.000 A 
ATOM      9  C   UNL     1       1.292   8.631  20.275  0.00  0.00    +0.000 A 
ATOM     10  C   UNL     1       2.001   7.453  20.159  0.00  0.00    +0.000 A 
ATOM     11  O   UNL     1       0.687   9.090  21.404  0.00  0.00    +0.000 OA
ATOM     12  C   UNL     1       0.146  10.343  20.935  0.00  0.00    +0.000 C 
ATOM     13  O   UNL     1       0.426  10.602  19.544  0.00  0.00    +0.000 OA
ENDBRANCH   2   5
BRANCH   1  14
ATOM     14  C   UNL     1       4.397   4.210  17.338  0.00  0.00    +0.000 C 
BRANCH  14  19
ATOM     15  N   UNL     1       6.756   4.623  16.456  0.00  0.00    +0.000 N 
ATOM     16  C   UNL     1       7.298   4.731  15.210  0.00  0.00    +0.000 A 
ATOM     17  N   UNL     1       6.354   4.621  14.306  0.00  0.00    +0.000 NA
ATOM     18  N   UNL     1       5.168   4.427  14.969  0.00  0.00    +0.000 NA
ATOM     19  C   UNL     1       5.411   4.424  16.267  0.00  0.00    +0.000 A 
BRANCH  15  21
ATOM     20  C   UNL     1       7.504   6.067  18.311  0.00  0.00    +0.000 C 
ATOM     21  C   UNL     1       7.512   4.682  17.686  0.00  0.00    +0.000 C 
ENDBRANCH  15  21
ENDBRANCH  14  19
ENDBRANCH   1  14
TORSDOF 4
ENDMDL
MODEL 9
REMARK VINA RESULT:      -6.8      4.122      5.455
REMARK  Name = 
REMARK  5 active torsions:
REMARK  status: ('A' for Active; 'I' for Inactive)
REMARK    1  A    between atoms: C_1  and  C_2
REMARK    2  A    between atoms: C_2  and  N_3
REMARK    3  A    between atoms: C_7  and  C_8
REMARK    4  A    between atoms: C_8  and  N_9
REMARK    5  A    between atoms: C_10  and  C_12
REMARK                            x       y       z     vdW  Elec       q    Type
REMARK                         _______ _______ _______ _____ _____    ______ ____
ROOT
ATOM      1  N   UNL     1       3.632   5.813  19.627  0.00  0.00    +0.000 N 
ATOM      2  C   UNL     1       3.314   6.666  18.593  0.00  0.00    +0.000 C 
ATOM      3  O   UNL     1       3.820   6.575  17.482  0.00  0.00    +0.000 OA
ATOM      4  H   UNL     1       3.416   6.071  20.584  0.00  0.00    +0.000 HD
ENDROOT
BRANCH   2   5
ATOM      5  C   UNL     1       2.317   7.738  18.878  0.00  0.00    +0.000 A 
ATOM      6  C   UNL     1       1.900   8.644  17.875  0.00  0.00    +0.000 A 
ATOM      7  C   UNL     1       1.023   9.693  18.185  0.00  0.00    +0.000 A 
ATOM      8  C   UNL     1       0.585   9.806  19.488  0.00  0.00    +0.000 A 
ATOM      9  C   UNL     1       0.987   8.926  20.465  0.00  0.00    +0.000 A 
ATOM     10  C   UNL     1       1.853   7.885  20.196  0.00  0.00    +0.000 A 
ATOM     11  O   UNL     1       0.446   9.218  21.679  0.00  0.00    +0.000 OA
ATOM     12  C   UNL     1      -0.331  10.391  21.357  0.00  0.00    +0.000 C 
ATOM     13  O   UNL     1      -0.248  10.768  19.966  0.00  0.00    +0.000 OA
ENDBRANCH   2   5
BRANCH   1  14
ATOM     14  C   UNL     1       4.633   4.780  19.442  0.00  0.00    +0.000 C 
BRANCH  14  19
ATOM     15  N   UNL     1       3.202   2.682  19.688  0.00  0.00    +0.000 N 
ATOM     16  C   UNL     1       2.771   1.720  18.823  0.00  0.00    +0.000 A 
ATOM     17  N   UNL     1       3.250   1.956  17.625  0.00  0.00    +0.000 NA
ATOM     18  N   UNL     1       4.003   3.101  17.700  0.00  0.00    +0.000 NA
ATOM     19  C   UNL     1       3.971   3.543  18.944  0.00  0.00    +0.000 A 
BRANCH  15  21
ATOM     20  C   UNL     1       1.450   3.285  21.317  0.00  0.00    +0.000 C 
ATOM     21  C   UNL     1       2.851   2.740  21.088  0.00  0.00    +0.000 C 
ENDBRANCH  15  21
ENDBRANCH  14  19
ENDBRANCH   1  14
TORSDOF 4
ENDMDL
