MODEL 1
REMARK VINA RESULT:      -7.9      0.000      0.000
REMARK  Name = 
REMARK  7 active torsions:
REMARK  status: ('A' for Active; 'I' for Inactive)
REMARK    1  A    between atoms: C_1  and  O_2
REMARK    2  A    between atoms: O_2  and  C_3
REMARK    3  A    between atoms: C_7  and  O_8
REMARK    4  A    between atoms: O_8  and  C_9
REMARK    5  A    between atoms: C_13  and  C_14
REMARK    6  A    between atoms: C_14  and  N_15
REMARK    7  A    between atoms: N_21  and  C_22
REMARK                            x       y       z     vdW  Elec       q    Type
REMARK                         _______ _______ _______ _____ _____    ______ ____
ROOT
ATOM      1  C   UNL     1       1.022   6.476  20.716  0.00  0.00    +0.000 C 
ENDROOT
BRANCH   1   2
ATOM      2  N   UNL     1       1.877   7.673  20.658  0.00  0.00    +0.000 NA
ATOM      3  C   UNL     1       1.782   8.433  19.400  0.00  0.00    +0.000 C 
ATOM      4  C   UNL     1       0.596   9.413  19.251  0.00  0.00    +0.000 C 
ATOM      5  N   UNL     1       0.274  10.217  20.436  0.00  0.00    +0.000 N 
ATOM      6  C   UNL     1      -0.672  11.233  20.210  0.00  0.00    +0.000 C 
ATOM      7  O   UNL     1      -1.143  11.422  19.088  0.00  0.00    +0.000 OA
ATOM      8  N   UNL     1      -0.977  12.024  21.305  0.00  0.00    +0.000 N 
ATOM      9  C   UNL     1       0.393   9.505  21.712  0.00  0.00    +0.000 C 
ATOM     10  C   UNL     1       1.650   8.600  21.789  0.00  0.00    +0.000 C 
ATOM     11  H   UNL     1      -0.199  12.174  21.929  0.00  0.00    +0.000 HD
BRANCH   8  12
ATOM     12  C   UNL     1      -1.937  13.073  21.243  0.00  0.00    +0.000 A 
ATOM     13  C   UNL     1      -1.596  14.390  20.922  0.00  0.00    +0.000 A 
ATOM     14  C   UNL     1      -2.567  15.398  20.881  0.00  0.00    +0.000 A 
ATOM     15  C   UNL     1      -3.898  15.101  21.175  0.00  0.00    +0.000 A 
ATOM     16  C   UNL     1      -4.255  13.793  21.484  0.00  0.00    +0.000 A 
ATOM     17  C   UNL     1      -3.286  12.774  21.493  0.00  0.00    +0.000 A 
ENDBRANCH   8  12
ENDBRANCH   1   2
BRANCH   1  22
ATOM     18  C   UNL     1       3.752   3.950  19.744  0.00  0.00    +0.000 A 
ATOM     19  C   UNL     1       3.057   2.743  19.786  0.00  0.00    +0.000 A 
ATOM     20  C   UNL     1       1.713   2.729  20.156  0.00  0.00    +0.000 A 
ATOM     21  C   UNL     1       1.062   3.923  20.498  0.00  0.00    +0.000 A 
ATOM     22  C   UNL     1       1.734   5.155  20.436  0.00  0.00    +0.000 A 
ATOM     23  C   UNL     1       3.075   5.152  20.013  0.00  0.00    +0.000 A 
BRANCH  18  24
ATOM     24  O   UNL     1       5.080   3.862  19.379  0.00  0.00    +0.000 OA
BRANCH  24  29
ATOM     25  C   UNL     1       6.771   5.933  16.813  0.00  0.00    +0.000 A 
ATOM     26  C   UNL     1       6.126   5.439  15.677  0.00  0.00    +0.000 A 
ATOM     27  C   UNL     1       5.200   4.399  15.780  0.00  0.00    +0.000 A 
ATOM     28  C   UNL     1       4.879   3.879  17.033  0.00  0.00    +0.000 A 
ATOM     29  C   UNL     1       5.491   4.395  18.175  0.00  0.00    +0.000 A 
ATOM     30  C   UNL     1       6.488   5.370  18.058  0.00  0.00    +0.000 A 
BRANCH  25  32
ATOM     31  C   UNL     1       7.734   7.965  17.588  0.00  0.00    +0.000 C 
ATOM     32  O   UNL     1       7.635   6.967  16.580  0.00  0.00    +0.000 OA
ENDBRANCH  25  32
ENDBRANCH  24  29
ENDBRANCH  18  24
ENDBRANCH   1  22
TORSDOF 6
ENDMDL
MODEL 2
REMARK VINA RESULT:      -7.9      1.305      1.305
REMARK  Name = 
REMARK  7 active torsions:
REMARK  status: ('A' for Active; 'I' for Inactive)
REMARK    1  A    between atoms: C_1  and  O_2
REMARK    2  A    between atoms: O_2  and  C_3
REMARK    3  A    between atoms: C_7  and  O_8
REMARK    4  A    between atoms: O_8  and  C_9
REMARK    5  A    between atoms: C_13  and  C_14
REMARK    6  A    between atoms: C_14  and  N_15
REMARK    7  A    between atoms: N_21  and  C_22
REMARK                            x       y       z     vdW  Elec       q    Type
REMARK                         _______ _______ _______ _____ _____    ______ ____
ROOT
ATOM      1  C   UNL     1       1.080   6.571  20.441  0.00  0.00    +0.000 C 
ENDROOT
BRANCH   1   2
ATOM      2  N   UNL     1       1.891   7.794  20.556  0.00  0.00    +0.000 NA
ATOM      3  C   UNL     1       1.548   8.850  19.587  0.00  0.00    +0.000 C 
ATOM      4  C   UNL     1       0.341   9.755  19.922  0.00  0.00    +0.000 C 
ATOM      5  N   UNL     1       0.237  10.197  21.317  0.00  0.00    +0.000 N 
ATOM      6  C   UNL     1      -0.750  11.174  21.546  0.00  0.00    +0.000 C 
ATOM      7  O   UNL     1      -1.427  11.619  20.620  0.00  0.00    +0.000 OA
ATOM      8  N   UNL     1      -0.854  11.628  22.850  0.00  0.00    +0.000 N 
ATOM      9  C   UNL     1       0.606   9.186  22.312  0.00  0.00    +0.000 C 
ATOM     10  C   UNL     1       1.868   8.377  21.916  0.00  0.00    +0.000 C 
ATOM     11  H   UNL     1       0.026  11.660  23.342  0.00  0.00    +0.000 HD
BRANCH   8  12
ATOM     12  C   UNL     1      -1.824  12.592  23.246  0.00  0.00    +0.000 A 
ATOM     13  C   UNL     1      -1.501  13.929  23.496  0.00  0.00    +0.000 A 
ATOM     14  C   UNL     1      -2.481  14.847  23.893  0.00  0.00    +0.000 A 
ATOM     15  C   UNL     1      -3.803  14.432  24.060  0.00  0.00    +0.000 A 
ATOM     16  C   UNL     1      -4.141  13.108  23.803  0.00  0.00    +0.000 A 
ATOM     17  C   UNL     1      -3.164  12.193  23.372  0.00  0.00    +0.000 A 
ENDBRANCH   8  12
ENDBRANCH   1   2
BRANCH   1  22
ATOM     18  C   UNL     1       3.834   3.958  19.835  0.00  0.00    +0.000 A 
ATOM     19  C   UNL     1       3.299   2.827  20.448  0.00  0.00    +0.000 A 
ATOM     20  C   UNL     1       2.062   2.904  21.087  0.00  0.00    +0.000 A 
ATOM     21  C   UNL     1       1.361   4.118  21.125  0.00  0.00    +0.000 A 
ATOM     22  C   UNL     1       1.867   5.264  20.490  0.00  0.00    +0.000 A 
ATOM     23  C   UNL     1       3.093   5.151  19.810  0.00  0.00    +0.000 A 
BRANCH  18  24
ATOM     24  O   UNL     1       5.068   3.787  19.241  0.00  0.00    +0.000 OA
BRANCH  24  29
ATOM     25  C   UNL     1       6.258   6.420  16.922  0.00  0.00    +0.000 A 
ATOM     26  C   UNL     1       5.829   5.858  15.717  0.00  0.00    +0.000 A 
ATOM     27  C   UNL     1       5.217   4.603  15.696  0.00  0.00    +0.000 A 
ATOM     28  C   UNL     1       4.987   3.925  16.892  0.00  0.00    +0.000 A 
ATOM     29  C   UNL     1       5.378   4.499  18.101  0.00  0.00    +0.000 A 
ATOM     30  C   UNL     1       6.077   5.712  18.109  0.00  0.00    +0.000 A 
BRANCH  25  32
ATOM     31  C   UNL     1       7.900   7.965  17.682  0.00  0.00    +0.000 C 
ATOM     32  O   UNL     1       6.819   7.663  16.809  0.00  0.00    +0.000 OA
ENDBRANCH  25  32
ENDBRANCH  24  29
ENDBRANCH  18  24
ENDBRANCH   1  22
TORSDOF 6
ENDMDL
MODEL 3
REMARK VINA RESULT:      -7.8      1.511      1.985
REMARK  Name = 
REMARK  7 active torsions:
REMARK  status: ('A' for Active; 'I' for Inactive)
REMARK    1  A    between atoms: C_1  and  O_2
REMARK    2  A    between atoms: O_2  and  C_3
REMARK    3  A    between atoms: C_7  and  O_8
REMARK    4  A    between atoms: O_8  and  C_9
REMARK    5  A    between atoms: C_13  and  C_14
REMARK    6  A    between atoms: C_14  and  N_15
REMARK    7  A    between atoms: N_21  and  C_22
REMARK                            x       y       z     vdW  Elec       q    Type
REMARK                         _______ _______ _______ _____ _____    ______ ____
ROOT
ATOM      1  C   UNL     1       0.883   6.619  20.640  0.00  0.00    +0.000 C 
ENDROOT
BRANCH   1   2
ATOM      2  N   UNL     1       1.709   7.837  20.675  0.00  0.00    +0.000 NA
ATOM      3  C   UNL     1       1.344   8.852  19.670  0.00  0.00    +0.000 C 
ATOM      4  C   UNL     1       0.158   9.785  20.002  0.00  0.00    +0.000 C 
ATOM      5  N   UNL     1       0.102  10.290  21.379  0.00  0.00    +0.000 N 
ATOM      6  C   UNL     1      -0.868  11.286  21.594  0.00  0.00    +0.000 C 
ATOM      7  O   UNL     1      -1.570  11.697  20.670  0.00  0.00    +0.000 OA
ATOM      8  N   UNL     1      -0.926  11.800  22.879  0.00  0.00    +0.000 N 
ATOM      9  C   UNL     1       0.493   9.320  22.405  0.00  0.00    +0.000 C 
ATOM     10  C   UNL     1       1.735   8.480  22.008  0.00  0.00    +0.000 C 
ATOM     11  H   UNL     1      -0.030  11.844  23.341  0.00  0.00    +0.000 HD
BRANCH   8  12
ATOM     12  C   UNL     1      -1.874  12.791  23.261  0.00  0.00    +0.000 A 
ATOM     13  C   UNL     1      -1.545  14.145  23.376  0.00  0.00    +0.000 A 
ATOM     14  C   UNL     1      -2.503  15.089  23.765  0.00  0.00    +0.000 A 
ATOM     15  C   UNL     1      -3.806  14.687  24.057  0.00  0.00    +0.000 A 
ATOM     16  C   UNL     1      -4.151  13.345  23.934  0.00  0.00    +0.000 A 
ATOM     17  C   UNL     1      -3.199  12.400  23.513  0.00  0.00    +0.000 A 
ENDBRANCH   8  12
ENDBRANCH   1   2
BRANCH   1  22
ATOM     18  C   UNL     1       3.742   4.191  19.797  0.00  0.00    +0.000 A 
ATOM     19  C   UNL     1       3.073   2.971  19.725  0.00  0.00    +0.000 A 
ATOM     20  C   UNL     1       1.703   2.915  19.978  0.00  0.00    +0.000 A 
ATOM     21  C   UNL     1       0.999   4.080  20.315  0.00  0.00    +0.000 A 
ATOM     22  C   UNL     1       1.645   5.326  20.364  0.00  0.00    +0.000 A 
ATOM     23  C   UNL     1       3.018   5.366  20.059  0.00  0.00    +0.000 A 
BRANCH  18  24
ATOM     24  O   UNL     1       5.097   4.144  19.544  0.00  0.00    +0.000 OA
BRANCH  24  29
ATOM     25  C   UNL     1       5.643   4.652  15.914  0.00  0.00    +0.000 A 
ATOM     26  C   UNL     1       6.739   5.516  15.979  0.00  0.00    +0.000 A 
ATOM     27  C   UNL     1       7.227   5.954  17.211  0.00  0.00    +0.000 A 
ATOM     28  C   UNL     1       6.649   5.489  18.390  0.00  0.00    +0.000 A 
ATOM     29  C   UNL     1       5.579   4.595  18.333  0.00  0.00    +0.000 A 
ATOM     30  C   UNL     1       5.031   4.235  17.096  0.00  0.00    +0.000 A 
BRANCH  25  32
ATOM     31  C   UNL     1       6.328   3.993  13.733  0.00  0.00    +0.000 C 
ATOM     32  O   UNL     1       5.278   4.279  14.649  0.00  0.00    +0.000 OA
ENDBRANCH  25  32
ENDBRANCH  24  29
ENDBRANCH  18  24
ENDBRANCH   1  22
TORSDOF 6
ENDMDL
MODEL 4
REMARK VINA RESULT:      -7.8      1.422      2.068
REMARK  Name = 
REMARK  7 active torsions:
REMARK  status: ('A' for Active; 'I' for Inactive)
REMARK    1  A    between atoms: C_1  and  O_2
REMARK    2  A    between atoms: O_2  and  C_3
REMARK    3  A    between atoms: C_7  and  O_8
REMARK    4  A    between atoms: O_8  and  C_9
REMARK    5  A    between atoms: C_13  and  C_14
REMARK    6  A    between atoms: C_14  and  N_15
REMARK    7  A    between atoms: N_21  and  C_22
REMARK                            x       y       z     vdW  Elec       q    Type
REMARK                         _______ _______ _______ _____ _____    ______ ____
ROOT
ATOM      1  C   UNL     1       1.193   6.480  20.091  0.00  0.00    +0.000 C 
ENDROOT
BRANCH   1   2
ATOM      2  N   UNL     1       1.999   7.705  20.225  0.00  0.00    +0.000 NA
ATOM      3  C   UNL     1       1.629   8.786  19.295  0.00  0.00    +0.000 C 
ATOM      4  C   UNL     1       0.425   9.673  19.681  0.00  0.00    +0.000 C 
ATOM      5  N   UNL     1       0.348  10.073  21.091  0.00  0.00    +0.000 N 
ATOM      6  C   UNL     1      -0.640  11.036  21.370  0.00  0.00    +0.000 C 
ATOM      7  O   UNL     1      -1.340  11.504  20.472  0.00  0.00    +0.000 OA
ATOM      8  N   UNL     1      -0.718  11.452  22.689  0.00  0.00    +0.000 N 
ATOM      9  C   UNL     1       0.744   9.036  22.048  0.00  0.00    +0.000 C 
ATOM     10  C   UNL     1       2.002   8.246  21.602  0.00  0.00    +0.000 C 
ATOM     11  H   UNL     1       0.171  11.474  23.163  0.00  0.00    +0.000 HD
BRANCH   8  12
ATOM     12  C   UNL     1      -1.686  12.397  23.133  0.00  0.00    +0.000 A 
ATOM     13  C   UNL     1      -2.994  12.036  23.470  0.00  0.00    +0.000 A 
ATOM     14  C   UNL     1      -3.921  12.996  23.894  0.00  0.00    +0.000 A 
ATOM     15  C   UNL     1      -3.552  14.339  23.975  0.00  0.00    +0.000 A 
ATOM     16  C   UNL     1      -2.251  14.710  23.656  0.00  0.00    +0.000 A 
ATOM     17  C   UNL     1      -1.310  13.743  23.262  0.00  0.00    +0.000 A 
ENDBRANCH   8  12
ENDBRANCH   1   2
BRANCH   1  22
ATOM     18  C   UNL     1       3.770   3.675  19.570  0.00  0.00    +0.000 A 
ATOM     19  C   UNL     1       3.339   2.714  20.483  0.00  0.00    +0.000 A 
ATOM     20  C   UNL     1       2.236   2.973  21.294  0.00  0.00    +0.000 A 
ATOM     21  C   UNL     1       1.565   4.202  21.202  0.00  0.00    +0.000 A 
ATOM     22  C   UNL     1       1.962   5.174  20.270  0.00  0.00    +0.000 A 
ATOM     23  C   UNL     1       3.049   4.872  19.429  0.00  0.00    +0.000 A 
BRANCH  18  24
ATOM     24  O   UNL     1       4.877   3.332  18.822  0.00  0.00    +0.000 OA
BRANCH  24  29
ATOM     25  C   UNL     1       6.636   5.494  16.379  0.00  0.00    +0.000 A 
ATOM     26  C   UNL     1       7.330   6.311  17.274  0.00  0.00    +0.000 A 
ATOM     27  C   UNL     1       7.154   6.168  18.651  0.00  0.00    +0.000 A 
ATOM     28  C   UNL     1       6.314   5.170  19.142  0.00  0.00    +0.000 A 
ATOM     29  C   UNL     1       5.648   4.325  18.254  0.00  0.00    +0.000 A 
ATOM     30  C   UNL     1       5.753   4.535  16.874  0.00  0.00    +0.000 A 
BRANCH  25  32
ATOM     31  C   UNL     1       6.664   4.650  14.155  0.00  0.00    +0.000 C 
ATOM     32  O   UNL     1       6.916   5.718  15.059  0.00  0.00    +0.000 OA
ENDBRANCH  25  32
ENDBRANCH  24  29
ENDBRANCH  18  24
ENDBRANCH   1  22
TORSDOF 6
ENDMDL
MODEL 5
REMARK VINA RESULT:      -7.7      2.690      3.434
REMARK  Name = 
REMARK  7 active torsions:
REMARK  status: ('A' for Active; 'I' for Inactive)
REMARK    1  A    between atoms: C_1  and  O_2
REMARK    2  A    between atoms: O_2  and  C_3
REMARK    3  A    between atoms: C_7  and  O_8
REMARK    4  A    between atoms: O_8  and  C_9
REMARK    5  A    between atoms: C_13  and  C_14
REMARK    6  A    between atoms: C_14  and  N_15
REMARK    7  A    between atoms: N_21  and  C_22
REMARK                            x       y       z     vdW  Elec       q    Type
REMARK                         _______ _______ _______ _____ _____    ______ ____
ROOT
ATOM      1  C   UNL     1       2.042   7.432  20.596  0.00  0.00    +0.000 C 
ENDROOT
BRANCH   1   2
ATOM      2  N   UNL     1       0.749   8.136  20.588  0.00  0.00    +0.000 NA
ATOM      3  C   UNL     1       0.578   9.115  21.677  0.00  0.00    +0.000 C 
ATOM      4  C   UNL     1       1.210  10.511  21.481  0.00  0.00    +0.000 C 
ATOM      5  N   UNL     1       1.062  11.102  20.146  0.00  0.00    +0.000 N 
ATOM      6  C   UNL     1       1.470  12.445  20.056  0.00  0.00    +0.000 C 
ATOM      7  O   UNL     1       1.880  13.051  21.046  0.00  0.00    +0.000 OA
ATOM      8  N   UNL     1       1.318  13.037  18.813  0.00  0.00    +0.000 N 
ATOM      9  C   UNL     1       1.189  10.153  19.036  0.00  0.00    +0.000 C 
ATOM     10  C   UNL     1       0.464   8.808  19.301  0.00  0.00    +0.000 C 
ATOM     11  H   UNL     1       0.516  12.706  18.299  0.00  0.00    +0.000 HD
BRANCH   8  12
ATOM     12  C   UNL     1       1.713  14.381  18.555  0.00  0.00    +0.000 A 
ATOM     13  C   UNL     1       0.894  15.476  18.845  0.00  0.00    +0.000 A 
ATOM     14  C   UNL     1       1.313  16.783  18.569  0.00  0.00    +0.000 A 
ATOM     15  C   UNL     1       2.558  17.011  17.983  0.00  0.00    +0.000 A 
ATOM     16  C   UNL     1       3.388  15.932  17.701  0.00  0.00    +0.000 A 
ATOM     17  C   UNL     1       2.983  14.621  18.008  0.00  0.00    +0.000 A 
ENDBRANCH   8  12
ENDBRANCH   1   2
BRANCH   1  22
ATOM     18  C   UNL     1       2.597   4.465  18.216  0.00  0.00    +0.000 A 
ATOM     19  C   UNL     1       1.885   3.448  18.850  0.00  0.00    +0.000 A 
ATOM     20  C   UNL     1       1.246   3.702  20.063  0.00  0.00    +0.000 A 
ATOM     21  C   UNL     1       1.328   4.972  20.652  0.00  0.00    +0.000 A 
ATOM     22  C   UNL     1       2.015   6.019  20.018  0.00  0.00    +0.000 A 
ATOM     23  C   UNL     1       2.612   5.754  18.772  0.00  0.00    +0.000 A 
BRANCH  18  24
ATOM     24  O   UNL     1       3.206   4.115  17.028  0.00  0.00    +0.000 OA
BRANCH  24  29
ATOM     25  C   UNL     1       6.828   4.576  17.655  0.00  0.00    +0.000 A 
ATOM     26  C   UNL     1       7.221   4.968  16.373  0.00  0.00    +0.000 A 
ATOM     27  C   UNL     1       6.298   5.011  15.328  0.00  0.00    +0.000 A 
ATOM     28  C   UNL     1       4.960   4.706  15.573  0.00  0.00    +0.000 A 
ATOM     29  C   UNL     1       4.554   4.351  16.859  0.00  0.00    +0.000 A 
ATOM     30  C   UNL     1       5.500   4.217  17.882  0.00  0.00    +0.000 A 
BRANCH  25  32
ATOM     31  C   UNL     1       7.957   5.792  19.361  0.00  0.00    +0.000 C 
ATOM     32  O   UNL     1       7.822   4.601  18.594  0.00  0.00    +0.000 OA
ENDBRANCH  25  32
ENDBRANCH  24  29
ENDBRANCH  18  24
ENDBRANCH   1  22
TORSDOF 6
ENDMDL
MODEL 6
REMARK VINA RESULT:      -7.6      2.354      3.081
REMARK  Name = 
REMARK  7 active torsions:
REMARK  status: ('A' for Active; 'I' for Inactive)
REMARK    1  A    between atoms: C_1  and  O_2
REMARK    2  A    between atoms: O_2  and  C_3
REMARK    3  A    between atoms: C_7  and  O_8
REMARK    4  A    between atoms: O_8  and  C_9
REMARK    5  A    between atoms: C_13  and  C_14
REMARK    6  A    between atoms: C_14  and  N_15
REMARK    7  A    between atoms: N_21  and  C_22
REMARK                            x       y       z     vdW  Elec       q    Type
REMARK                         _______ _______ _______ _____ _____    ______ ____
ROOT
ATOM      1  C   UNL     1       1.787   8.785  19.566  0.00  0.00    +0.000 C 
ENDROOT
BRANCH   1   2
ATOM      2  N   UNL     1       1.354   9.379  18.290  0.00  0.00    +0.000 NA
ATOM      3  C   UNL     1      -0.082   9.706  18.223  0.00  0.00    +0.000 C 
ATOM      4  C   UNL     1      -0.538  11.035  18.865  0.00  0.00    +0.000 C 
ATOM      5  N   UNL     1       0.330  12.195  18.625  0.00  0.00    +0.000 N 
ATOM      6  C   UNL     1      -0.210  13.423  19.051  0.00  0.00    +0.000 C 
ATOM      7  O   UNL     1      -1.335  13.482  19.548  0.00  0.00    +0.000 OA
ATOM      8  N   UNL     1       0.576  14.538  18.814  0.00  0.00    +0.000 N 
ATOM      9  C   UNL     1       1.766  11.903  18.648  0.00  0.00    +0.000 C 
ATOM     10  C   UNL     1       2.130  10.583  17.920  0.00  0.00    +0.000 C 
ATOM     11  H   UNL     1       1.122  14.480  17.968  0.00  0.00    +0.000 HD
BRANCH   8  12
ATOM     12  C   UNL     1       0.181  15.847  19.213  0.00  0.00    +0.000 A 
ATOM     13  C   UNL     1       0.453  16.362  20.484  0.00  0.00    +0.000 A 
ATOM     14  C   UNL     1       0.041  17.650  20.845  0.00  0.00    +0.000 A 
ATOM     15  C   UNL     1      -0.665  18.439  19.936  0.00  0.00    +0.000 A 
ATOM     16  C   UNL     1      -0.931  17.945  18.664  0.00  0.00    +0.000 A 
ATOM     17  C   UNL     1      -0.489  16.664  18.290  0.00  0.00    +0.000 A 
ENDBRANCH   8  12
ENDBRANCH   1   2
BRANCH   1  22
ATOM     18  C   UNL     1       2.649   5.255  18.314  0.00  0.00    +0.000 A 
ATOM     19  C   UNL     1       2.291   4.466  19.406  0.00  0.00    +0.000 A 
ATOM     20  C   UNL     1       1.799   5.066  20.564  0.00  0.00    +0.000 A 
ATOM     21  C   UNL     1       1.673   6.461  20.637  0.00  0.00    +0.000 A 
ATOM     22  C   UNL     1       2.000   7.274  19.540  0.00  0.00    +0.000 A 
ATOM     23  C   UNL     1       2.449   6.644  18.365  0.00  0.00    +0.000 A 
BRANCH  18  24
ATOM     24  O   UNL     1       3.138   4.572  17.219  0.00  0.00    +0.000 OA
BRANCH  24  29
ATOM     25  C   UNL     1       6.810   4.586  17.708  0.00  0.00    +0.000 A 
ATOM     26  C   UNL     1       7.207   4.543  16.369  0.00  0.00    +0.000 A 
ATOM     27  C   UNL     1       6.259   4.448  15.349  0.00  0.00    +0.000 A 
ATOM     28  C   UNL     1       4.901   4.446  15.664  0.00  0.00    +0.000 A 
ATOM     29  C   UNL     1       4.498   4.528  16.997  0.00  0.00    +0.000 A 
ATOM     30  C   UNL     1       5.453   4.525  18.020  0.00  0.00    +0.000 A 
BRANCH  25  32
ATOM     31  C   UNL     1       8.004   5.971  19.231  0.00  0.00    +0.000 C 
ATOM     32  O   UNL     1       7.834   4.704  18.608  0.00  0.00    +0.000 OA
ENDBRANCH  25  32
ENDBRANCH  24  29
ENDBRANCH  18  24
ENDBRANCH   1  22
TORSDOF 6
ENDMDL
MODEL 7
REMARK VINA RESULT:      -7.6      1.425      1.722
REMARK  Name = 
REMARK  7 active torsions:
REMARK  status: ('A' for Active; 'I' for Inactive)
REMARK    1  A    between atoms: C_1  and  O_2
REMARK    2  A    between atoms: O_2  and  C_3
REMARK    3  A    between atoms: C_7  and  O_8
REMARK    4  A    between atoms: O_8  and  C_9
REMARK    5  A    between atoms: C_13  and  C_14
REMARK    6  A    between atoms: C_14  and  N_15
REMARK    7  A    between atoms: N_21  and  C_22
REMARK                            x       y       z     vdW  Elec       q    Type
REMARK                         _______ _______ _______ _____ _____    ______ ____
ROOT
ATOM      1  C   UNL     1       1.024   6.613  20.657  0.00  0.00    +0.000 C 
ENDROOT
BRANCH   1   2
ATOM      2  N   UNL     1       1.797   7.866  20.629  0.00  0.00    +0.000 NA
ATOM      3  C   UNL     1       1.352   8.836  19.613  0.00  0.00    +0.000 C 
ATOM      4  C   UNL     1       0.139   9.726  19.964  0.00  0.00    +0.000 C 
ATOM      5  N   UNL     1       0.113  10.267  21.328  0.00  0.00    +0.000 N 
ATOM      6  C   UNL     1      -0.891  11.226  21.555  0.00  0.00    +0.000 C 
ATOM      7  O   UNL     1      -1.644  11.581  20.648  0.00  0.00    +0.000 OA
ATOM      8  N   UNL     1      -0.924  11.773  22.827  0.00  0.00    +0.000 N 
ATOM      9  C   UNL     1       0.583   9.343  22.365  0.00  0.00    +0.000 C 
ATOM     10  C   UNL     1       1.844   8.546  21.942  0.00  0.00    +0.000 C 
ATOM     11  H   UNL     1      -0.015  11.868  23.253  0.00  0.00    +0.000 HD
BRANCH   8  12
ATOM     12  C   UNL     1      -1.899  12.733  23.219  0.00  0.00    +0.000 A 
ATOM     13  C   UNL     1      -3.198  12.378  23.596  0.00  0.00    +0.000 A 
ATOM     14  C   UNL     1      -4.134  13.352  23.966  0.00  0.00    +0.000 A 
ATOM     15  C   UNL     1      -3.783  14.702  23.951  0.00  0.00    +0.000 A 
ATOM     16  C   UNL     1      -2.491  15.069  23.591  0.00  0.00    +0.000 A 
ATOM     17  C   UNL     1      -1.541  14.090  23.251  0.00  0.00    +0.000 A 
ENDBRANCH   8  12
ENDBRANCH   1   2
BRANCH   1  22
ATOM     18  C   UNL     1       3.043   3.997  18.693  0.00  0.00    +0.000 A 
ATOM     19  C   UNL     1       3.189   2.979  19.633  0.00  0.00    +0.000 A 
ATOM     20  C   UNL     1       2.666   3.139  20.916  0.00  0.00    +0.000 A 
ATOM     21  C   UNL     1       2.003   4.325  21.265  0.00  0.00    +0.000 A 
ATOM     22  C   UNL     1       1.819   5.353  20.326  0.00  0.00    +0.000 A 
ATOM     23  C   UNL     1       2.313   5.150  19.025  0.00  0.00    +0.000 A 
BRANCH  18  24
ATOM     24  O   UNL     1       3.605   3.752  17.457  0.00  0.00    +0.000 OA
BRANCH  24  29
ATOM     25  C   UNL     1       6.678   5.820  17.541  0.00  0.00    +0.000 A 
ATOM     26  C   UNL     1       7.047   5.713  16.197  0.00  0.00    +0.000 A 
ATOM     27  C   UNL     1       6.311   4.917  15.319  0.00  0.00    +0.000 A 
ATOM     28  C   UNL     1       5.169   4.259  15.771  0.00  0.00    +0.000 A 
ATOM     29  C   UNL     1       4.773   4.393  17.102  0.00  0.00    +0.000 A 
ATOM     30  C   UNL     1       5.568   5.114  18.002  0.00  0.00    +0.000 A 
BRANCH  25  32
ATOM     31  C   UNL     1       7.882   7.867  17.683  0.00  0.00    +0.000 C 
ATOM     32  O   UNL     1       7.467   6.650  18.290  0.00  0.00    +0.000 OA
ENDBRANCH  25  32
ENDBRANCH  24  29
ENDBRANCH  18  24
ENDBRANCH   1  22
TORSDOF 6
ENDMDL
MODEL 8
REMARK VINA RESULT:      -7.6      1.550      1.631
REMARK  Name = 
REMARK  7 active torsions:
REMARK  status: ('A' for Active; 'I' for Inactive)
REMARK    1  A    between atoms: C_1  and  O_2
REMARK    2  A    between atoms: O_2  and  C_3
REMARK    3  A    between atoms: C_7  and  O_8
REMARK    4  A    between atoms: O_8  and  C_9
REMARK    5  A    between atoms: C_13  and  C_14
REMARK    6  A    between atoms: C_14  and  N_15
REMARK    7  A    between atoms: N_21  and  C_22
REMARK                            x       y       z     vdW  Elec       q    Type
REMARK                         _______ _______ _______ _____ _____    ______ ____
ROOT
ATOM      1  C   UNL     1       1.094   6.563  20.352  0.00  0.00    +0.000 C 
ENDROOT
BRANCH   1   2
ATOM      2  N   UNL     1       1.900   7.794  20.431  0.00  0.00    +0.000 NA
ATOM      3  C   UNL     1       1.521   8.836  19.461  0.00  0.00    +0.000 C 
ATOM      4  C   UNL     1       0.318   9.737  19.820  0.00  0.00    +0.000 C 
ATOM      5  N   UNL     1       0.251  10.193  21.214  0.00  0.00    +0.000 N 
ATOM      6  C   UNL     1      -0.737  11.165  21.460  0.00  0.00    +0.000 C 
ATOM      7  O   UNL     1      -1.443  11.596  20.549  0.00  0.00    +0.000 OA
ATOM      8  N   UNL     1      -0.806  11.634  22.762  0.00  0.00    +0.000 N 
ATOM      9  C   UNL     1       0.655   9.196  22.208  0.00  0.00    +0.000 C 
ATOM     10  C   UNL     1       1.912   8.391  21.785  0.00  0.00    +0.000 C 
ATOM     11  H   UNL     1       0.088  11.677  23.228  0.00  0.00    +0.000 HD
BRANCH   8  12
ATOM     12  C   UNL     1      -1.771  12.595  23.175  0.00  0.00    +0.000 A 
ATOM     13  C   UNL     1      -1.498  13.965  23.225  0.00  0.00    +0.000 A 
ATOM     14  C   UNL     1      -2.470  14.880  23.647  0.00  0.00    +0.000 A 
ATOM     15  C   UNL     1      -3.732  14.432  24.038  0.00  0.00    +0.000 A 
ATOM     16  C   UNL     1      -4.022  13.073  23.980  0.00  0.00    +0.000 A 
ATOM     17  C   UNL     1      -3.058  12.157  23.526  0.00  0.00    +0.000 A 
ENDBRANCH   8  12
ENDBRANCH   1   2
BRANCH   1  22
ATOM     18  C   UNL     1       3.047   3.796  18.535  0.00  0.00    +0.000 A 
ATOM     19  C   UNL     1       3.250   2.868  19.555  0.00  0.00    +0.000 A 
ATOM     20  C   UNL     1       2.787   3.139  20.842  0.00  0.00    +0.000 A 
ATOM     21  C   UNL     1       2.128   4.347  21.115  0.00  0.00    +0.000 A 
ATOM     22  C   UNL     1       1.887   5.284  20.097  0.00  0.00    +0.000 A 
ATOM     23  C   UNL     1       2.320   4.968  18.797  0.00  0.00    +0.000 A 
BRANCH  18  24
ATOM     24  O   UNL     1       3.552   3.444  17.300  0.00  0.00    +0.000 OA
BRANCH  24  29
ATOM     25  C   UNL     1       6.924   4.977  17.236  0.00  0.00    +0.000 A 
ATOM     26  C   UNL     1       7.050   5.166  15.857  0.00  0.00    +0.000 A 
ATOM     27  C   UNL     1       6.051   4.729  14.985  0.00  0.00    +0.000 A 
ATOM     28  C   UNL     1       4.895   4.142  15.496  0.00  0.00    +0.000 A 
ATOM     29  C   UNL     1       4.746   3.986  16.874  0.00  0.00    +0.000 A 
ATOM     30  C   UNL     1       5.791   4.338  17.737  0.00  0.00    +0.000 A 
BRANCH  25  32
ATOM     31  C   UNL     1       7.683   5.790  19.339  0.00  0.00    +0.000 C 
ATOM     32  O   UNL     1       7.959   5.473  17.981  0.00  0.00    +0.000 OA
ENDBRANCH  25  32
ENDBRANCH  24  29
ENDBRANCH  18  24
ENDBRANCH   1  22
TORSDOF 6
ENDMDL
MODEL 9
REMARK VINA RESULT:      -7.6      2.421      3.139
REMARK  Name = 
REMARK  7 active torsions:
REMARK  status: ('A' for Active; 'I' for Inactive)
REMARK    1  A    between atoms: C_1  and  O_2
REMARK    2  A    between atoms: O_2  and  C_3
REMARK    3  A    between atoms: C_7  and  O_8
REMARK    4  A    between atoms: O_8  and  C_9
REMARK    5  A    between atoms: C_13  and  C_14
REMARK    6  A    between atoms: C_14  and  N_15
REMARK    7  A    between atoms: N_21  and  C_22
REMARK                            x       y       z     vdW  Elec       q    Type
REMARK                         _______ _______ _______ _____ _____    ______ ____
ROOT
ATOM      1  C   UNL     1       2.054   7.400  20.783  0.00  0.00    +0.000 C 
ENDROOT
BRANCH   1   2
ATOM      2  N   UNL     1       0.750   8.011  20.473  0.00  0.00    +0.000 NA
ATOM      3  C   UNL     1       0.269   8.970  21.483  0.00  0.00    +0.000 C 
ATOM      4  C   UNL     1       0.830  10.409  21.419  0.00  0.00    +0.000 C 
ATOM      5  N   UNL     1       0.949  10.993  20.078  0.00  0.00    +0.000 N 
ATOM      6  C   UNL     1       1.272  12.363  20.068  0.00  0.00    +0.000 C 
ATOM      7  O   UNL     1       1.402  12.991  21.118  0.00  0.00    +0.000 OA
ATOM      8  N   UNL     1       1.365  12.948  18.816  0.00  0.00    +0.000 N 
ATOM      9  C   UNL     1       1.391  10.061  19.038  0.00  0.00    +0.000 C 
ATOM     10  C   UNL     1       0.720   8.666  19.147  0.00  0.00    +0.000 C 
ATOM     11  H   UNL     1       0.726  12.563  18.137  0.00  0.00    +0.000 HD
BRANCH   8  12
ATOM     12  C   UNL     1       1.714  14.317  18.638  0.00  0.00    +0.000 A 
ATOM     13  C   UNL     1       0.821  15.362  18.897  0.00  0.00    +0.000 A 
ATOM     14  C   UNL     1       1.197  16.696  18.701  0.00  0.00    +0.000 A 
ATOM     15  C   UNL     1       2.473  17.003  18.230  0.00  0.00    +0.000 A 
ATOM     16  C   UNL     1       3.376  15.975  17.981  0.00  0.00    +0.000 A 
ATOM     17  C   UNL     1       3.011  14.637  18.208  0.00  0.00    +0.000 A 
ENDBRANCH   8  12
ENDBRANCH   1   2
BRANCH   1  22
ATOM     18  C   UNL     1       3.545   4.141  19.394  0.00  0.00    +0.000 A 
ATOM     19  C   UNL     1       2.466   3.264  19.492  0.00  0.00    +0.000 A 
ATOM     20  C   UNL     1       1.260   3.707  20.033  0.00  0.00    +0.000 A 
ATOM     21  C   UNL     1       1.133   5.027  20.490  0.00  0.00    +0.000 A 
ATOM     22  C   UNL     1       2.197   5.936  20.376  0.00  0.00    +0.000 A 
ATOM     23  C   UNL     1       3.389   5.481  19.782  0.00  0.00    +0.000 A 
BRANCH  18  24
ATOM     24  O   UNL     1       4.699   3.608  18.857  0.00  0.00    +0.000 OA
BRANCH  24  29
ATOM     25  C   UNL     1       6.742   5.757  16.635  0.00  0.00    +0.000 A 
ATOM     26  C   UNL     1       6.219   5.354  15.404  0.00  0.00    +0.000 A 
ATOM     27  C   UNL     1       5.256   4.345  15.336  0.00  0.00    +0.000 A 
ATOM     28  C   UNL     1       4.775   3.767  16.509  0.00  0.00    +0.000 A 
ATOM     29  C   UNL     1       5.264   4.193  17.744  0.00  0.00    +0.000 A 
ATOM     30  C   UNL     1       6.298   5.136  17.801  0.00  0.00    +0.000 A 
BRANCH  25  32
ATOM     31  C   UNL     1       7.670   7.704  17.639  0.00  0.00    +0.000 C 
ATOM     32  O   UNL     1       7.658   6.770  16.566  0.00  0.00    +0.000 OA
ENDBRANCH  25  32
ENDBRANCH  24  29
ENDBRANCH  18  24
ENDBRANCH   1  22
TORSDOF 6
ENDMDL
