MODEL 1
REMARK VINA RESULT:      -8.4      0.000      0.000
REMARK  Name = 
REMARK  6 active torsions:
REMARK  status: ('A' for Active; 'I' for Inactive)
REMARK    1  A    between atoms: C_1  and  C_2
REMARK    2  A    between atoms: C_6  and  C_7
REMARK    3  A    between atoms: N_8  and  N_9
REMARK    4  A    between atoms: C_10  and  C_12
REMARK    5  A    between atoms: C_12  and  S_13
REMARK    6  A    between atoms: S_13  and  C_14
REMARK                            x       y       z     vdW  Elec       q    Type
REMARK                         _______ _______ _______ _____ _____    ______ ____
ROOT
ATOM      1  N   UNL     1       7.657   7.729  17.432  0.00  0.00    +0.000 N 
ATOM      2  C   UNL     1       7.503   6.458  17.975  0.00  0.00    +0.000 C 
ATOM      3  O   UNL     1       7.981   6.098  19.050  0.00  0.00    +0.000 OA
ATOM      4  H   UNL     1       7.187   8.007  16.578  0.00  0.00    +0.000 HD
ENDROOT
BRANCH   1   6
ATOM      5  C   UNL     1       8.377   9.869  17.718  0.00  0.00    +0.000 C 
ATOM      6  N   UNL     1       8.347   8.654  18.155  0.00  0.00    +0.000 NA
BRANCH   5  12
ATOM      7  C   UNL     1       9.904  14.614  18.129  0.00  0.00    +0.000 C 
ATOM      8  C   UNL     1       9.840  13.223  18.687  0.00  0.00    +0.000 A 
ATOM      9  C   UNL     1      10.448  12.900  19.905  0.00  0.00    +0.000 A 
ATOM     10  C   UNL     1      10.380  11.597  20.406  0.00  0.00    +0.000 A 
ATOM     11  C   UNL     1       9.705  10.600  19.697  0.00  0.00    +0.000 A 
ATOM     12  C   UNL     1       9.095  10.917  18.481  0.00  0.00    +0.000 A 
ATOM     13  C   UNL     1       9.164  12.223  17.979  0.00  0.00    +0.000 A 
ENDBRANCH   5  12
ENDBRANCH   1   6
BRANCH   2  14
ATOM     14  C   UNL     1       6.722   5.500  17.093  0.00  0.00    +0.000 C 
BRANCH  14  15
ATOM     15  S   UNL     1       5.120   6.187  16.615  0.00  0.00    +0.000 S 
BRANCH  15  16
ATOM     16  C   UNL     1       4.039   5.396  17.724  0.00  0.00    +0.000 A 
ATOM     17  N   UNL     1       3.943   5.686  19.011  0.00  0.00    +0.000 NA
ATOM     18  C   UNL     1       2.917   4.872  19.448  0.00  0.00    +0.000 A 
ATOM     19  C   UNL     1       2.318   4.721  20.707  0.00  0.00    +0.000 A 
ATOM     20  C   UNL     1       1.273   3.788  20.838  0.00  0.00    +0.000 A 
ATOM     21  C   UNL     1       0.834   3.028  19.747  0.00  0.00    +0.000 A 
ATOM     22  C   UNL     1       1.415   3.177  18.482  0.00  0.00    +0.000 A 
ATOM     23  C   UNL     1       2.444   4.109  18.396  0.00  0.00    +0.000 A 
ATOM     24  O   UNL     1       3.153   4.448  17.285  0.00  0.00    +0.000 OA
ENDBRANCH  15  16
ENDBRANCH  14  15
ENDBRANCH   2  14
TORSDOF 5
ENDMDL
MODEL 2
REMARK VINA RESULT:      -8.4      1.111      1.123
REMARK  Name = 
REMARK  6 active torsions:
REMARK  status: ('A' for Active; 'I' for Inactive)
REMARK    1  A    between atoms: C_1  and  C_2
REMARK    2  A    between atoms: C_6  and  C_7
REMARK    3  A    between atoms: N_8  and  N_9
REMARK    4  A    between atoms: C_10  and  C_12
REMARK    5  A    between atoms: C_12  and  S_13
REMARK    6  A    between atoms: S_13  and  C_14
REMARK                            x       y       z     vdW  Elec       q    Type
REMARK                         _______ _______ _______ _____ _____    ______ ____
ROOT
ATOM      1  N   UNL     1       7.379   8.241  17.392  0.00  0.00    +0.000 N 
ATOM      2  C   UNL     1       7.271   6.881  17.658  0.00  0.00    +0.000 C 
ATOM      3  O   UNL     1       7.892   6.293  18.543  0.00  0.00    +0.000 OA
ATOM      4  H   UNL     1       6.797   8.699  16.700  0.00  0.00    +0.000 HD
ENDROOT
BRANCH   1   6
ATOM      5  C   UNL     1       8.731  10.048  17.690  0.00  0.00    +0.000 C 
ATOM      6  N   UNL     1       8.192   8.987  18.191  0.00  0.00    +0.000 NA
BRANCH   5  12
ATOM      7  C   UNL     1      12.329  13.507  18.021  0.00  0.00    +0.000 C 
ATOM      8  C   UNL     1      11.354  12.587  18.694  0.00  0.00    +0.000 A 
ATOM      9  C   UNL     1      11.261  12.519  20.089  0.00  0.00    +0.000 A 
ATOM     10  C   UNL     1      10.348  11.653  20.696  0.00  0.00    +0.000 A 
ATOM     11  C   UNL     1       9.517  10.842  19.919  0.00  0.00    +0.000 A 
ATOM     12  C   UNL     1       9.604  10.905  18.526  0.00  0.00    +0.000 A 
ATOM     13  C   UNL     1      10.520  11.773  17.918  0.00  0.00    +0.000 A 
ENDBRANCH   5  12
ENDBRANCH   1   6
BRANCH   2  14
ATOM     14  C   UNL     1       6.344   6.138  16.712  0.00  0.00    +0.000 C 
BRANCH  14  15
ATOM     15  S   UNL     1       6.321   4.364  17.055  0.00  0.00    +0.000 S 
BRANCH  15  16
ATOM     16  C   UNL     1       4.895   4.202  18.037  0.00  0.00    +0.000 A 
ATOM     17  N   UNL     1       4.469   5.114  18.896  0.00  0.00    +0.000 NA
ATOM     18  C   UNL     1       3.284   4.585  19.364  0.00  0.00    +0.000 A 
ATOM     19  C   UNL     1       2.341   5.075  20.280  0.00  0.00    +0.000 A 
ATOM     20  C   UNL     1       1.211   4.285  20.558  0.00  0.00    +0.000 A 
ATOM     21  C   UNL     1       1.022   3.042  19.942  0.00  0.00    +0.000 A 
ATOM     22  C   UNL     1       1.948   2.546  19.018  0.00  0.00    +0.000 A 
ATOM     23  C   UNL     1       3.051   3.358  18.771  0.00  0.00    +0.000 A 
ATOM     24  O   UNL     1       4.075   3.111  17.911  0.00  0.00    +0.000 OA
ENDBRANCH  15  16
ENDBRANCH  14  15
ENDBRANCH   2  14
TORSDOF 5
ENDMDL
MODEL 3
REMARK VINA RESULT:      -8.3      0.889      1.313
REMARK  Name = 
REMARK  6 active torsions:
REMARK  status: ('A' for Active; 'I' for Inactive)
REMARK    1  A    between atoms: C_1  and  C_2
REMARK    2  A    between atoms: C_6  and  C_7
REMARK    3  A    between atoms: N_8  and  N_9
REMARK    4  A    between atoms: C_10  and  C_12
REMARK    5  A    between atoms: C_12  and  S_13
REMARK    6  A    between atoms: S_13  and  C_14
REMARK                            x       y       z     vdW  Elec       q    Type
REMARK                         _______ _______ _______ _____ _____    ______ ____
ROOT
ATOM      1  N   UNL     1       7.669   7.896  17.480  0.00  0.00    +0.000 N 
ATOM      2  C   UNL     1       7.540   6.599  17.963  0.00  0.00    +0.000 C 
ATOM      3  O   UNL     1       8.019   6.200  19.024  0.00  0.00    +0.000 OA
ATOM      4  H   UNL     1       7.199   8.203  16.637  0.00  0.00    +0.000 HD
ENDROOT
BRANCH   1   6
ATOM      5  C   UNL     1       8.627   9.946  17.728  0.00  0.00    +0.000 C 
ATOM      6  N   UNL     1       8.334   8.802  18.251  0.00  0.00    +0.000 NA
BRANCH   5  12
ATOM      7  C   UNL     1      10.836  14.425  18.014  0.00  0.00    +0.000 C 
ATOM      8  C   UNL     1      10.403  13.151  18.678  0.00  0.00    +0.000 A 
ATOM      9  C   UNL     1      10.656  12.916  20.035  0.00  0.00    +0.000 A 
ATOM     10  C   UNL     1      10.248  11.721  20.634  0.00  0.00    +0.000 A 
ATOM     11  C   UNL     1       9.584  10.745  19.886  0.00  0.00    +0.000 A 
ATOM     12  C   UNL     1       9.328  10.974  18.533  0.00  0.00    +0.000 A 
ATOM     13  C   UNL     1       9.738  12.172  17.932  0.00  0.00    +0.000 A 
ENDBRANCH   5  12
ENDBRANCH   1   6
BRANCH   2  14
ATOM     14  C   UNL     1       6.786   5.665  17.032  0.00  0.00    +0.000 C 
BRANCH  14  15
ATOM     15  S   UNL     1       5.210   6.376  16.507  0.00  0.00    +0.000 S 
BRANCH  15  16
ATOM     16  C   UNL     1       4.061   5.301  17.249  0.00  0.00    +0.000 A 
ATOM     17  N   UNL     1       3.869   4.044  16.886  0.00  0.00    +0.000 NA
ATOM     18  C   UNL     1       2.941   3.584  17.798  0.00  0.00    +0.000 A 
ATOM     19  C   UNL     1       2.341   2.327  17.967  0.00  0.00    +0.000 A 
ATOM     20  C   UNL     1       1.412   2.168  19.011  0.00  0.00    +0.000 A 
ATOM     21  C   UNL     1       1.090   3.229  19.866  0.00  0.00    +0.000 A 
ATOM     22  C   UNL     1       1.689   4.485  19.717  0.00  0.00    +0.000 A 
ATOM     23  C   UNL     1       2.601   4.599  18.673  0.00  0.00    +0.000 A 
ATOM     24  O   UNL     1       3.324   5.701  18.332  0.00  0.00    +0.000 OA
ENDBRANCH  15  16
ENDBRANCH  14  15
ENDBRANCH   2  14
TORSDOF 5
ENDMDL
MODEL 4
REMARK VINA RESULT:      -8.3      1.319      1.546
REMARK  Name = 
REMARK  6 active torsions:
REMARK  status: ('A' for Active; 'I' for Inactive)
REMARK    1  A    between atoms: C_1  and  C_2
REMARK    2  A    between atoms: C_6  and  C_7
REMARK    3  A    between atoms: N_8  and  N_9
REMARK    4  A    between atoms: C_10  and  C_12
REMARK    5  A    between atoms: C_12  and  S_13
REMARK    6  A    between atoms: S_13  and  C_14
REMARK                            x       y       z     vdW  Elec       q    Type
REMARK                         _______ _______ _______ _____ _____    ______ ____
ROOT
ATOM      1  N   UNL     1       7.696   8.399  17.459  0.00  0.00    +0.000 N 
ATOM      2  C   UNL     1       7.521   7.079  17.858  0.00  0.00    +0.000 C 
ATOM      3  O   UNL     1       8.036   6.580  18.858  0.00  0.00    +0.000 OA
ATOM      4  H   UNL     1       7.197   8.790  16.669  0.00  0.00    +0.000 HD
ENDROOT
BRANCH   1   6
ATOM      5  C   UNL     1       8.730  10.396  17.814  0.00  0.00    +0.000 C 
ATOM      6  N   UNL     1       8.454   9.211  18.248  0.00  0.00    +0.000 NA
BRANCH   5  12
ATOM      7  C   UNL     1      11.339  14.643  18.233  0.00  0.00    +0.000 C 
ATOM      8  C   UNL     1      10.801  13.389  18.856  0.00  0.00    +0.000 A 
ATOM      9  C   UNL     1      11.047  13.080  20.198  0.00  0.00    +0.000 A 
ATOM     10  C   UNL     1      10.540  11.905  20.759  0.00  0.00    +0.000 A 
ATOM     11  C   UNL     1       9.781  11.022  19.986  0.00  0.00    +0.000 A 
ATOM     12  C   UNL     1       9.531  11.325  18.646  0.00  0.00    +0.000 A 
ATOM     13  C   UNL     1      10.041  12.503  18.084  0.00  0.00    +0.000 A 
ENDBRANCH   5  12
ENDBRANCH   1   6
BRANCH   2  14
ATOM     14  C   UNL     1       6.664   6.256  16.912  0.00  0.00    +0.000 C 
BRANCH  14  15
ATOM     15  S   UNL     1       6.792   4.488  17.263  0.00  0.00    +0.000 S 
BRANCH  15  16
ATOM     16  C   UNL     1       5.231   4.139  17.946  0.00  0.00    +0.000 A 
ATOM     17  N   UNL     1       4.080   4.331  17.322  0.00  0.00    +0.000 NA
ATOM     18  C   UNL     1       3.147   3.840  18.212  0.00  0.00    +0.000 A 
ATOM     19  C   UNL     1       1.750   3.734  18.136  0.00  0.00    +0.000 A 
ATOM     20  C   UNL     1       1.064   3.177  19.231  0.00  0.00    +0.000 A 
ATOM     21  C   UNL     1       1.748   2.735  20.369  0.00  0.00    +0.000 A 
ATOM     22  C   UNL     1       3.142   2.822  20.455  0.00  0.00    +0.000 A 
ATOM     23  C   UNL     1       3.781   3.379  19.351  0.00  0.00    +0.000 A 
ATOM     24  O   UNL     1       5.119   3.559  19.182  0.00  0.00    +0.000 OA
ENDBRANCH  15  16
ENDBRANCH  14  15
ENDBRANCH   2  14
TORSDOF 5
ENDMDL
MODEL 5
REMARK VINA RESULT:      -8.1      4.039      7.661
REMARK  Name = 
REMARK  6 active torsions:
REMARK  status: ('A' for Active; 'I' for Inactive)
REMARK    1  A    between atoms: C_1  and  C_2
REMARK    2  A    between atoms: C_6  and  C_7
REMARK    3  A    between atoms: N_8  and  N_9
REMARK    4  A    between atoms: C_10  and  C_12
REMARK    5  A    between atoms: C_12  and  S_13
REMARK    6  A    between atoms: S_13  and  C_14
REMARK                            x       y       z     vdW  Elec       q    Type
REMARK                         _______ _______ _______ _____ _____    ______ ____
ROOT
ATOM      1  N   UNL     1       2.289   5.458  20.786  0.00  0.00    +0.000 N 
ATOM      2  C   UNL     1       1.811   4.188  20.485  0.00  0.00    +0.000 C 
ATOM      3  O   UNL     1       0.640   3.931  20.209  0.00  0.00    +0.000 OA
ATOM      4  H   UNL     1       3.274   5.637  20.938  0.00  0.00    +0.000 HD
ENDROOT
BRANCH   1   6
ATOM      5  C   UNL     1       1.883   7.696  20.855  0.00  0.00    +0.000 C 
ATOM      6  N   UNL     1       1.413   6.500  20.731  0.00  0.00    +0.000 NA
BRANCH   5  12
ATOM      7  C   UNL     1      -1.187  10.923  23.133  0.00  0.00    +0.000 C 
ATOM      8  C   UNL     1      -0.520  10.436  21.880  0.00  0.00    +0.000 A 
ATOM      9  C   UNL     1      -0.745  11.059  20.647  0.00  0.00    +0.000 A 
ATOM     10  C   UNL     1      -0.117  10.589  19.491  0.00  0.00    +0.000 A 
ATOM     11  C   UNL     1       0.744   9.490  19.551  0.00  0.00    +0.000 A 
ATOM     12  C   UNL     1       0.974   8.864  20.778  0.00  0.00    +0.000 A 
ATOM     13  C   UNL     1       0.343   9.336  21.937  0.00  0.00    +0.000 A 
ENDBRANCH   5  12
ENDBRANCH   1   6
BRANCH   2  14
ATOM     14  C   UNL     1       2.862   3.095  20.577  0.00  0.00    +0.000 C 
BRANCH  14  15
ATOM     15  S   UNL     1       3.439   2.584  18.942  0.00  0.00    +0.000 S 
BRANCH  15  16
ATOM     16  C   UNL     1       4.586   3.832  18.555  0.00  0.00    +0.000 A 
ATOM     17  N   UNL     1       4.447   4.697  17.564  0.00  0.00    +0.000 NA
ATOM     18  C   UNL     1       5.543   5.524  17.703  0.00  0.00    +0.000 A 
ATOM     19  C   UNL     1       5.960   6.650  16.977  0.00  0.00    +0.000 A 
ATOM     20  C   UNL     1       7.148   7.292  17.370  0.00  0.00    +0.000 A 
ATOM     21  C   UNL     1       7.900   6.829  18.457  0.00  0.00    +0.000 A 
ATOM     22  C   UNL     1       7.490   5.715  19.197  0.00  0.00    +0.000 A 
ATOM     23  C   UNL     1       6.310   5.110  18.775  0.00  0.00    +0.000 A 
ATOM     24  O   UNL     1       5.697   4.031  19.332  0.00  0.00    +0.000 OA
ENDBRANCH  15  16
ENDBRANCH  14  15
ENDBRANCH   2  14
TORSDOF 5
ENDMDL
MODEL 6
REMARK VINA RESULT:      -8.1      1.305      1.522
REMARK  Name = 
REMARK  6 active torsions:
REMARK  status: ('A' for Active; 'I' for Inactive)
REMARK    1  A    between atoms: C_1  and  C_2
REMARK    2  A    between atoms: C_6  and  C_7
REMARK    3  A    between atoms: N_8  and  N_9
REMARK    4  A    between atoms: C_10  and  C_12
REMARK    5  A    between atoms: C_12  and  S_13
REMARK    6  A    between atoms: S_13  and  C_14
REMARK                            x       y       z     vdW  Elec       q    Type
REMARK                         _______ _______ _______ _____ _____    ______ ____
ROOT
ATOM      1  N   UNL     1       8.151   7.611  18.351  0.00  0.00    +0.000 N 
ATOM      2  C   UNL     1       7.330   6.813  17.562  0.00  0.00    +0.000 C 
ATOM      3  O   UNL     1       6.740   7.201  16.554  0.00  0.00    +0.000 OA
ATOM      4  H   UNL     1       8.674   7.233  19.131  0.00  0.00    +0.000 HD
ENDROOT
BRANCH   1   6
ATOM      5  C   UNL     1       9.029   9.673  18.745  0.00  0.00    +0.000 C 
ATOM      6  N   UNL     1       8.355   8.900  17.960  0.00  0.00    +0.000 NA
BRANCH   5  12
ATOM      7  C   UNL     1       7.318  14.249  17.672  0.00  0.00    +0.000 C 
ATOM      8  C   UNL     1       8.472  13.305  17.832  0.00  0.00    +0.000 A 
ATOM      9  C   UNL     1       9.789  13.723  17.613  0.00  0.00    +0.000 A 
ATOM     10  C   UNL     1      10.851  12.826  17.763  0.00  0.00    +0.000 A 
ATOM     11  C   UNL     1      10.611  11.501  18.133  0.00  0.00    +0.000 A 
ATOM     12  C   UNL     1       9.298  11.077  18.354  0.00  0.00    +0.000 A 
ATOM     13  C   UNL     1       8.235  11.976  18.202  0.00  0.00    +0.000 A 
ENDBRANCH   5  12
ENDBRANCH   1   6
BRANCH   2  14
ATOM     14  C   UNL     1       7.164   5.395  18.081  0.00  0.00    +0.000 C 
BRANCH  14  15
ATOM     15  S   UNL     1       6.103   4.408  17.000  0.00  0.00    +0.000 S 
BRANCH  15  16
ATOM     16  C   UNL     1       4.694   4.171  17.991  0.00  0.00    +0.000 A 
ATOM     17  N   UNL     1       4.451   4.822  19.117  0.00  0.00    +0.000 NA
ATOM     18  C   UNL     1       3.204   4.365  19.490  0.00  0.00    +0.000 A 
ATOM     19  C   UNL     1       2.380   4.685  20.580  0.00  0.00    +0.000 A 
ATOM     20  C   UNL     1       1.138   4.034  20.688  0.00  0.00    +0.000 A 
ATOM     21  C   UNL     1       0.724   3.093  19.738  0.00  0.00    +0.000 A 
ATOM     22  C   UNL     1       1.529   2.773  18.639  0.00  0.00    +0.000 A 
ATOM     23  C   UNL     1       2.749   3.439  18.570  0.00  0.00    +0.000 A 
ATOM     24  O   UNL     1       3.696   3.317  17.600  0.00  0.00    +0.000 OA
ENDBRANCH  15  16
ENDBRANCH  14  15
ENDBRANCH   2  14
TORSDOF 5
ENDMDL
MODEL 7
REMARK VINA RESULT:      -8.1      3.854      7.323
REMARK  Name = 
REMARK  6 active torsions:
REMARK  status: ('A' for Active; 'I' for Inactive)
REMARK    1  A    between atoms: C_1  and  C_2
REMARK    2  A    between atoms: C_6  and  C_7
REMARK    3  A    between atoms: N_8  and  N_9
REMARK    4  A    between atoms: C_10  and  C_12
REMARK    5  A    between atoms: C_12  and  S_13
REMARK    6  A    between atoms: S_13  and  C_14
REMARK                            x       y       z     vdW  Elec       q    Type
REMARK                         _______ _______ _______ _____ _____    ______ ____
ROOT
ATOM      1  N   UNL     1       2.762   4.805  19.792  0.00  0.00    +0.000 N 
ATOM      2  C   UNL     1       2.746   3.662  20.583  0.00  0.00    +0.000 C 
ATOM      3  O   UNL     1       2.201   3.583  21.683  0.00  0.00    +0.000 OA
ATOM      4  H   UNL     1       3.161   4.807  18.861  0.00  0.00    +0.000 HD
ENDROOT
BRANCH   1   6
ATOM      5  C   UNL     1       2.280   7.024  19.628  0.00  0.00    +0.000 C 
ATOM      6  N   UNL     1       2.093   5.903  20.242  0.00  0.00    +0.000 NA
BRANCH   5  12
ATOM      7  C   UNL     1      -0.123   9.554  23.212  0.00  0.00    +0.000 C 
ATOM      8  C   UNL     1       0.388   9.477  21.804  0.00  0.00    +0.000 A 
ATOM      9  C   UNL     1       0.188  10.526  20.900  0.00  0.00    +0.000 A 
ATOM     10  C   UNL     1       0.669  10.434  19.590  0.00  0.00    +0.000 A 
ATOM     11  C   UNL     1       1.354   9.292  19.167  0.00  0.00    +0.000 A 
ATOM     12  C   UNL     1       1.557   8.242  20.065  0.00  0.00    +0.000 A 
ATOM     13  C   UNL     1       1.074   8.335  21.377  0.00  0.00    +0.000 A 
ENDBRANCH   5  12
ENDBRANCH   1   6
BRANCH   2  14
ATOM     14  C   UNL     1       3.521   2.495  19.996  0.00  0.00    +0.000 C 
BRANCH  14  15
ATOM     15  S   UNL     1       3.705   2.649  18.205  0.00  0.00    +0.000 S 
BRANCH  15  16
ATOM     16  C   UNL     1       4.858   3.944  18.068  0.00  0.00    +0.000 A 
ATOM     17  N   UNL     1       4.788   4.919  17.177  0.00  0.00    +0.000 NA
ATOM     18  C   UNL     1       5.852   5.733  17.507  0.00  0.00    +0.000 A 
ATOM     19  C   UNL     1       6.309   6.940  16.957  0.00  0.00    +0.000 A 
ATOM     20  C   UNL     1       7.447   7.541  17.525  0.00  0.00    +0.000 A 
ATOM     21  C   UNL     1       8.112   6.959  18.611  0.00  0.00    +0.000 A 
ATOM     22  C   UNL     1       7.661   5.761  19.177  0.00  0.00    +0.000 A 
ATOM     23  C   UNL     1       6.533   5.201  18.586  0.00  0.00    +0.000 A 
ATOM     24  O   UNL     1       5.894   4.058  18.957  0.00  0.00    +0.000 OA
ENDBRANCH  15  16
ENDBRANCH  14  15
ENDBRANCH   2  14
TORSDOF 5
ENDMDL
MODEL 8
REMARK VINA RESULT:      -7.9      3.866      7.486
REMARK  Name = 
REMARK  6 active torsions:
REMARK  status: ('A' for Active; 'I' for Inactive)
REMARK    1  A    between atoms: C_1  and  C_2
REMARK    2  A    between atoms: C_6  and  C_7
REMARK    3  A    between atoms: N_8  and  N_9
REMARK    4  A    between atoms: C_10  and  C_12
REMARK    5  A    between atoms: C_12  and  S_13
REMARK    6  A    between atoms: S_13  and  C_14
REMARK                            x       y       z     vdW  Elec       q    Type
REMARK                         _______ _______ _______ _____ _____    ______ ____
ROOT
ATOM      1  N   UNL     1       2.341   5.431  20.767  0.00  0.00    +0.000 N 
ATOM      2  C   UNL     1       1.796   4.199  20.421  0.00  0.00    +0.000 C 
ATOM      3  O   UNL     1       0.590   3.971  20.331  0.00  0.00    +0.000 OA
ATOM      4  H   UNL     1       3.341   5.595  20.760  0.00  0.00    +0.000 HD
ENDROOT
BRANCH   1   6
ATOM      5  C   UNL     1       1.849   7.645  20.584  0.00  0.00    +0.000 C 
ATOM      6  N   UNL     1       1.487   6.471  20.980  0.00  0.00    +0.000 NA
BRANCH   5  12
ATOM      7  C   UNL     1      -0.581  11.569  18.654  0.00  0.00    +0.000 C 
ATOM      8  C   UNL     1      -0.239  10.714  19.838  0.00  0.00    +0.000 A 
ATOM      9  C   UNL     1      -0.751  10.996  21.110  0.00  0.00    +0.000 A 
ATOM     10  C   UNL     1      -0.417  10.189  22.202  0.00  0.00    +0.000 A 
ATOM     11  C   UNL     1       0.432   9.092  22.038  0.00  0.00    +0.000 A 
ATOM     12  C   UNL     1       0.945   8.805  20.771  0.00  0.00    +0.000 A 
ATOM     13  C   UNL     1       0.611   9.614  19.677  0.00  0.00    +0.000 A 
ENDBRANCH   5  12
ENDBRANCH   1   6
BRANCH   2  14
ATOM     14  C   UNL     1       2.828   3.106  20.208  0.00  0.00    +0.000 C 
BRANCH  14  15
ATOM     15  S   UNL     1       3.381   3.036  18.488  0.00  0.00    +0.000 S 
BRANCH  15  16
ATOM     16  C   UNL     1       4.645   4.230  18.463  0.00  0.00    +0.000 A 
ATOM     17  N   UNL     1       5.699   4.222  19.262  0.00  0.00    +0.000 NA
ATOM     18  C   UNL     1       6.445   5.296  18.821  0.00  0.00    +0.000 A 
ATOM     19  C   UNL     1       7.682   5.808  19.240  0.00  0.00    +0.000 A 
ATOM     20  C   UNL     1       8.191   6.941  18.578  0.00  0.00    +0.000 A 
ATOM     21  C   UNL     1       7.490   7.547  17.528  0.00  0.00    +0.000 A 
ATOM     22  C   UNL     1       6.261   7.040  17.092  0.00  0.00    +0.000 A 
ATOM     23  C   UNL     1       5.794   5.919  17.772  0.00  0.00    +0.000 A 
ATOM     24  O   UNL     1       4.643   5.235  17.531  0.00  0.00    +0.000 OA
ENDBRANCH  15  16
ENDBRANCH  14  15
ENDBRANCH   2  14
TORSDOF 5
ENDMDL
MODEL 9
REMARK VINA RESULT:      -7.9      1.152      1.535
REMARK  Name = 
REMARK  6 active torsions:
REMARK  status: ('A' for Active; 'I' for Inactive)
REMARK    1  A    between atoms: C_1  and  C_2
REMARK    2  A    between atoms: C_6  and  C_7
REMARK    3  A    between atoms: N_8  and  N_9
REMARK    4  A    between atoms: C_10  and  C_12
REMARK    5  A    between atoms: C_12  and  S_13
REMARK    6  A    between atoms: S_13  and  C_14
REMARK                            x       y       z     vdW  Elec       q    Type
REMARK                         _______ _______ _______ _____ _____    ______ ____
ROOT
ATOM      1  N   UNL     1       7.795   7.378  17.905  0.00  0.00    +0.000 N 
ATOM      2  C   UNL     1       7.646   6.086  18.399  0.00  0.00    +0.000 C 
ATOM      3  O   UNL     1       8.178   5.667  19.426  0.00  0.00    +0.000 OA
ATOM      4  H   UNL     1       7.282   7.703  17.094  0.00  0.00    +0.000 HD
ENDROOT
BRANCH   1   6
ATOM      5  C   UNL     1       8.590   9.484  18.234  0.00  0.00    +0.000 C 
ATOM      6  N   UNL     1       8.545   8.256  18.628  0.00  0.00    +0.000 NA
BRANCH   5  12
ATOM      7  C   UNL     1       9.158  12.283  22.341  0.00  0.00    +0.000 C 
ATOM      8  C   UNL     1       9.655  11.846  20.994  0.00  0.00    +0.000 A 
ATOM      9  C   UNL     1      10.834  12.368  20.450  0.00  0.00    +0.000 A 
ATOM     10  C   UNL     1      11.279  11.950  19.192  0.00  0.00    +0.000 A 
ATOM     11  C   UNL     1      10.551  11.008  18.462  0.00  0.00    +0.000 A 
ATOM     12  C   UNL     1       9.373  10.483  19.000  0.00  0.00    +0.000 A 
ATOM     13  C   UNL     1       8.928  10.903  20.260  0.00  0.00    +0.000 A 
ENDBRANCH   5  12
ENDBRANCH   1   6
BRANCH   2  14
ATOM     14  C   UNL     1       6.795   5.185  17.521  0.00  0.00    +0.000 C 
BRANCH  14  15
ATOM     15  S   UNL     1       5.200   5.942  17.134  0.00  0.00    +0.000 S 
BRANCH  15  16
ATOM     16  C   UNL     1       4.102   4.979  18.080  0.00  0.00    +0.000 A 
ATOM     17  N   UNL     1       4.365   4.514  19.290  0.00  0.00    +0.000 NA
ATOM     18  C   UNL     1       3.187   3.896  19.659  0.00  0.00    +0.000 A 
ATOM     19  C   UNL     1       2.813   3.229  20.835  0.00  0.00    +0.000 A 
ATOM     20  C   UNL     1       1.514   2.692  20.910  0.00  0.00    +0.000 A 
ATOM     21  C   UNL     1       0.612   2.818  19.846  0.00  0.00    +0.000 A 
ATOM     22  C   UNL     1       0.968   3.490  18.672  0.00  0.00    +0.000 A 
ATOM     23  C   UNL     1       2.261   4.005  18.639  0.00  0.00    +0.000 A 
ATOM     24  O   UNL     1       2.837   4.708  17.627  0.00  0.00    +0.000 OA
ENDBRANCH  15  16
ENDBRANCH  14  15
ENDBRANCH   2  14
TORSDOF 5
ENDMDL
