MODEL 1
REMARK VINA RESULT:      -7.2      0.000      0.000
REMARK  Name = 
REMARK  6 active torsions:
REMARK  status: ('A' for Active; 'I' for Inactive)
REMARK    1  A    between atoms: C_1  and  O_2
REMARK    2  A    between atoms: O_2  and  N_3
REMARK    3  A    between atoms: C_4  and  C_5
REMARK    4  A    between atoms: C_4  and  C_19
REMARK    5  A    between atoms: C_5  and  N_6
REMARK    6  A    between atoms: C_9  and  N_10
REMARK                            x       y       z     vdW  Elec       q    Type
REMARK                         _______ _______ _______ _____ _____    ______ ____
ROOT
ATOM      1  N   UNL     1       4.223   6.339  17.102  0.00  0.00    +0.000 N 
ATOM      2  N   UNL     1       4.221   4.972  17.266  0.00  0.00    +0.000 NA
ATOM      3  C   UNL     1       3.486   4.492  18.208  0.00  0.00    +0.000 A 
ATOM      4  C   UNL     1       2.651   5.248  19.184  0.00  0.00    +0.000 A 
ATOM      5  C   UNL     1       2.666   6.579  18.987  0.00  0.00    +0.000 A 
ATOM      6 BR   UNL     1       1.865   7.796  20.175  0.00  0.00    +0.000 Br
ATOM      7  C   UNL     1       3.375   7.185  17.809  0.00  0.00    +0.000 A 
ATOM      8  O   UNL     1       3.202   8.364  17.508  0.00  0.00    +0.000 OA
ENDROOT
BRANCH   4   9
ATOM      9  N   UNL     1       1.987   4.481  20.144  0.00  0.00    +0.000 N 
ATOM     10  C   UNL     1       2.501   4.252  21.497  0.00  0.00    +0.000 C 
ATOM     11  C   UNL     1       2.338   2.756  21.703  0.00  0.00    +0.000 C 
ATOM     12  C   UNL     1       1.017   2.474  21.008  0.00  0.00    +0.000 C 
ATOM     13  C   UNL     1       1.009   3.433  19.810  0.00  0.00    +0.000 C 
ENDBRANCH   4   9
BRANCH   1  14
ATOM     14  C   UNL     1       5.072   6.883  16.034  0.00  0.00    +0.000 C 
BRANCH  14  16
ATOM     15  N   UNL     1       7.373   5.962  16.542  0.00  0.00    +0.000 NA
ATOM     16  C   UNL     1       6.311   6.006  15.783  0.00  0.00    +0.000 C 
BRANCH  16  17
ATOM     17  C   UNL     1       6.341   5.114  14.576  0.00  0.00    +0.000 A 
ATOM     18  C   UNL     1       5.257   4.233  14.410  0.00  0.00    +0.000 A 
ATOM     19  C   UNL     1       5.217   3.343  13.344  0.00  0.00    +0.000 A 
ATOM     20  C   UNL     1       6.265   3.320  12.426  0.00  0.00    +0.000 A 
ATOM     21 CL   UNL     1       6.221   2.204  11.121  0.00  0.00    +0.000 Cl
ATOM     22  C   UNL     1       7.344   4.190  12.574  0.00  0.00    +0.000 A 
ATOM     23  C   UNL     1       7.387   5.082  13.652  0.00  0.00    +0.000 A 
ENDBRANCH  16  17
BRANCH  15  25
ATOM     24  C   UNL     1       7.661   5.975  18.803  0.00  0.00    +0.000 C 
ATOM     25  O   UNL     1       7.302   6.776  17.673  0.00  0.00    +0.000 OA
ENDBRANCH  15  25
ENDBRANCH  14  16
ENDBRANCH   1  14
TORSDOF 5
ENDMDL
MODEL 2
REMARK VINA RESULT:      -7.1      3.531      7.328
REMARK  Name = 
REMARK  6 active torsions:
REMARK  status: ('A' for Active; 'I' for Inactive)
REMARK    1  A    between atoms: C_1  and  O_2
REMARK    2  A    between atoms: O_2  and  N_3
REMARK    3  A    between atoms: C_4  and  C_5
REMARK    4  A    between atoms: C_4  and  C_19
REMARK    5  A    between atoms: C_5  and  N_6
REMARK    6  A    between atoms: C_9  and  N_10
REMARK                            x       y       z     vdW  Elec       q    Type
REMARK                         _______ _______ _______ _____ _____    ______ ____
ROOT
ATOM      1  N   UNL     1       4.339   4.433  18.698  0.00  0.00    +0.000 N 
ATOM      2  N   UNL     1       3.813   3.764  17.616  0.00  0.00    +0.000 NA
ATOM      3  C   UNL     1       4.383   3.947  16.476  0.00  0.00    +0.000 A 
ATOM      4  C   UNL     1       5.539   4.837  16.170  0.00  0.00    +0.000 A 
ATOM      5  C   UNL     1       6.036   5.463  17.251  0.00  0.00    +0.000 A 
ATOM      6 BR   UNL     1       7.364   6.790  17.142  0.00  0.00    +0.000 Br
ATOM      7  C   UNL     1       5.518   5.169  18.631  0.00  0.00    +0.000 A 
ATOM      8  O   UNL     1       6.115   5.569  19.627  0.00  0.00    +0.000 OA
ENDROOT
BRANCH   4   9
ATOM      9  N   UNL     1       5.931   4.891  14.830  0.00  0.00    +0.000 N 
ATOM     10  C   UNL     1       5.143   4.326  13.731  0.00  0.00    +0.000 C 
ATOM     11  C   UNL     1       6.161   3.550  12.912  0.00  0.00    +0.000 C 
ATOM     12  C   UNL     1       7.388   4.441  12.990  0.00  0.00    +0.000 C 
ATOM     13  C   UNL     1       7.330   5.042  14.401  0.00  0.00    +0.000 C 
ENDBRANCH   4   9
BRANCH   1  14
ATOM     14  C   UNL     1       3.679   4.230  19.995  0.00  0.00    +0.000 C 
BRANCH  14  16
ATOM     15  N   UNL     1       1.161   4.094  20.198  0.00  0.00    +0.000 NA
ATOM     16  C   UNL     1       2.248   4.793  20.004  0.00  0.00    +0.000 C 
BRANCH  16  17
ATOM     17  C   UNL     1       2.039   6.262  19.773  0.00  0.00    +0.000 A 
ATOM     18  C   UNL     1       1.504   7.003  20.842  0.00  0.00    +0.000 A 
ATOM     19  C   UNL     1       1.241   8.360  20.709  0.00  0.00    +0.000 A 
ATOM     20  C   UNL     1       1.507   8.998  19.498  0.00  0.00    +0.000 A 
ATOM     21 CL   UNL     1       1.161  10.673  19.332  0.00  0.00    +0.000 Cl
ATOM     22  C   UNL     1       2.041   8.279  18.432  0.00  0.00    +0.000 A 
ATOM     23  C   UNL     1       2.301   6.910  18.564  0.00  0.00    +0.000 A 
ENDBRANCH  16  17
BRANCH  15  25
ATOM     24  C   UNL     1       1.397   2.554  21.862  0.00  0.00    +0.000 C 
ATOM     25  O   UNL     1       1.390   2.739  20.442  0.00  0.00    +0.000 OA
ENDBRANCH  15  25
ENDBRANCH  14  16
ENDBRANCH   1  14
TORSDOF 5
ENDMDL
MODEL 3
REMARK VINA RESULT:      -7.1      0.810      1.112
REMARK  Name = 
REMARK  6 active torsions:
REMARK  status: ('A' for Active; 'I' for Inactive)
REMARK    1  A    between atoms: C_1  and  O_2
REMARK    2  A    between atoms: O_2  and  N_3
REMARK    3  A    between atoms: C_4  and  C_5
REMARK    4  A    between atoms: C_4  and  C_19
REMARK    5  A    between atoms: C_5  and  N_6
REMARK    6  A    between atoms: C_9  and  N_10
REMARK                            x       y       z     vdW  Elec       q    Type
REMARK                         _______ _______ _______ _____ _____    ______ ____
ROOT
ATOM      1  N   UNL     1       4.402   5.742  16.746  0.00  0.00    +0.000 N 
ATOM      2  N   UNL     1       4.510   4.370  16.688  0.00  0.00    +0.000 NA
ATOM      3  C   UNL     1       3.903   3.693  17.600  0.00  0.00    +0.000 A 
ATOM      4  C   UNL     1       3.117   4.218  18.752  0.00  0.00    +0.000 A 
ATOM      5  C   UNL     1       3.020   5.559  18.769  0.00  0.00    +0.000 A 
ATOM      6 BR   UNL     1       2.256   6.510  20.200  0.00  0.00    +0.000 Br
ATOM      7  C   UNL     1       3.569   6.396  17.647  0.00  0.00    +0.000 A 
ATOM      8  O   UNL     1       3.287   7.588  17.554  0.00  0.00    +0.000 OA
ENDROOT
BRANCH   4   9
ATOM      9  N   UNL     1       2.603   3.260  19.629  0.00  0.00    +0.000 N 
ATOM     10  C   UNL     1       1.170   3.029  19.829  0.00  0.00    +0.000 C 
ATOM     11  C   UNL     1       1.014   2.977  21.340  0.00  0.00    +0.000 C 
ATOM     12  C   UNL     1       2.277   2.252  21.772  0.00  0.00    +0.000 C 
ATOM     13  C   UNL     1       3.348   2.738  20.786  0.00  0.00    +0.000 C 
ENDBRANCH   4   9
BRANCH   1  14
ATOM     14  C   UNL     1       5.104   6.512  15.711  0.00  0.00    +0.000 C 
BRANCH  14  16
ATOM     15  N   UNL     1       7.577   6.059  15.993  0.00  0.00    +0.000 NA
ATOM     16  C   UNL     1       6.457   5.879  15.344  0.00  0.00    +0.000 C 
BRANCH  16  17
ATOM     17  C   UNL     1       6.541   4.976  14.149  0.00  0.00    +0.000 A 
ATOM     18  C   UNL     1       5.531   4.006  14.014  0.00  0.00    +0.000 A 
ATOM     19  C   UNL     1       5.546   3.100  12.960  0.00  0.00    +0.000 A 
ATOM     20  C   UNL     1       6.578   3.150  12.024  0.00  0.00    +0.000 A 
ATOM     21 CL   UNL     1       6.604   2.015  10.735  0.00  0.00    +0.000 Cl
ATOM     22  C   UNL     1       7.583   4.107  12.142  0.00  0.00    +0.000 A 
ATOM     23  C   UNL     1       7.571   5.016  13.206  0.00  0.00    +0.000 A 
ENDBRANCH  16  17
BRANCH  15  25
ATOM     24  C   UNL     1       7.651   6.051  18.272  0.00  0.00    +0.000 C 
ATOM     25  O   UNL     1       7.460   6.876  17.118  0.00  0.00    +0.000 OA
ENDBRANCH  15  25
ENDBRANCH  14  16
ENDBRANCH   1  14
TORSDOF 5
ENDMDL
MODEL 4
REMARK VINA RESULT:      -7.0      2.182      3.391
REMARK  Name = 
REMARK  6 active torsions:
REMARK  status: ('A' for Active; 'I' for Inactive)
REMARK    1  A    between atoms: C_1  and  O_2
REMARK    2  A    between atoms: O_2  and  N_3
REMARK    3  A    between atoms: C_4  and  C_5
REMARK    4  A    between atoms: C_4  and  C_19
REMARK    5  A    between atoms: C_5  and  N_6
REMARK    6  A    between atoms: C_9  and  N_10
REMARK                            x       y       z     vdW  Elec       q    Type
REMARK                         _______ _______ _______ _____ _____    ______ ____
ROOT
ATOM      1  N   UNL     1       4.959   5.718  18.138  0.00  0.00    +0.000 N 
ATOM      2  N   UNL     1       4.765   6.915  17.487  0.00  0.00    +0.000 NA
ATOM      3  C   UNL     1       3.738   7.613  17.831  0.00  0.00    +0.000 A 
ATOM      4  C   UNL     1       2.697   7.263  18.838  0.00  0.00    +0.000 A 
ATOM      5  C   UNL     1       2.926   6.095  19.464  0.00  0.00    +0.000 A 
ATOM      6 BR   UNL     1       1.688   5.306  20.640  0.00  0.00    +0.000 Br
ATOM      7  C   UNL     1       4.187   5.314  19.222  0.00  0.00    +0.000 A 
ATOM      8  O   UNL     1       4.496   4.374  19.951  0.00  0.00    +0.000 OA
ENDROOT
BRANCH   4   9
ATOM      9  N   UNL     1       1.653   8.180  18.983  0.00  0.00    +0.000 N 
ATOM     10  C   UNL     1       1.195   9.063  17.907  0.00  0.00    +0.000 C 
ATOM     11  C   UNL     1       1.091  10.426  18.571  0.00  0.00    +0.000 C 
ATOM     12  C   UNL     1       0.567  10.075  19.952  0.00  0.00    +0.000 C 
ATOM     13  C   UNL     1       1.235   8.733  20.280  0.00  0.00    +0.000 C 
ENDBRANCH   4   9
BRANCH   1  14
ATOM     14  C   UNL     1       6.125   4.919  17.735  0.00  0.00    +0.000 C 
BRANCH  14  16
ATOM     15  N   UNL     1       7.651   6.511  16.495  0.00  0.00    +0.000 NA
ATOM     16  C   UNL     1       6.818   5.504  16.493  0.00  0.00    +0.000 C 
BRANCH  16  17
ATOM     17  C   UNL     1       6.542   4.896  15.149  0.00  0.00    +0.000 A 
ATOM     18  C   UNL     1       5.361   4.143  15.023  0.00  0.00    +0.000 A 
ATOM     19  C   UNL     1       5.040   3.511  13.828  0.00  0.00    +0.000 A 
ATOM     20  C   UNL     1       5.902   3.621  12.738  0.00  0.00    +0.000 A 
ATOM     21 CL   UNL     1       5.512   2.821  11.268  0.00  0.00    +0.000 Cl
ATOM     22  C   UNL     1       7.074   4.367  12.845  0.00  0.00    +0.000 A 
ATOM     23  C   UNL     1       7.400   4.999  14.051  0.00  0.00    +0.000 A 
ENDBRANCH  16  17
BRANCH  15  25
ATOM     24  C   UNL     1       7.884   8.460  17.653  0.00  0.00    +0.000 C 
ATOM     25  O   UNL     1       7.913   7.033  17.762  0.00  0.00    +0.000 OA
ENDBRANCH  15  25
ENDBRANCH  14  16
ENDBRANCH   1  14
TORSDOF 5
ENDMDL
MODEL 5
REMARK VINA RESULT:      -7.0      3.500      7.329
REMARK  Name = 
REMARK  6 active torsions:
REMARK  status: ('A' for Active; 'I' for Inactive)
REMARK    1  A    between atoms: C_1  and  O_2
REMARK    2  A    between atoms: O_2  and  N_3
REMARK    3  A    between atoms: C_4  and  C_5
REMARK    4  A    between atoms: C_4  and  C_19
REMARK    5  A    between atoms: C_5  and  N_6
REMARK    6  A    between atoms: C_9  and  N_10
REMARK                            x       y       z     vdW  Elec       q    Type
REMARK                         _______ _______ _______ _____ _____    ______ ____
ROOT
ATOM      1  N   UNL     1       4.277   4.476  18.712  0.00  0.00    +0.000 N 
ATOM      2  N   UNL     1       3.748   3.818  17.624  0.00  0.00    +0.000 NA
ATOM      3  C   UNL     1       4.337   3.987  16.491  0.00  0.00    +0.000 A 
ATOM      4  C   UNL     1       5.516   4.850  16.198  0.00  0.00    +0.000 A 
ATOM      5  C   UNL     1       6.014   5.466  17.285  0.00  0.00    +0.000 A 
ATOM      6 BR   UNL     1       7.374   6.761  17.192  0.00  0.00    +0.000 Br
ATOM      7  C   UNL     1       5.472   5.184  18.658  0.00  0.00    +0.000 A 
ATOM      8  O   UNL     1       6.067   5.571  19.662  0.00  0.00    +0.000 OA
ENDROOT
BRANCH   4   9
ATOM      9  N   UNL     1       5.926   4.894  14.863  0.00  0.00    +0.000 N 
ATOM     10  C   UNL     1       5.141   4.342  13.756  0.00  0.00    +0.000 C 
ATOM     11  C   UNL     1       6.153   3.545  12.950  0.00  0.00    +0.000 C 
ATOM     12  C   UNL     1       7.397   4.413  13.042  0.00  0.00    +0.000 C 
ATOM     13  C   UNL     1       7.333   5.017  14.451  0.00  0.00    +0.000 C 
ENDBRANCH   4   9
BRANCH   1  14
ATOM     14  C   UNL     1       3.596   4.290  20.001  0.00  0.00    +0.000 C 
BRANCH  14  16
ATOM     15  N   UNL     1       1.076   4.075  20.064  0.00  0.00    +0.000 NA
ATOM     16  C   UNL     1       2.150   4.813  19.966  0.00  0.00    +0.000 C 
BRANCH  16  17
ATOM     17  C   UNL     1       1.911   6.286  19.807  0.00  0.00    +0.000 A 
ATOM     18  C   UNL     1       2.194   6.843  18.546  0.00  0.00    +0.000 A 
ATOM     19  C   UNL     1       2.039   8.204  18.315  0.00  0.00    +0.000 A 
ATOM     20  C   UNL     1       1.600   9.032  19.347  0.00  0.00    +0.000 A 
ATOM     21 CL   UNL     1       1.430  10.718  19.063  0.00  0.00    +0.000 Cl
ATOM     22  C   UNL     1       1.312   8.495  20.600  0.00  0.00    +0.000 A 
ATOM     23  C   UNL     1       1.473   7.125  20.834  0.00  0.00    +0.000 A 
ENDBRANCH  16  17
BRANCH  15  25
ATOM     24  C   UNL     1       0.930   2.041  19.048  0.00  0.00    +0.000 C 
ATOM     25  O   UNL     1       1.332   2.716  20.244  0.00  0.00    +0.000 OA
ENDBRANCH  15  25
ENDBRANCH  14  16
ENDBRANCH   1  14
TORSDOF 5
ENDMDL
MODEL 6
REMARK VINA RESULT:      -7.0      3.788      5.677
REMARK  Name = 
REMARK  6 active torsions:
REMARK  status: ('A' for Active; 'I' for Inactive)
REMARK    1  A    between atoms: C_1  and  O_2
REMARK    2  A    between atoms: O_2  and  N_3
REMARK    3  A    between atoms: C_4  and  C_5
REMARK    4  A    between atoms: C_4  and  C_19
REMARK    5  A    between atoms: C_5  and  N_6
REMARK    6  A    between atoms: C_9  and  N_10
REMARK                            x       y       z     vdW  Elec       q    Type
REMARK                         _______ _______ _______ _____ _____    ______ ____
ROOT
ATOM      1  N   UNL     1       2.277   7.469  19.423  0.00  0.00    +0.000 N 
ATOM      2  N   UNL     1       2.224   7.970  18.141  0.00  0.00    +0.000 NA
ATOM      3  C   UNL     1       1.484   9.006  17.944  0.00  0.00    +0.000 A 
ATOM      4  C   UNL     1       0.634   9.719  18.939  0.00  0.00    +0.000 A 
ATOM      5  C   UNL     1       0.721   9.211  20.181  0.00  0.00    +0.000 A 
ATOM      6 BR   UNL     1      -0.380   9.781  21.596  0.00  0.00    +0.000 Br
ATOM      7  C   UNL     1       1.686   8.108  20.508  0.00  0.00    +0.000 A 
ATOM      8  O   UNL     1       1.923   7.801  21.675  0.00  0.00    +0.000 OA
ENDROOT
BRANCH   4   9
ATOM      9  N   UNL     1      -0.115  10.791  18.446  0.00  0.00    +0.000 N 
ATOM     10  C   UNL     1       0.152  12.191  18.787  0.00  0.00    +0.000 C 
ATOM     11  C   UNL     1      -1.218  12.750  19.134  0.00  0.00    +0.000 C 
ATOM     12  C   UNL     1      -2.117  12.055  18.126  0.00  0.00    +0.000 C 
ATOM     13  C   UNL     1      -1.501  10.659  17.969  0.00  0.00    +0.000 C 
ENDBRANCH   4   9
BRANCH   1  14
ATOM     14  C   UNL     1       3.113   6.281  19.642  0.00  0.00    +0.000 C 
BRANCH  14  16
ATOM     15  N   UNL     1       1.999   4.352  18.442  0.00  0.00    +0.000 NA
ATOM     16  C   UNL     1       2.947   5.248  18.515  0.00  0.00    +0.000 C 
BRANCH  16  17
ATOM     17  C   UNL     1       3.938   5.233  17.387  0.00  0.00    +0.000 A 
ATOM     18  C   UNL     1       4.250   3.979  16.832  0.00  0.00    +0.000 A 
ATOM     19  C   UNL     1       5.184   3.862  15.810  0.00  0.00    +0.000 A 
ATOM     20  C   UNL     1       5.824   5.003  15.329  0.00  0.00    +0.000 A 
ATOM     21 CL   UNL     1       6.994   4.851  14.079  0.00  0.00    +0.000 Cl
ATOM     22  C   UNL     1       5.523   6.253  15.865  0.00  0.00    +0.000 A 
ATOM     23  C   UNL     1       4.585   6.370  16.898  0.00  0.00    +0.000 A 
ENDBRANCH  16  17
BRANCH  15  25
ATOM     24  C   UNL     1       1.097   3.145  20.152  0.00  0.00    +0.000 C 
ATOM     25  O   UNL     1       1.076   4.412  19.486  0.00  0.00    +0.000 OA
ENDBRANCH  15  25
ENDBRANCH  14  16
ENDBRANCH   1  14
TORSDOF 5
ENDMDL
MODEL 7
REMARK VINA RESULT:      -6.9      3.619      5.500
REMARK  Name = 
REMARK  6 active torsions:
REMARK  status: ('A' for Active; 'I' for Inactive)
REMARK    1  A    between atoms: C_1  and  O_2
REMARK    2  A    between atoms: O_2  and  N_3
REMARK    3  A    between atoms: C_4  and  C_5
REMARK    4  A    between atoms: C_4  and  C_19
REMARK    5  A    between atoms: C_5  and  N_6
REMARK    6  A    between atoms: C_9  and  N_10
REMARK                            x       y       z     vdW  Elec       q    Type
REMARK                         _______ _______ _______ _____ _____    ______ ____
ROOT
ATOM      1  N   UNL     1       2.532   7.272  19.230  0.00  0.00    +0.000 N 
ATOM      2  N   UNL     1       2.571   7.922  18.017  0.00  0.00    +0.000 NA
ATOM      3  C   UNL     1       1.827   8.964  17.882  0.00  0.00    +0.000 A 
ATOM      4  C   UNL     1       0.883   9.543  18.881  0.00  0.00    +0.000 A 
ATOM      5  C   UNL     1       0.881   8.892  20.058  0.00  0.00    +0.000 A 
ATOM      6 BR   UNL     1      -0.342   9.275  21.434  0.00  0.00    +0.000 Br
ATOM      7  C   UNL     1       1.842   7.769  20.330  0.00  0.00    +0.000 A 
ATOM      8  O   UNL     1       1.990   7.329  21.468  0.00  0.00    +0.000 OA
ENDROOT
BRANCH   4   9
ATOM      9  N   UNL     1       0.153  10.656  18.458  0.00  0.00    +0.000 N 
ATOM     10  C   UNL     1       0.460  12.030  18.864  0.00  0.00    +0.000 C 
ATOM     11  C   UNL     1      -0.888  12.604  19.265  0.00  0.00    +0.000 C 
ATOM     12  C   UNL     1      -1.823  11.983  18.241  0.00  0.00    +0.000 C 
ATOM     13  C   UNL     1      -1.244  10.583  18.002  0.00  0.00    +0.000 C 
ENDBRANCH   4   9
BRANCH   1  14
ATOM     14  C   UNL     1       3.374   6.077  19.376  0.00  0.00    +0.000 C 
BRANCH  14  16
ATOM     15  N   UNL     1       2.131   4.304  18.067  0.00  0.00    +0.000 NA
ATOM     16  C   UNL     1       3.167   5.085  18.218  0.00  0.00    +0.000 C 
BRANCH  16  17
ATOM     17  C   UNL     1       4.220   4.975  17.154  0.00  0.00    +0.000 A 
ATOM     18  C   UNL     1       4.670   6.178  16.579  0.00  0.00    +0.000 A 
ATOM     19  C   UNL     1       5.615   6.173  15.561  0.00  0.00    +0.000 A 
ATOM     20  C   UNL     1       6.123   4.961  15.099  0.00  0.00    +0.000 A 
ATOM     21 CL   UNL     1       7.276   4.959  13.825  0.00  0.00    +0.000 Cl
ATOM     22  C   UNL     1       5.691   3.761  15.660  0.00  0.00    +0.000 A 
ATOM     23  C   UNL     1       4.734   3.766  16.683  0.00  0.00    +0.000 A 
ENDBRANCH  16  17
BRANCH  15  25
ATOM     24  C   UNL     1       1.011   3.188  19.709  0.00  0.00    +0.000 C 
ATOM     25  O   UNL     1       1.155   4.452  19.053  0.00  0.00    +0.000 OA
ENDBRANCH  15  25
ENDBRANCH  14  16
ENDBRANCH   1  14
TORSDOF 5
ENDMDL
MODEL 8
REMARK VINA RESULT:      -6.9      6.743      8.824
REMARK  Name = 
REMARK  6 active torsions:
REMARK  status: ('A' for Active; 'I' for Inactive)
REMARK    1  A    between atoms: C_1  and  O_2
REMARK    2  A    between atoms: O_2  and  N_3
REMARK    3  A    between atoms: C_4  and  C_5
REMARK    4  A    between atoms: C_4  and  C_19
REMARK    5  A    between atoms: C_5  and  N_6
REMARK    6  A    between atoms: C_9  and  N_10
REMARK                            x       y       z     vdW  Elec       q    Type
REMARK                         _______ _______ _______ _____ _____    ______ ____
ROOT
ATOM      1  N   UNL     1      -0.559  11.034  19.303  0.00  0.00    +0.000 N 
ATOM      2  N   UNL     1      -1.033  10.200  18.315  0.00  0.00    +0.000 NA
ATOM      3  C   UNL     1      -2.268  10.334  17.975  0.00  0.00    +0.000 A 
ATOM      4  C   UNL     1      -3.275  11.268  18.553  0.00  0.00    +0.000 A 
ATOM      5  C   UNL     1      -2.774  12.076  19.504  0.00  0.00    +0.000 A 
ATOM      6 BR   UNL     1      -3.847  13.220  20.542  0.00  0.00    +0.000 Br
ATOM      7  C   UNL     1      -1.307  12.080  19.832  0.00  0.00    +0.000 A 
ATOM      8  O   UNL     1      -0.820  12.964  20.533  0.00  0.00    +0.000 OA
ENDROOT
BRANCH   4   9
ATOM      9  N   UNL     1      -4.568  11.172  18.033  0.00  0.00    +0.000 N 
ATOM     10  C   UNL     1      -5.045  11.962  16.895  0.00  0.00    +0.000 C 
ATOM     11  C   UNL     1      -6.395  12.489  17.355  0.00  0.00    +0.000 C 
ATOM     12  C   UNL     1      -6.951  11.313  18.139  0.00  0.00    +0.000 C 
ATOM     13  C   UNL     1      -5.721  10.690  18.810  0.00  0.00    +0.000 C 
ENDBRANCH   4   9
BRANCH   1  14
ATOM     14  C   UNL     1       0.847  10.871  19.697  0.00  0.00    +0.000 C 
BRANCH  14  16
ATOM     15  N   UNL     1       0.839   9.459  21.795  0.00  0.00    +0.000 NA
ATOM     16  C   UNL     1       1.069   9.588  20.515  0.00  0.00    +0.000 C 
BRANCH  16  17
ATOM     17  C   UNL     1       1.591   8.363  19.825  0.00  0.00    +0.000 A 
ATOM     18  C   UNL     1       1.561   7.161  20.555  0.00  0.00    +0.000 A 
ATOM     19  C   UNL     1       2.058   5.982  20.012  0.00  0.00    +0.000 A 
ATOM     20  C   UNL     1       2.599   5.990  18.727  0.00  0.00    +0.000 A 
ATOM     21 CL   UNL     1       3.231   4.535  18.068  0.00  0.00    +0.000 Cl
ATOM     22  C   UNL     1       2.633   7.172  17.990  0.00  0.00    +0.000 A 
ATOM     23  C   UNL     1       2.137   8.360  18.539  0.00  0.00    +0.000 A 
ENDBRANCH  16  17
BRANCH  15  25
ATOM     24  C   UNL     1      -0.818  10.207  23.170  0.00  0.00    +0.000 C 
ATOM     25  O   UNL     1       0.323  10.604  22.402  0.00  0.00    +0.000 OA
ENDBRANCH  15  25
ENDBRANCH  14  16
ENDBRANCH   1  14
TORSDOF 5
ENDMDL
MODEL 9
REMARK VINA RESULT:      -6.7      0.812      1.442
REMARK  Name = 
REMARK  6 active torsions:
REMARK  status: ('A' for Active; 'I' for Inactive)
REMARK    1  A    between atoms: C_1  and  O_2
REMARK    2  A    between atoms: O_2  and  N_3
REMARK    3  A    between atoms: C_4  and  C_5
REMARK    4  A    between atoms: C_4  and  C_19
REMARK    5  A    between atoms: C_5  and  N_6
REMARK    6  A    between atoms: C_9  and  N_10
REMARK                            x       y       z     vdW  Elec       q    Type
REMARK                         _______ _______ _______ _____ _____    ______ ____
ROOT
ATOM      1  N   UNL     1       4.260   5.802  16.957  0.00  0.00    +0.000 N 
ATOM      2  N   UNL     1       4.396   4.433  16.890  0.00  0.00    +0.000 NA
ATOM      3  C   UNL     1       3.799   3.737  17.795  0.00  0.00    +0.000 A 
ATOM      4  C   UNL     1       2.997   4.239  18.947  0.00  0.00    +0.000 A 
ATOM      5  C   UNL     1       2.874   5.578  18.973  0.00  0.00    +0.000 A 
ATOM      6 BR   UNL     1       2.085   6.504  20.407  0.00  0.00    +0.000 Br
ATOM      7  C   UNL     1       3.411   6.433  17.859  0.00  0.00    +0.000 A 
ATOM      8  O   UNL     1       3.106   7.620  17.773  0.00  0.00    +0.000 OA
ENDROOT
BRANCH   4   9
ATOM      9  N   UNL     1       2.499   3.265  19.816  0.00  0.00    +0.000 N 
ATOM     10  C   UNL     1       1.075   3.103  20.121  0.00  0.00    +0.000 C 
ATOM     11  C   UNL     1       1.037   2.979  21.635  0.00  0.00    +0.000 C 
ATOM     12  C   UNL     1       2.285   2.164  21.926  0.00  0.00    +0.000 C 
ATOM     13  C   UNL     1       3.301   2.643  20.881  0.00  0.00    +0.000 C 
ENDBRANCH   4   9
BRANCH   1  14
ATOM     14  C   UNL     1       4.951   6.593  15.930  0.00  0.00    +0.000 C 
BRANCH  14  16
ATOM     15  N   UNL     1       7.440   6.300  16.278  0.00  0.00    +0.000 NA
ATOM     16  C   UNL     1       6.347   6.029  15.615  0.00  0.00    +0.000 C 
BRANCH  16  17
ATOM     17  C   UNL     1       6.510   5.087  14.458  0.00  0.00    +0.000 A 
ATOM     18  C   UNL     1       7.593   5.326  13.592  0.00  0.00    +0.000 A 
ATOM     19  C   UNL     1       7.802   4.530  12.473  0.00  0.00    +0.000 A 
ATOM     20  C   UNL     1       6.925   3.481  12.201  0.00  0.00    +0.000 A 
ATOM     21 CL   UNL     1       7.176   2.512  10.804  0.00  0.00    +0.000 Cl
ATOM     22  C   UNL     1       5.851   3.229  13.051  0.00  0.00    +0.000 A 
ATOM     23  C   UNL     1       5.637   4.034  14.176  0.00  0.00    +0.000 A 
ENDBRANCH  16  17
BRANCH  15  25
ATOM     24  C   UNL     1       7.909   6.562  18.493  0.00  0.00    +0.000 C 
ATOM     25  O   UNL     1       7.251   7.152  17.367  0.00  0.00    +0.000 OA
ENDBRANCH  15  25
ENDBRANCH  14  16
ENDBRANCH   1  14
TORSDOF 5
ENDMDL
