MODEL 1
REMARK VINA RESULT:      -7.2      0.000      0.000
REMARK  Name = 
REMARK  1 active torsions:
REMARK  status: ('A' for Active; 'I' for Inactive)
REMARK    1  A    between atoms: C_1  and  C_2
REMARK                            x       y       z     vdW  Elec       q    Type
REMARK                         _______ _______ _______ _____ _____    ______ ____
ROOT
ATOM      1  C   UNL     1       4.874   6.861  15.842  0.00  0.00    +0.000 C 
ATOM      2  C   UNL     1       4.709   5.830  16.900  0.00  0.00    +0.000 A 
ATOM      3  C   UNL     1       5.687   4.896  17.329  0.00  0.00    +0.000 A 
ATOM      4  C   UNL     1       5.055   4.182  18.305  0.00  0.00    +0.000 A 
ATOM      5  N   UNL     1       5.550   3.145  19.058  0.00  0.00    +0.000 N 
ATOM      6  C   UNL     1       4.693   2.544  20.029  0.00  0.00    +0.000 A 
ATOM      7  O   UNL     1       5.152   1.629  20.684  0.00  0.00    +0.000 OA
ATOM      8  C   UNL     1       3.311   3.085  20.164  0.00  0.00    +0.000 A 
ATOM      9  C   UNL     1       2.449   2.517  21.107  0.00  0.00    +0.000 A 
ATOM     10  C   UNL     1       1.154   3.016  21.244  0.00  0.00    +0.000 A 
ATOM     11  C   UNL     1       0.721   4.079  20.442  0.00  0.00    +0.000 A 
ATOM     12  C   UNL     1       1.573   4.652  19.493  0.00  0.00    +0.000 A 
ATOM     13  C   UNL     1       2.869   4.152  19.359  0.00  0.00    +0.000 A 
ATOM     14  N   UNL     1       3.781   4.683  18.426  0.00  0.00    +0.000 N 
ATOM     15  N   UNL     1       3.549   5.698  17.569  0.00  0.00    +0.000 NA
ATOM     16  H   UNL     1       6.493   2.795  18.948  0.00  0.00    +0.000 HD
ENDROOT
TORSDOF 0
ENDMDL
MODEL 2
REMARK VINA RESULT:      -7.1      2.202      2.952
REMARK  Name = 
REMARK  1 active torsions:
REMARK  status: ('A' for Active; 'I' for Inactive)
REMARK    1  A    between atoms: C_1  and  C_2
REMARK                            x       y       z     vdW  Elec       q    Type
REMARK                         _______ _______ _______ _____ _____    ______ ____
ROOT
ATOM      1  C   UNL     1       6.033   4.030  14.952  0.00  0.00    +0.000 C 
ATOM      2  C   UNL     1       5.151   4.529  16.040  0.00  0.00    +0.000 A 
ATOM      3  C   UNL     1       4.945   5.884  16.405  0.00  0.00    +0.000 A 
ATOM      4  C   UNL     1       4.061   5.814  17.442  0.00  0.00    +0.000 A 
ATOM      5  N   UNL     1       3.522   6.846  18.172  0.00  0.00    +0.000 N 
ATOM      6  C   UNL     1       2.610   6.527  19.224  0.00  0.00    +0.000 A 
ATOM      7  O   UNL     1       2.146   7.455  19.857  0.00  0.00    +0.000 OA
ATOM      8  C   UNL     1       2.300   5.089  19.461  0.00  0.00    +0.000 A 
ATOM      9  C   UNL     1       1.411   4.746  20.484  0.00  0.00    +0.000 A 
ATOM     10  C   UNL     1       1.111   3.403  20.713  0.00  0.00    +0.000 A 
ATOM     11  C   UNL     1       1.698   2.406  19.925  0.00  0.00    +0.000 A 
ATOM     12  C   UNL     1       2.592   2.738  18.901  0.00  0.00    +0.000 A 
ATOM     13  C   UNL     1       2.889   4.081  18.672  0.00  0.00    +0.000 A 
ATOM     14  N   UNL     1       3.778   4.487  17.659  0.00  0.00    +0.000 N 
ATOM     15  N   UNL     1       4.440   3.680  16.804  0.00  0.00    +0.000 NA
ATOM     16  H   UNL     1       3.748   7.815  17.993  0.00  0.00    +0.000 HD
ENDROOT
TORSDOF 0
ENDMDL
MODEL 3
REMARK VINA RESULT:      -6.9      2.177      5.020
REMARK  Name = 
REMARK  1 active torsions:
REMARK  status: ('A' for Active; 'I' for Inactive)
REMARK    1  A    between atoms: C_1  and  C_2
REMARK                            x       y       z     vdW  Elec       q    Type
REMARK                         _______ _______ _______ _____ _____    ______ ____
ROOT
ATOM      1  C   UNL     1       1.024   2.662  18.743  0.00  0.00    +0.000 C 
ATOM      2  C   UNL     1       2.412   3.154  18.531  0.00  0.00    +0.000 A 
ATOM      3  C   UNL     1       3.352   3.488  19.539  0.00  0.00    +0.000 A 
ATOM      4  C   UNL     1       4.457   3.879  18.842  0.00  0.00    +0.000 A 
ATOM      5  N   UNL     1       5.667   4.308  19.333  0.00  0.00    +0.000 N 
ATOM      6  C   UNL     1       6.686   4.671  18.401  0.00  0.00    +0.000 A 
ATOM      7  O   UNL     1       7.747   5.048  18.857  0.00  0.00    +0.000 OA
ATOM      8  C   UNL     1       6.370   4.558  16.949  0.00  0.00    +0.000 A 
ATOM      9  C   UNL     1       7.348   4.906  16.012  0.00  0.00    +0.000 A 
ATOM     10  C   UNL     1       7.064   4.803  14.651  0.00  0.00    +0.000 A 
ATOM     11  C   UNL     1       5.808   4.354  14.225  0.00  0.00    +0.000 A 
ATOM     12  C   UNL     1       4.821   4.006  15.153  0.00  0.00    +0.000 A 
ATOM     13  C   UNL     1       5.107   4.109  16.515  0.00  0.00    +0.000 A 
ATOM     14  N   UNL     1       4.162   3.775  17.504  0.00  0.00    +0.000 N 
ATOM     15  N   UNL     1       2.907   3.330  17.293  0.00  0.00    +0.000 NA
ATOM     16  H   UNL     1       5.858   4.376  20.324  0.00  0.00    +0.000 HD
ENDROOT
TORSDOF 0
ENDMDL
MODEL 4
REMARK VINA RESULT:      -6.9      2.468      5.327
REMARK  Name = 
REMARK  1 active torsions:
REMARK  status: ('A' for Active; 'I' for Inactive)
REMARK    1  A    between atoms: C_1  and  C_2
REMARK                            x       y       z     vdW  Elec       q    Type
REMARK                         _______ _______ _______ _____ _____    ______ ____
ROOT
ATOM      1  C   UNL     1       1.824   2.556  21.591  0.00  0.00    +0.000 C 
ATOM      2  C   UNL     1       2.225   3.649  20.666  0.00  0.00    +0.000 A 
ATOM      3  C   UNL     1       1.803   5.002  20.725  0.00  0.00    +0.000 A 
ATOM      4  C   UNL     1       2.441   5.592  19.674  0.00  0.00    +0.000 A 
ATOM      5  N   UNL     1       2.384   6.904  19.269  0.00  0.00    +0.000 N 
ATOM      6  C   UNL     1       3.145   7.294  18.126  0.00  0.00    +0.000 A 
ATOM      7  O   UNL     1       3.078   8.459  17.786  0.00  0.00    +0.000 OA
ATOM      8  C   UNL     1       3.957   6.248  17.444  0.00  0.00    +0.000 A 
ATOM      9  C   UNL     1       4.713   6.600  16.321  0.00  0.00    +0.000 A 
ATOM     10  C   UNL     1       5.479   5.630  15.675  0.00  0.00    +0.000 A 
ATOM     11  C   UNL     1       5.491   4.313  16.148  0.00  0.00    +0.000 A 
ATOM     12  C   UNL     1       4.736   3.948  17.267  0.00  0.00    +0.000 A 
ATOM     13  C   UNL     1       3.971   4.920  17.913  0.00  0.00    +0.000 A 
ATOM     14  N   UNL     1       3.189   4.625  19.046  0.00  0.00    +0.000 N 
ATOM     15  N   UNL     1       3.068   3.421  19.643  0.00  0.00    +0.000 NA
ATOM     16  H   UNL     1       1.824   7.597  19.749  0.00  0.00    +0.000 HD
ENDROOT
TORSDOF 0
ENDMDL
MODEL 5
REMARK VINA RESULT:      -6.9      3.228      4.229
REMARK  Name = 
REMARK  1 active torsions:
REMARK  status: ('A' for Active; 'I' for Inactive)
REMARK    1  A    between atoms: C_1  and  C_2
REMARK                            x       y       z     vdW  Elec       q    Type
REMARK                         _______ _______ _______ _____ _____    ______ ____
ROOT
ATOM      1  C   UNL     1       5.994   3.315  12.222  0.00  0.00    +0.000 C 
ATOM      2  C   UNL     1       6.148   3.935  13.565  0.00  0.00    +0.000 A 
ATOM      3  C   UNL     1       7.186   4.810  13.977  0.00  0.00    +0.000 A 
ATOM      4  C   UNL     1       6.880   5.096  15.275  0.00  0.00    +0.000 A 
ATOM      5  N   UNL     1       7.562   5.903  16.153  0.00  0.00    +0.000 N 
ATOM      6  C   UNL     1       7.046   6.051  17.476  0.00  0.00    +0.000 A 
ATOM      7  O   UNL     1       7.666   6.769  18.237  0.00  0.00    +0.000 OA
ATOM      8  C   UNL     1       5.794   5.319  17.819  0.00  0.00    +0.000 A 
ATOM      9  C   UNL     1       5.265   5.445  19.108  0.00  0.00    +0.000 A 
ATOM     10  C   UNL     1       4.093   4.766  19.439  0.00  0.00    +0.000 A 
ATOM     11  C   UNL     1       3.451   3.964  18.488  0.00  0.00    +0.000 A 
ATOM     12  C   UNL     1       3.973   3.827  17.198  0.00  0.00    +0.000 A 
ATOM     13  C   UNL     1       5.145   4.508  16.868  0.00  0.00    +0.000 A 
ATOM     14  N   UNL     1       5.726   4.418  15.588  0.00  0.00    +0.000 N 
ATOM     15  N   UNL     1       5.260   3.698  14.547  0.00  0.00    +0.000 NA
ATOM     16  H   UNL     1       8.410   6.390  15.898  0.00  0.00    +0.000 HD
ENDROOT
TORSDOF 0
ENDMDL
MODEL 6
REMARK VINA RESULT:      -6.8      2.476      3.073
REMARK  Name = 
REMARK  1 active torsions:
REMARK  status: ('A' for Active; 'I' for Inactive)
REMARK    1  A    between atoms: C_1  and  C_2
REMARK                            x       y       z     vdW  Elec       q    Type
REMARK                         _______ _______ _______ _____ _____    ______ ____
ROOT
ATOM      1  C   UNL     1       6.137   3.742  13.032  0.00  0.00    +0.000 C 
ATOM      2  C   UNL     1       6.063   4.075  14.479  0.00  0.00    +0.000 A 
ATOM      3  C   UNL     1       7.155   4.377  15.333  0.00  0.00    +0.000 A 
ATOM      4  C   UNL     1       6.571   4.608  16.544  0.00  0.00    +0.000 A 
ATOM      5  N   UNL     1       7.177   4.943  17.731  0.00  0.00    +0.000 N 
ATOM      6  C   UNL     1       6.353   5.135  18.881  0.00  0.00    +0.000 A 
ATOM      7  O   UNL     1       6.910   5.429  19.921  0.00  0.00    +0.000 OA
ATOM      8  C   UNL     1       4.882   4.959  18.718  0.00  0.00    +0.000 A 
ATOM      9  C   UNL     1       4.049   5.140  19.826  0.00  0.00    +0.000 A 
ATOM     10  C   UNL     1       2.671   4.981  19.685  0.00  0.00    +0.000 A 
ATOM     11  C   UNL     1       2.126   4.642  18.441  0.00  0.00    +0.000 A 
ATOM     12  C   UNL     1       2.949   4.454  17.326  0.00  0.00    +0.000 A 
ATOM     13  C   UNL     1       4.328   4.615  17.469  0.00  0.00    +0.000 A 
ATOM     14  N   UNL     1       5.216   4.445  16.390  0.00  0.00    +0.000 N 
ATOM     15  N   UNL     1       4.883   4.117  15.125  0.00  0.00    +0.000 NA
ATOM     16  H   UNL     1       8.178   5.056  17.818  0.00  0.00    +0.000 HD
ENDROOT
TORSDOF 0
ENDMDL
MODEL 7
REMARK VINA RESULT:      -6.8      1.719      1.868
REMARK  Name = 
REMARK  1 active torsions:
REMARK  status: ('A' for Active; 'I' for Inactive)
REMARK    1  A    between atoms: C_1  and  C_2
REMARK                            x       y       z     vdW  Elec       q    Type
REMARK                         _______ _______ _______ _____ _____    ______ ____
ROOT
ATOM      1  C   UNL     1       7.386   7.136  17.438  0.00  0.00    +0.000 C 
ATOM      2  C   UNL     1       6.372   6.075  17.674  0.00  0.00    +0.000 A 
ATOM      3  C   UNL     1       6.378   4.765  17.129  0.00  0.00    +0.000 A 
ATOM      4  C   UNL     1       5.252   4.190  17.641  0.00  0.00    +0.000 A 
ATOM      5  N   UNL     1       4.775   2.918  17.433  0.00  0.00    +0.000 N 
ATOM      6  C   UNL     1       3.561   2.536  18.081  0.00  0.00    +0.000 A 
ATOM      7  O   UNL     1       3.157   1.408  17.882  0.00  0.00    +0.000 OA
ATOM      8  C   UNL     1       2.889   3.547  18.946  0.00  0.00    +0.000 A 
ATOM      9  C   UNL     1       1.699   3.202  19.594  0.00  0.00    +0.000 A 
ATOM     10  C   UNL     1       1.062   4.138  20.408  0.00  0.00    +0.000 A 
ATOM     11  C   UNL     1       1.611   5.415  20.575  0.00  0.00    +0.000 A 
ATOM     12  C   UNL     1       2.799   5.772  19.929  0.00  0.00    +0.000 A 
ATOM     13  C   UNL     1       3.435   4.834  19.116  0.00  0.00    +0.000 A 
ATOM     14  N   UNL     1       4.634   5.124  18.437  0.00  0.00    +0.000 N 
ATOM     15  N   UNL     1       5.310   6.291  18.470  0.00  0.00    +0.000 NA
ATOM     16  H   UNL     1       5.249   2.250  16.841  0.00  0.00    +0.000 HD
ENDROOT
TORSDOF 0
ENDMDL
MODEL 8
REMARK VINA RESULT:      -6.7      1.921      4.454
REMARK  Name = 
REMARK  1 active torsions:
REMARK  status: ('A' for Active; 'I' for Inactive)
REMARK    1  A    between atoms: C_1  and  C_2
REMARK                            x       y       z     vdW  Elec       q    Type
REMARK                         _______ _______ _______ _____ _____    ______ ____
ROOT
ATOM      1  C   UNL     1       1.190   7.855  21.197  0.00  0.00    +0.000 C 
ATOM      2  C   UNL     1       1.817   6.785  20.377  0.00  0.00    +0.000 A 
ATOM      3  C   UNL     1       1.684   5.386  20.570  0.00  0.00    +0.000 A 
ATOM      4  C   UNL     1       2.439   4.843  19.572  0.00  0.00    +0.000 A 
ATOM      5  N   UNL     1       2.659   3.515  19.296  0.00  0.00    +0.000 N 
ATOM      6  C   UNL     1       3.497   3.183  18.189  0.00  0.00    +0.000 A 
ATOM      7  O   UNL     1       3.678   2.002  17.964  0.00  0.00    +0.000 OA
ATOM      8  C   UNL     1       4.080   4.304  17.400  0.00  0.00    +0.000 A 
ATOM      9  C   UNL     1       4.906   4.010  16.310  0.00  0.00    +0.000 A 
ATOM     10  C   UNL     1       5.456   5.051  15.563  0.00  0.00    +0.000 A 
ATOM     11  C   UNL     1       5.184   6.382  15.902  0.00  0.00    +0.000 A 
ATOM     12  C   UNL     1       4.363   6.688  16.993  0.00  0.00    +0.000 A 
ATOM     13  C   UNL     1       3.813   5.645  17.738  0.00  0.00    +0.000 A 
ATOM     14  N   UNL     1       2.977   5.879  18.847  0.00  0.00    +0.000 N 
ATOM     15  N   UNL     1       2.604   7.083  19.327  0.00  0.00    +0.000 NA
ATOM     16  H   UNL     1       2.251   2.771  19.846  0.00  0.00    +0.000 HD
ENDROOT
TORSDOF 0
ENDMDL
MODEL 9
REMARK VINA RESULT:      -6.6      1.898      4.442
REMARK  Name = 
REMARK  1 active torsions:
REMARK  status: ('A' for Active; 'I' for Inactive)
REMARK    1  A    between atoms: C_1  and  C_2
REMARK                            x       y       z     vdW  Elec       q    Type
REMARK                         _______ _______ _______ _____ _____    ______ ____
ROOT
ATOM      1  C   UNL     1       1.501   2.430  21.868  0.00  0.00    +0.000 C 
ATOM      2  C   UNL     1       2.456   3.040  20.905  0.00  0.00    +0.000 A 
ATOM      3  C   UNL     1       3.679   2.476  20.458  0.00  0.00    +0.000 A 
ATOM      4  C   UNL     1       4.175   3.410  19.596  0.00  0.00    +0.000 A 
ATOM      5  N   UNL     1       5.345   3.369  18.876  0.00  0.00    +0.000 N 
ATOM      6  C   UNL     1       5.660   4.475  18.031  0.00  0.00    +0.000 A 
ATOM      7  O   UNL     1       6.700   4.418  17.405  0.00  0.00    +0.000 OA
ATOM      8  C   UNL     1       4.693   5.608  17.983  0.00  0.00    +0.000 A 
ATOM      9  C   UNL     1       4.974   6.706  17.164  0.00  0.00    +0.000 A 
ATOM     10  C   UNL     1       4.076   7.771  17.108  0.00  0.00    +0.000 A 
ATOM     11  C   UNL     1       2.900   7.740  17.868  0.00  0.00    +0.000 A 
ATOM     12  C   UNL     1       2.610   6.649  18.694  0.00  0.00    +0.000 A 
ATOM     13  C   UNL     1       3.510   5.584  18.747  0.00  0.00    +0.000 A 
ATOM     14  N   UNL     1       3.282   4.453  19.554  0.00  0.00    +0.000 N 
ATOM     15  N   UNL     1       2.216   4.243  20.354  0.00  0.00    +0.000 NA
ATOM     16  H   UNL     1       5.987   2.588  18.926  0.00  0.00    +0.000 HD
ENDROOT
TORSDOF 0
ENDMDL
