MODEL 1
REMARK VINA RESULT:      -7.1      0.000      0.000
REMARK  Name = 
REMARK  1 active torsions:
REMARK  status: ('A' for Active; 'I' for Inactive)
REMARK    1  A    between atoms: C_5  and  N_6
REMARK                            x       y       z     vdW  Elec       q    Type
REMARK                         _______ _______ _______ _____ _____    ______ ____
ROOT
ATOM      1  C   UNL     1       2.177   6.741  20.237  0.00  0.00    +0.000 A 
ATOM      2  C   UNL     1       1.499   5.554  20.457  0.00  0.00    +0.000 A 
ATOM      3  C   UNL     1       1.674   4.467  19.586  0.00  0.00    +0.000 A 
ATOM      4  C   UNL     1       2.564   4.569  18.486  0.00  0.00    +0.000 A 
ATOM      5  C   UNL     1       3.182   5.812  18.209  0.00  0.00    +0.000 A 
ATOM      6  C   UNL     1       3.005   6.863  19.129  0.00  0.00    +0.000 A 
ATOM      7  C   UNL     1       2.800   3.363  17.596  0.00  0.00    +0.000 C 
ATOM      8  C   UNL     1       2.250   2.046  18.152  0.00  0.00    +0.000 C 
ATOM      9  C   UNL     1       0.851   2.244  18.713  0.00  0.00    +0.000 C 
ATOM     10  C   UNL     1       0.911   3.202  19.895  0.00  0.00    +0.000 C 
ENDROOT
BRANCH   5  11
ATOM     11  N   UNL     1       4.028   6.010  17.093  0.00  0.00    +0.000 N 
ATOM     12  C   UNL     1       5.321   5.564  17.046  0.00  0.00    +0.000 C 
ATOM     13  N   UNL     1       6.118   5.286  18.040  0.00  0.00    +0.000 NA
ATOM     14  C   UNL     1       7.354   4.781  17.391  0.00  0.00    +0.000 C 
ATOM     15  C   UNL     1       6.947   4.452  15.954  0.00  0.00    +0.000 C 
ATOM     16  N   UNL     1       5.793   5.319  15.787  0.00  0.00    +0.000 N 
ATOM     17  H   UNL     1       3.901   6.895  16.621  0.00  0.00    +0.000 HD
ATOM     18  H   UNL     1       5.081   4.960  15.158  0.00  0.00    +0.000 HD
ENDBRANCH   5  11
TORSDOF 1
ENDMDL
MODEL 2
REMARK VINA RESULT:      -7.1      1.428      2.201
REMARK  Name = 
REMARK  1 active torsions:
REMARK  status: ('A' for Active; 'I' for Inactive)
REMARK    1  A    between atoms: C_5  and  N_6
REMARK                            x       y       z     vdW  Elec       q    Type
REMARK                         _______ _______ _______ _____ _____    ______ ____
ROOT
ATOM      1  C   UNL     1       3.133   7.232  17.878  0.00  0.00    +0.000 A 
ATOM      2  C   UNL     1       2.181   6.310  18.280  0.00  0.00    +0.000 A 
ATOM      3  C   UNL     1       2.480   4.938  18.280  0.00  0.00    +0.000 A 
ATOM      4  C   UNL     1       3.767   4.487  17.892  0.00  0.00    +0.000 A 
ATOM      5  C   UNL     1       4.706   5.421  17.393  0.00  0.00    +0.000 A 
ATOM      6  C   UNL     1       4.375   6.789  17.443  0.00  0.00    +0.000 A 
ATOM      7  C   UNL     1       4.100   3.008  17.969  0.00  0.00    +0.000 C 
ATOM      8  C   UNL     1       3.077   2.166  18.737  0.00  0.00    +0.000 C 
ATOM      9  C   UNL     1       1.661   2.549  18.339  0.00  0.00    +0.000 C 
ATOM     10  C   UNL     1       1.396   3.994  18.741  0.00  0.00    +0.000 C 
ENDROOT
BRANCH   5  11
ATOM     11  N   UNL     1       5.984   5.039  16.923  0.00  0.00    +0.000 N 
ATOM     12  C   UNL     1       6.225   4.668  15.628  0.00  0.00    +0.000 C 
ATOM     13  N   UNL     1       5.380   4.208  14.748  0.00  0.00    +0.000 NA
ATOM     14  C   UNL     1       6.185   4.054  13.510  0.00  0.00    +0.000 C 
ATOM     15  C   UNL     1       7.453   4.873  13.751  0.00  0.00    +0.000 C 
ATOM     16  N   UNL     1       7.506   4.881  15.203  0.00  0.00    +0.000 N 
ATOM     17  H   UNL     1       6.539   4.520  17.589  0.00  0.00    +0.000 HD
ATOM     18  H   UNL     1       7.926   5.713  15.607  0.00  0.00    +0.000 HD
ENDBRANCH   5  11
TORSDOF 1
ENDMDL
MODEL 3
REMARK VINA RESULT:      -7.0      2.446      5.814
REMARK  Name = 
REMARK  1 active torsions:
REMARK  status: ('A' for Active; 'I' for Inactive)
REMARK    1  A    between atoms: C_5  and  N_6
REMARK                            x       y       z     vdW  Elec       q    Type
REMARK                         _______ _______ _______ _____ _____    ______ ____
ROOT
ATOM      1  C   UNL     1       4.841   4.346  15.675  0.00  0.00    +0.000 A 
ATOM      2  C   UNL     1       5.731   5.407  15.661  0.00  0.00    +0.000 A 
ATOM      3  C   UNL     1       6.403   5.782  16.835  0.00  0.00    +0.000 A 
ATOM      4  C   UNL     1       6.194   5.063  18.040  0.00  0.00    +0.000 A 
ATOM      5  C   UNL     1       5.214   4.041  18.074  0.00  0.00    +0.000 A 
ATOM      6  C   UNL     1       4.590   3.676  16.865  0.00  0.00    +0.000 A 
ATOM      7  C   UNL     1       6.982   5.432  19.283  0.00  0.00    +0.000 C 
ATOM      8  C   UNL     1       8.152   6.388  19.031  0.00  0.00    +0.000 C 
ATOM      9  C   UNL     1       7.733   7.516  18.103  0.00  0.00    +0.000 C 
ATOM     10  C   UNL     1       7.366   6.941  16.742  0.00  0.00    +0.000 C 
ENDROOT
BRANCH   5  11
ATOM     11  N   UNL     1       4.900   3.327  19.253  0.00  0.00    +0.000 N 
ATOM     12  C   UNL     1       3.788   3.583  20.009  0.00  0.00    +0.000 C 
ATOM     13  N   UNL     1       3.086   4.680  20.071  0.00  0.00    +0.000 NA
ATOM     14  C   UNL     1       1.967   4.350  20.989  0.00  0.00    +0.000 C 
ATOM     15  C   UNL     1       1.954   2.824  21.073  0.00  0.00    +0.000 C 
ATOM     16  N   UNL     1       3.331   2.515  20.729  0.00  0.00    +0.000 N 
ATOM     17  H   UNL     1       5.700   3.064  19.811  0.00  0.00    +0.000 HD
ATOM     18  H   UNL     1       3.460   1.628  20.251  0.00  0.00    +0.000 HD
ENDBRANCH   5  11
TORSDOF 1
ENDMDL
MODEL 4
REMARK VINA RESULT:      -6.9      1.512      2.108
REMARK  Name = 
REMARK  1 active torsions:
REMARK  status: ('A' for Active; 'I' for Inactive)
REMARK    1  A    between atoms: C_5  and  N_6
REMARK                            x       y       z     vdW  Elec       q    Type
REMARK                         _______ _______ _______ _____ _____    ______ ____
ROOT
ATOM      1  C   UNL     1       2.960   7.144  18.181  0.00  0.00    +0.000 A 
ATOM      2  C   UNL     1       2.159   6.330  18.965  0.00  0.00    +0.000 A 
ATOM      3  C   UNL     1       2.592   5.043  19.322  0.00  0.00    +0.000 A 
ATOM      4  C   UNL     1       3.863   4.575  18.903  0.00  0.00    +0.000 A 
ATOM      5  C   UNL     1       4.638   5.370  18.024  0.00  0.00    +0.000 A 
ATOM      6  C   UNL     1       4.180   6.667  17.721  0.00  0.00    +0.000 A 
ATOM      7  C   UNL     1       4.350   3.211  19.358  0.00  0.00    +0.000 C 
ATOM      8  C   UNL     1       3.515   2.580  20.476  0.00  0.00    +0.000 C 
ATOM      9  C   UNL     1       2.030   2.739  20.190  0.00  0.00    +0.000 C 
ATOM     10  C   UNL     1       1.671   4.218  20.188  0.00  0.00    +0.000 C 
ENDROOT
BRANCH   5  11
ATOM     11  N   UNL     1       5.883   4.943  17.508  0.00  0.00    +0.000 N 
ATOM     12  C   UNL     1       6.072   4.601  16.196  0.00  0.00    +0.000 C 
ATOM     13  N   UNL     1       5.183   4.210  15.326  0.00  0.00    +0.000 NA
ATOM     14  C   UNL     1       5.948   4.056  14.062  0.00  0.00    +0.000 C 
ATOM     15  C   UNL     1       7.260   4.806  14.293  0.00  0.00    +0.000 C 
ATOM     16  N   UNL     1       7.351   4.766  15.743  0.00  0.00    +0.000 N 
ATOM     17  H   UNL     1       6.429   4.376  18.142  0.00  0.00    +0.000 HD
ATOM     18  H   UNL     1       7.821   5.563  16.160  0.00  0.00    +0.000 HD
ENDBRANCH   5  11
TORSDOF 1
ENDMDL
MODEL 5
REMARK VINA RESULT:      -6.9      2.309      4.835
REMARK  Name = 
REMARK  1 active torsions:
REMARK  status: ('A' for Active; 'I' for Inactive)
REMARK    1  A    between atoms: C_5  and  N_6
REMARK                            x       y       z     vdW  Elec       q    Type
REMARK                         _______ _______ _______ _____ _____    ______ ____
ROOT
ATOM      1  C   UNL     1       2.993   7.683  17.902  0.00  0.00    +0.000 A 
ATOM      2  C   UNL     1       4.204   7.495  17.257  0.00  0.00    +0.000 A 
ATOM      3  C   UNL     1       4.648   6.200  16.947  0.00  0.00    +0.000 A 
ATOM      4  C   UNL     1       3.849   5.074  17.271  0.00  0.00    +0.000 A 
ATOM      5  C   UNL     1       2.658   5.262  18.013  0.00  0.00    +0.000 A 
ATOM      6  C   UNL     1       2.235   6.580  18.271  0.00  0.00    +0.000 A 
ATOM      7  C   UNL     1       4.306   3.686  16.864  0.00  0.00    +0.000 C 
ATOM      8  C   UNL     1       5.479   3.667  15.879  0.00  0.00    +0.000 C 
ATOM      9  C   UNL     1       6.546   4.665  16.297  0.00  0.00    +0.000 C 
ATOM     10  C   UNL     1       5.973   6.074  16.235  0.00  0.00    +0.000 C 
ENDROOT
BRANCH   5  11
ATOM     11  N   UNL     1       1.844   4.184  18.432  0.00  0.00    +0.000 N 
ATOM     12  C   UNL     1       2.023   3.530  19.621  0.00  0.00    +0.000 C 
ATOM     13  N   UNL     1       3.103   3.453  20.348  0.00  0.00    +0.000 NA
ATOM     14  C   UNL     1       2.684   2.686  21.549  0.00  0.00    +0.000 C 
ATOM     15  C   UNL     1       1.155   2.729  21.539  0.00  0.00    +0.000 C 
ATOM     16  N   UNL     1       0.893   2.951  20.127  0.00  0.00    +0.000 N 
ATOM     17  H   UNL     1       1.545   3.569  17.688  0.00  0.00    +0.000 HD
ATOM     18  H   UNL     1       0.051   3.483  19.932  0.00  0.00    +0.000 HD
ENDBRANCH   5  11
TORSDOF 1
ENDMDL
MODEL 6
REMARK VINA RESULT:      -6.8      2.392      4.983
REMARK  Name = 
REMARK  1 active torsions:
REMARK  status: ('A' for Active; 'I' for Inactive)
REMARK    1  A    between atoms: C_5  and  N_6
REMARK                            x       y       z     vdW  Elec       q    Type
REMARK                         _______ _______ _______ _____ _____    ______ ____
ROOT
ATOM      1  C   UNL     1       0.910   3.062  19.245  0.00  0.00    +0.000 A 
ATOM      2  C   UNL     1       1.907   2.737  18.340  0.00  0.00    +0.000 A 
ATOM      3  C   UNL     1       3.079   3.508  18.271  0.00  0.00    +0.000 A 
ATOM      4  C   UNL     1       3.261   4.612  19.143  0.00  0.00    +0.000 A 
ATOM      5  C   UNL     1       2.201   4.998  19.999  0.00  0.00    +0.000 A 
ATOM      6  C   UNL     1       1.060   4.176  20.060  0.00  0.00    +0.000 A 
ATOM      7  C   UNL     1       4.563   5.390  19.109  0.00  0.00    +0.000 C 
ATOM      8  C   UNL     1       5.683   4.719  18.308  0.00  0.00    +0.000 C 
ATOM      9  C   UNL     1       5.150   4.179  16.991  0.00  0.00    +0.000 C 
ATOM     10  C   UNL     1       4.126   3.087  17.269  0.00  0.00    +0.000 C 
ENDROOT
BRANCH   5  11
ATOM     11  N   UNL     1       2.282   6.128  20.847  0.00  0.00    +0.000 N 
ATOM     12  C   UNL     1       1.911   7.386  20.454  0.00  0.00    +0.000 C 
ATOM     13  N   UNL     1       1.831   7.865  19.244  0.00  0.00    +0.000 NA
ATOM     14  C   UNL     1       1.309   9.243  19.428  0.00  0.00    +0.000 C 
ATOM     15  C   UNL     1       0.748   9.273  20.850  0.00  0.00    +0.000 C 
ATOM     16  N   UNL     1       1.511   8.204  21.472  0.00  0.00    +0.000 N 
ATOM     17  H   UNL     1       3.078   6.131  21.469  0.00  0.00    +0.000 HD
ATOM     18  H   UNL     1       1.021   7.710  22.212  0.00  0.00    +0.000 HD
ENDBRANCH   5  11
TORSDOF 1
ENDMDL
MODEL 7
REMARK VINA RESULT:      -6.8      1.778      3.203
REMARK  Name = 
REMARK  1 active torsions:
REMARK  status: ('A' for Active; 'I' for Inactive)
REMARK    1  A    between atoms: C_5  and  N_6
REMARK                            x       y       z     vdW  Elec       q    Type
REMARK                         _______ _______ _______ _____ _____    ______ ____
ROOT
ATOM      1  C   UNL     1       3.456   2.632  20.351  0.00  0.00    +0.000 A 
ATOM      2  C   UNL     1       2.558   3.682  20.435  0.00  0.00    +0.000 A 
ATOM      3  C   UNL     1       2.821   4.894  19.776  0.00  0.00    +0.000 A 
ATOM      4  C   UNL     1       3.998   5.044  18.999  0.00  0.00    +0.000 A 
ATOM      5  C   UNL     1       4.959   4.004  18.992  0.00  0.00    +0.000 A 
ATOM      6  C   UNL     1       4.637   2.795  19.638  0.00  0.00    +0.000 A 
ATOM      7  C   UNL     1       4.233   6.332  18.232  0.00  0.00    +0.000 C 
ATOM      8  C   UNL     1       3.014   7.255  18.153  0.00  0.00    +0.000 C 
ATOM      9  C   UNL     1       2.330   7.357  19.506  0.00  0.00    +0.000 C 
ATOM     10  C   UNL     1       1.791   5.990  19.904  0.00  0.00    +0.000 C 
ENDROOT
BRANCH   5  11
ATOM     11  N   UNL     1       6.187   4.107  18.298  0.00  0.00    +0.000 N 
ATOM     12  C   UNL     1       6.277   4.093  16.932  0.00  0.00    +0.000 C 
ATOM     13  N   UNL     1       5.431   3.601  16.070  0.00  0.00    +0.000 NA
ATOM     14  C   UNL     1       6.015   3.939  14.748  0.00  0.00    +0.000 C 
ATOM     15  C   UNL     1       7.059   5.019  15.033  0.00  0.00    +0.000 C 
ATOM     16  N   UNL     1       7.367   4.745  16.427  0.00  0.00    +0.000 N 
ATOM     17  H   UNL     1       6.964   3.643  18.746  0.00  0.00    +0.000 HD
ATOM     18  H   UNL     1       7.630   5.561  16.971  0.00  0.00    +0.000 HD
ENDBRANCH   5  11
TORSDOF 1
ENDMDL
MODEL 8
REMARK VINA RESULT:      -6.8      2.206      5.168
REMARK  Name = 
REMARK  1 active torsions:
REMARK  status: ('A' for Active; 'I' for Inactive)
REMARK    1  A    between atoms: C_5  and  N_6
REMARK                            x       y       z     vdW  Elec       q    Type
REMARK                         _______ _______ _______ _____ _____    ______ ____
ROOT
ATOM      1  C   UNL     1       1.798   3.295  18.080  0.00  0.00    +0.000 A 
ATOM      2  C   UNL     1       2.781   3.269  17.105  0.00  0.00    +0.000 A 
ATOM      3  C   UNL     1       3.811   4.224  17.112  0.00  0.00    +0.000 A 
ATOM      4  C   UNL     1       3.866   5.208  18.132  0.00  0.00    +0.000 A 
ATOM      5  C   UNL     1       2.810   5.290  19.071  0.00  0.00    +0.000 A 
ATOM      6  C   UNL     1       1.818   4.292  19.047  0.00  0.00    +0.000 A 
ATOM      7  C   UNL     1       5.025   6.187  18.170  0.00  0.00    +0.000 C 
ATOM      8  C   UNL     1       6.190   5.828  17.242  0.00  0.00    +0.000 C 
ATOM      9  C   UNL     1       5.675   5.399  15.878  0.00  0.00    +0.000 C 
ATOM     10  C   UNL     1       4.853   4.126  16.024  0.00  0.00    +0.000 C 
ENDROOT
BRANCH   5  11
ATOM     11  N   UNL     1       2.760   6.286  20.074  0.00  0.00    +0.000 N 
ATOM     12  C   UNL     1       2.169   7.507  19.887  0.00  0.00    +0.000 C 
ATOM     13  N   UNL     1       1.940   8.132  18.766  0.00  0.00    +0.000 NA
ATOM     14  C   UNL     1       1.217   9.363  19.172  0.00  0.00    +0.000 C 
ATOM     15  C   UNL     1       0.745   9.098  20.602  0.00  0.00    +0.000 C 
ATOM     16  N   UNL     1       1.705   8.096  21.030  0.00  0.00    +0.000 N 
ATOM     17  H   UNL     1       3.581   6.335  20.661  0.00  0.00    +0.000 HD
ATOM     18  H   UNL     1       1.347   7.427  21.705  0.00  0.00    +0.000 HD
ENDBRANCH   5  11
TORSDOF 1
ENDMDL
MODEL 9
REMARK VINA RESULT:      -6.8      2.443      4.747
REMARK  Name = 
REMARK  1 active torsions:
REMARK  status: ('A' for Active; 'I' for Inactive)
REMARK    1  A    between atoms: C_5  and  N_6
REMARK                            x       y       z     vdW  Elec       q    Type
REMARK                         _______ _______ _______ _____ _____    ______ ____
ROOT
ATOM      1  C   UNL     1       4.238   5.665  17.152  0.00  0.00    +0.000 A 
ATOM      2  C   UNL     1       3.754   4.371  17.049  0.00  0.00    +0.000 A 
ATOM      3  C   UNL     1       2.837   3.881  17.991  0.00  0.00    +0.000 A 
ATOM      4  C   UNL     1       2.379   4.714  19.044  0.00  0.00    +0.000 A 
ATOM      5  C   UNL     1       2.946   6.002  19.203  0.00  0.00    +0.000 A 
ATOM      6  C   UNL     1       3.836   6.464  18.214  0.00  0.00    +0.000 A 
ATOM      7  C   UNL     1       1.331   4.196  20.012  0.00  0.00    +0.000 C 
ATOM      8  C   UNL     1       0.656   2.892  19.578  0.00  0.00    +0.000 C 
ATOM      9  C   UNL     1       1.687   1.902  19.060  0.00  0.00    +0.000 C 
ATOM     10  C   UNL     1       2.345   2.465  17.808  0.00  0.00    +0.000 C 
ENDROOT
BRANCH   5  11
ATOM     11  N   UNL     1       2.591   6.864  20.266  0.00  0.00    +0.000 N 
ATOM     12  C   UNL     1       1.849   8.001  20.092  0.00  0.00    +0.000 C 
ATOM     13  N   UNL     1       1.691   8.706  19.007  0.00  0.00    +0.000 NA
ATOM     14  C   UNL     1       0.729   9.769  19.395  0.00  0.00    +0.000 C 
ATOM     15  C   UNL     1       0.100   9.283  20.701  0.00  0.00    +0.000 C 
ATOM     16  N   UNL     1       1.134   8.388  21.191  0.00  0.00    +0.000 N 
ATOM     17  H   UNL     1       3.299   6.965  20.980  0.00  0.00    +0.000 HD
ATOM     18  H   UNL     1       0.791   7.604  21.739  0.00  0.00    +0.000 HD
ENDBRANCH   5  11
TORSDOF 1
ENDMDL
