MODEL 1
REMARK VINA RESULT:      -9.0      0.000      0.000
REMARK  Name = 
REMARK  7 active torsions:
REMARK  status: ('A' for Active; 'I' for Inactive)
REMARK    1  A    between atoms: C_2  and  C_3
REMARK    2  A    between atoms: C_5  and  N_6
REMARK    3  A    between atoms: C_11  and  O_12
REMARK    4  A    between atoms: O_12  and  C_13
REMARK    5  A    between atoms: C_17  and  C_18
REMARK    6  A    between atoms: N_19  and  N_20
REMARK    7  A    between atoms: C_21  and  C_23
REMARK                            x       y       z     vdW  Elec       q    Type
REMARK                         _______ _______ _______ _____ _____    ______ ____
ROOT
ATOM      1  C   UNL     1       4.783   4.462  18.068  0.00  0.00    +0.000 A 
ATOM      2  C   UNL     1       4.968   3.975  16.770  0.00  0.00    +0.000 A 
ATOM      3  C   UNL     1       6.126   4.292  16.056  0.00  0.00    +0.000 A 
ATOM      4  C   UNL     1       7.096   5.119  16.627  0.00  0.00    +0.000 A 
ATOM      5  C   UNL     1       6.926   5.567  17.939  0.00  0.00    +0.000 A 
ATOM      6  C   UNL     1       5.805   5.179  18.684  0.00  0.00    +0.000 A 
ENDROOT
BRANCH   5   7
ATOM      7  C   UNL     1       7.873   6.546  18.515  0.00  0.00    +0.000 C 
ATOM      8  N   UNL     1       7.836   7.777  18.124  0.00  0.00    +0.000 NA
BRANCH   8   9
ATOM      9  N   UNL     1       8.756   8.640  18.628  0.00  0.00    +0.000 N 
ATOM     10  C   UNL     1       8.686   9.964  18.220  0.00  0.00    +0.000 C 
ATOM     11  O   UNL     1       7.828  10.420  17.470  0.00  0.00    +0.000 OA
ATOM     12  H   UNL     1       9.437   8.311  19.301  0.00  0.00    +0.000 HD
BRANCH  10  13
ATOM     13  C   UNL     1       9.714  10.893  18.759  0.00  0.00    +0.000 A 
ATOM     14  C   UNL     1       9.842  10.976  20.155  0.00  0.00    +0.000 A 
ATOM     15  C   UNL     1      10.746  11.868  20.732  0.00  0.00    +0.000 A 
ATOM     16  C   UNL     1      11.522  12.689  19.916  0.00  0.00    +0.000 A 
ATOM     17  C   UNL     1      11.388  12.612  18.528  0.00  0.00    +0.000 A 
ATOM     18 CL   UNL     1      12.333  13.648  17.529  0.00  0.00    +0.000 Cl
ATOM     19  C   UNL     1      10.489  11.719  17.940  0.00  0.00    +0.000 A 
ENDBRANCH  10  13
ENDBRANCH   8   9
ENDBRANCH   5   7
BRANCH   1  20
ATOM     20  O   UNL     1       3.566   4.183  18.643  0.00  0.00    +0.000 OA
BRANCH  20  26
ATOM     21  C   UNL     1       2.175   5.025  20.539  0.00  0.00    +0.000 A 
ATOM     22  C   UNL     1       1.512   6.140  21.087  0.00  0.00    +0.000 A 
ATOM     23  C   UNL     1       1.587   7.387  20.453  0.00  0.00    +0.000 A 
ATOM     24  C   UNL     1       2.311   7.535  19.267  0.00  0.00    +0.000 A 
ATOM     25  C   UNL     1       2.931   6.419  18.700  0.00  0.00    +0.000 A 
ATOM     26  C   UNL     1       2.850   5.156  19.310  0.00  0.00    +0.000 A 
BRANCH  23  27
ATOM     27  N   UNL     1       0.936   8.555  21.064  0.00  0.00    +0.000 N 
ATOM     28  O   UNL     1       1.454   9.035  22.082  0.00  0.00    +0.000 OA
ATOM     29  O   UNL     1      -0.081   8.999  20.512  0.00  0.00    +0.000 OA
ENDBRANCH  23  27
BRANCH  21  31
ATOM     30  N   UNL     1       2.192   2.841  21.947  0.00  0.00    +0.000 NA
ATOM     31  C   UNL     1       2.162   3.816  21.316  0.00  0.00    +0.000 C 
ENDBRANCH  21  31
ENDBRANCH  20  26
ENDBRANCH   1  20
TORSDOF 7
ENDMDL
MODEL 2
REMARK VINA RESULT:      -8.7      4.423      7.367
REMARK  Name = 
REMARK  7 active torsions:
REMARK  status: ('A' for Active; 'I' for Inactive)
REMARK    1  A    between atoms: C_2  and  C_3
REMARK    2  A    between atoms: C_5  and  N_6
REMARK    3  A    between atoms: C_11  and  O_12
REMARK    4  A    between atoms: O_12  and  C_13
REMARK    5  A    between atoms: C_17  and  C_18
REMARK    6  A    between atoms: N_19  and  N_20
REMARK    7  A    between atoms: C_21  and  C_23
REMARK                            x       y       z     vdW  Elec       q    Type
REMARK                         _______ _______ _______ _____ _____    ______ ____
ROOT
ATOM      1  C   UNL     1       3.691   3.987  19.743  0.00  0.00    +0.000 A 
ATOM      2  C   UNL     1       2.826   2.996  20.218  0.00  0.00    +0.000 A 
ATOM      3  C   UNL     1       1.560   3.335  20.700  0.00  0.00    +0.000 A 
ATOM      4  C   UNL     1       1.159   4.673  20.731  0.00  0.00    +0.000 A 
ATOM      5  C   UNL     1       2.010   5.654  20.217  0.00  0.00    +0.000 A 
ATOM      6  C   UNL     1       3.244   5.302  19.656  0.00  0.00    +0.000 A 
ENDROOT
BRANCH   5   7
ATOM      7  C   UNL     1       1.661   7.084  20.358  0.00  0.00    +0.000 C 
ATOM      8  N   UNL     1       1.868   7.892  19.371  0.00  0.00    +0.000 NA
BRANCH   8   9
ATOM      9  N   UNL     1       1.591   9.210  19.550  0.00  0.00    +0.000 N 
ATOM     10  C   UNL     1       1.740  10.052  18.458  0.00  0.00    +0.000 C 
ATOM     11  O   UNL     1       2.061   9.685  17.331  0.00  0.00    +0.000 OA
ATOM     12  H   UNL     1       1.259   9.536  20.450  0.00  0.00    +0.000 HD
BRANCH  10  13
ATOM     13  C   UNL     1       1.459  11.496  18.673  0.00  0.00    +0.000 A 
ATOM     14  C   UNL     1       0.233  11.835  19.268  0.00  0.00    +0.000 A 
ATOM     15  C   UNL     1      -0.121  13.172  19.449  0.00  0.00    +0.000 A 
ATOM     16  C   UNL     1       0.746  14.178  19.028  0.00  0.00    +0.000 A 
ATOM     17  C   UNL     1       1.961  13.842  18.430  0.00  0.00    +0.000 A 
ATOM     18 CL   UNL     1       3.014  15.092  17.891  0.00  0.00    +0.000 Cl
ATOM     19  C   UNL     1       2.328  12.506  18.248  0.00  0.00    +0.000 A 
ENDBRANCH  10  13
ENDBRANCH   8   9
ENDBRANCH   5   7
BRANCH   1  20
ATOM     20  O   UNL     1       4.951   3.564  19.393  0.00  0.00    +0.000 OA
BRANCH  20  26
ATOM     21  C   UNL     1       6.713   4.769  18.096  0.00  0.00    +0.000 A 
ATOM     22  C   UNL     1       7.196   5.087  16.812  0.00  0.00    +0.000 A 
ATOM     23  C   UNL     1       6.569   4.566  15.673  0.00  0.00    +0.000 A 
ATOM     24  C   UNL     1       5.451   3.736  15.798  0.00  0.00    +0.000 A 
ATOM     25  C   UNL     1       4.945   3.457  17.070  0.00  0.00    +0.000 A 
ATOM     26  C   UNL     1       5.549   3.987  18.223  0.00  0.00    +0.000 A 
BRANCH  23  27
ATOM     27  N   UNL     1       7.116   4.860  14.340  0.00  0.00    +0.000 N 
ATOM     28  O   UNL     1       8.065   5.653  14.271  0.00  0.00    +0.000 OA
ATOM     29  O   UNL     1       6.604   4.284  13.370  0.00  0.00    +0.000 OA
ENDBRANCH  23  27
BRANCH  21  31
ATOM     30  N   UNL     1       8.116   5.567  20.132  0.00  0.00    +0.000 NA
ATOM     31  C   UNL     1       7.488   5.232  19.214  0.00  0.00    +0.000 C 
ENDBRANCH  21  31
ENDBRANCH  20  26
ENDBRANCH   1  20
TORSDOF 7
ENDMDL
MODEL 3
REMARK VINA RESULT:      -8.7      4.916      8.549
REMARK  Name = 
REMARK  7 active torsions:
REMARK  status: ('A' for Active; 'I' for Inactive)
REMARK    1  A    between atoms: C_2  and  C_3
REMARK    2  A    between atoms: C_5  and  N_6
REMARK    3  A    between atoms: C_11  and  O_12
REMARK    4  A    between atoms: O_12  and  C_13
REMARK    5  A    between atoms: C_17  and  C_18
REMARK    6  A    between atoms: N_19  and  N_20
REMARK    7  A    between atoms: C_21  and  C_23
REMARK                            x       y       z     vdW  Elec       q    Type
REMARK                         _______ _______ _______ _____ _____    ______ ____
ROOT
ATOM      1  C   UNL     1       3.607   4.347  19.595  0.00  0.00    +0.000 A 
ATOM      2  C   UNL     1       2.650   3.461  20.098  0.00  0.00    +0.000 A 
ATOM      3  C   UNL     1       1.438   3.941  20.600  0.00  0.00    +0.000 A 
ATOM      4  C   UNL     1       1.185   5.314  20.624  0.00  0.00    +0.000 A 
ATOM      5  C   UNL     1       2.126   6.192  20.081  0.00  0.00    +0.000 A 
ATOM      6  C   UNL     1       3.304   5.703  19.501  0.00  0.00    +0.000 A 
ENDROOT
BRANCH   5   7
ATOM      7  C   UNL     1       1.938   7.653  20.212  0.00  0.00    +0.000 C 
ATOM      8  N   UNL     1       1.215   8.118  21.177  0.00  0.00    +0.000 NA
BRANCH   8   9
ATOM      9  N   UNL     1       1.013   9.460  21.239  0.00  0.00    +0.000 N 
ATOM     10  C   UNL     1      -0.071   9.914  21.978  0.00  0.00    +0.000 C 
ATOM     11  O   UNL     1      -0.833   9.192  22.614  0.00  0.00    +0.000 OA
ATOM     12  H   UNL     1       1.662  10.087  20.780  0.00  0.00    +0.000 HD
BRANCH  10  13
ATOM     13  C   UNL     1      -0.296  11.383  22.017  0.00  0.00    +0.000 A 
ATOM     14  C   UNL     1       0.424  12.172  21.106  0.00  0.00    +0.000 A 
ATOM     15  C   UNL     1       0.306  13.561  21.124  0.00  0.00    +0.000 A 
ATOM     16  C   UNL     1      -0.529  14.170  22.059  0.00  0.00    +0.000 A 
ATOM     17  C   UNL     1      -1.240  13.386  22.970  0.00  0.00    +0.000 A 
ATOM     18 CL   UNL     1      -2.249  14.149  24.136  0.00  0.00    +0.000 Cl
ATOM     19  C   UNL     1      -1.131  11.993  22.957  0.00  0.00    +0.000 A 
ENDBRANCH  10  13
ENDBRANCH   8   9
ENDBRANCH   5   7
BRANCH   1  20
ATOM     20  O   UNL     1       4.806   3.786  19.226  0.00  0.00    +0.000 OA
BRANCH  20  26
ATOM     21  C   UNL     1       6.662   4.781  17.881  0.00  0.00    +0.000 A 
ATOM     22  C   UNL     1       7.151   5.033  16.585  0.00  0.00    +0.000 A 
ATOM     23  C   UNL     1       6.448   4.572  15.464  0.00  0.00    +0.000 A 
ATOM     24  C   UNL     1       5.250   3.869  15.620  0.00  0.00    +0.000 A 
ATOM     25  C   UNL     1       4.742   3.659  16.905  0.00  0.00    +0.000 A 
ATOM     26  C   UNL     1       5.423   4.131  18.040  0.00  0.00    +0.000 A 
BRANCH  23  27
ATOM     27  N   UNL     1       6.996   4.793  14.118  0.00  0.00    +0.000 N 
ATOM     28  O   UNL     1       6.500   4.149  13.183  0.00  0.00    +0.000 OA
ATOM     29  O   UNL     1       7.909   5.623  13.999  0.00  0.00    +0.000 OA
ENDBRANCH  23  27
BRANCH  21  31
ATOM     30  N   UNL     1       8.219   5.465  19.845  0.00  0.00    +0.000 NA
ATOM     31  C   UNL     1       7.505   5.168  18.979  0.00  0.00    +0.000 C 
ENDBRANCH  21  31
ENDBRANCH  20  26
ENDBRANCH   1  20
TORSDOF 7
ENDMDL
MODEL 4
REMARK VINA RESULT:      -8.6      4.532      8.142
REMARK  Name = 
REMARK  7 active torsions:
REMARK  status: ('A' for Active; 'I' for Inactive)
REMARK    1  A    between atoms: C_2  and  C_3
REMARK    2  A    between atoms: C_5  and  N_6
REMARK    3  A    between atoms: C_11  and  O_12
REMARK    4  A    between atoms: O_12  and  C_13
REMARK    5  A    between atoms: C_17  and  C_18
REMARK    6  A    between atoms: N_19  and  N_20
REMARK    7  A    between atoms: C_21  and  C_23
REMARK                            x       y       z     vdW  Elec       q    Type
REMARK                         _______ _______ _______ _____ _____    ______ ____
ROOT
ATOM      1  C   UNL     1       3.712   3.802  19.555  0.00  0.00    +0.000 A 
ATOM      2  C   UNL     1       2.968   2.621  19.469  0.00  0.00    +0.000 A 
ATOM      3  C   UNL     1       1.608   2.618  19.789  0.00  0.00    +0.000 A 
ATOM      4  C   UNL     1       0.988   3.793  20.220  0.00  0.00    +0.000 A 
ATOM      5  C   UNL     1       1.725   4.978  20.264  0.00  0.00    +0.000 A 
ATOM      6  C   UNL     1       3.067   4.997  19.862  0.00  0.00    +0.000 A 
ENDROOT
BRANCH   5   7
ATOM      7  C   UNL     1       1.126   6.202  20.839  0.00  0.00    +0.000 C 
ATOM      8  N   UNL     1       1.830   7.283  20.914  0.00  0.00    +0.000 NA
BRANCH   8   9
ATOM      9  N   UNL     1       1.272   8.374  21.500  0.00  0.00    +0.000 N 
ATOM     10  C   UNL     1       0.918   9.435  20.677  0.00  0.00    +0.000 C 
ATOM     11  O   UNL     1       1.033   9.439  19.455  0.00  0.00    +0.000 OA
ATOM     12  H   UNL     1       1.101   8.377  22.498  0.00  0.00    +0.000 HD
BRANCH  10  13
ATOM     13  C   UNL     1       0.332  10.633  21.333  0.00  0.00    +0.000 A 
ATOM     14  C   UNL     1      -0.548  10.419  22.407  0.00  0.00    +0.000 A 
ATOM     15  C   UNL     1      -1.178  11.494  23.032  0.00  0.00    +0.000 A 
ATOM     16  C   UNL     1      -0.938  12.791  22.582  0.00  0.00    +0.000 A 
ATOM     17  C   UNL     1      -0.070  13.004  21.510  0.00  0.00    +0.000 A 
ATOM     18 CL   UNL     1       0.200  14.607  20.946  0.00  0.00    +0.000 Cl
ATOM     19  C   UNL     1       0.569  11.934  20.879  0.00  0.00    +0.000 A 
ENDBRANCH  10  13
ENDBRANCH   8   9
ENDBRANCH   5   7
BRANCH   1  20
ATOM     20  O   UNL     1       5.061   3.677  19.325  0.00  0.00    +0.000 OA
BRANCH  20  26
ATOM     21  C   UNL     1       6.808   4.769  17.912  0.00  0.00    +0.000 A 
ATOM     22  C   UNL     1       7.240   5.036  16.599  0.00  0.00    +0.000 A 
ATOM     23  C   UNL     1       6.532   4.521  15.505  0.00  0.00    +0.000 A 
ATOM     24  C   UNL     1       5.385   3.747  15.706  0.00  0.00    +0.000 A 
ATOM     25  C   UNL     1       4.932   3.520  17.008  0.00  0.00    +0.000 A 
ATOM     26  C   UNL     1       5.617   4.046  18.116  0.00  0.00    +0.000 A 
BRANCH  23  27
ATOM     27  N   UNL     1       7.023   4.760  14.140  0.00  0.00    +0.000 N 
ATOM     28  O   UNL     1       6.518   4.097  13.223  0.00  0.00    +0.000 OA
ATOM     29  O   UNL     1       7.900   5.622  13.988  0.00  0.00    +0.000 OA
ENDBRANCH  23  27
BRANCH  21  31
ATOM     30  N   UNL     1       8.367   5.607  19.814  0.00  0.00    +0.000 NA
ATOM     31  C   UNL     1       7.660   5.219  18.979  0.00  0.00    +0.000 C 
ENDBRANCH  21  31
ENDBRANCH  20  26
ENDBRANCH   1  20
TORSDOF 7
ENDMDL
MODEL 5
REMARK VINA RESULT:      -8.6      4.832      7.821
REMARK  Name = 
REMARK  7 active torsions:
REMARK  status: ('A' for Active; 'I' for Inactive)
REMARK    1  A    between atoms: C_2  and  C_3
REMARK    2  A    between atoms: C_5  and  N_6
REMARK    3  A    between atoms: C_11  and  O_12
REMARK    4  A    between atoms: O_12  and  C_13
REMARK    5  A    between atoms: C_17  and  C_18
REMARK    6  A    between atoms: N_19  and  N_20
REMARK    7  A    between atoms: C_21  and  C_23
REMARK                            x       y       z     vdW  Elec       q    Type
REMARK                         _______ _______ _______ _____ _____    ______ ____
ROOT
ATOM      1  C   UNL     1       3.798   3.940  19.763  0.00  0.00    +0.000 A 
ATOM      2  C   UNL     1       3.030   2.878  20.250  0.00  0.00    +0.000 A 
ATOM      3  C   UNL     1       1.732   3.099  20.718  0.00  0.00    +0.000 A 
ATOM      4  C   UNL     1       1.203   4.391  20.724  0.00  0.00    +0.000 A 
ATOM      5  C   UNL     1       1.957   5.442  20.197  0.00  0.00    +0.000 A 
ATOM      6  C   UNL     1       3.225   5.204  19.650  0.00  0.00    +0.000 A 
ENDROOT
BRANCH   5   7
ATOM      7  C   UNL     1       1.470   6.834  20.312  0.00  0.00    +0.000 C 
ATOM      8  N   UNL     1       1.984   7.754  19.565  0.00  0.00    +0.000 NA
BRANCH   8   9
ATOM      9  N   UNL     1       1.557   9.032  19.732  0.00  0.00    +0.000 N 
ATOM     10  C   UNL     1       1.500   9.844  18.608  0.00  0.00    +0.000 C 
ATOM     11  O   UNL     1       1.767   9.477  17.467  0.00  0.00    +0.000 OA
ATOM     12  H   UNL     1       1.266   9.348  20.649  0.00  0.00    +0.000 HD
BRANCH  10  13
ATOM     13  C   UNL     1       1.056  11.248  18.809  0.00  0.00    +0.000 A 
ATOM     14  C   UNL     1       1.981  12.267  18.531  0.00  0.00    +0.000 A 
ATOM     15  C   UNL     1       1.652  13.604  18.750  0.00  0.00    +0.000 A 
ATOM     16  C   UNL     1       0.396  13.930  19.258  0.00  0.00    +0.000 A 
ATOM     17  C   UNL     1      -0.522  12.917  19.543  0.00  0.00    +0.000 A 
ATOM     18 CL   UNL     1      -2.061  13.329  20.192  0.00  0.00    +0.000 Cl
ATOM     19  C   UNL     1      -0.203  11.575  19.322  0.00  0.00    +0.000 A 
ENDBRANCH  10  13
ENDBRANCH   8   9
ENDBRANCH   5   7
BRANCH   1  20
ATOM     20  O   UNL     1       5.095   3.636  19.429  0.00  0.00    +0.000 OA
BRANCH  20  26
ATOM     21  C   UNL     1       6.803   4.759  17.993  0.00  0.00    +0.000 A 
ATOM     22  C   UNL     1       7.212   5.034  16.674  0.00  0.00    +0.000 A 
ATOM     23  C   UNL     1       6.498   4.507  15.589  0.00  0.00    +0.000 A 
ATOM     24  C   UNL     1       5.368   3.713  15.805  0.00  0.00    +0.000 A 
ATOM     25  C   UNL     1       4.937   3.478  17.114  0.00  0.00    +0.000 A 
ATOM     26  C   UNL     1       5.628   4.015  18.213  0.00  0.00    +0.000 A 
BRANCH  23  27
ATOM     27  N   UNL     1       6.966   4.755  14.218  0.00  0.00    +0.000 N 
ATOM     28  O   UNL     1       6.433   4.111  13.304  0.00  0.00    +0.000 OA
ATOM     29  O   UNL     1       7.853   5.606  14.059  0.00  0.00    +0.000 OA
ENDBRANCH  23  27
BRANCH  21  31
ATOM     30  N   UNL     1       8.358   5.559  19.914  0.00  0.00    +0.000 NA
ATOM     31  C   UNL     1       7.662   5.223  19.048  0.00  0.00    +0.000 C 
ENDBRANCH  21  31
ENDBRANCH  20  26
ENDBRANCH   1  20
TORSDOF 7
ENDMDL
MODEL 6
REMARK VINA RESULT:      -8.5      5.667      7.155
REMARK  Name = 
REMARK  7 active torsions:
REMARK  status: ('A' for Active; 'I' for Inactive)
REMARK    1  A    between atoms: C_2  and  C_3
REMARK    2  A    between atoms: C_5  and  N_6
REMARK    3  A    between atoms: C_11  and  O_12
REMARK    4  A    between atoms: O_12  and  C_13
REMARK    5  A    between atoms: C_17  and  C_18
REMARK    6  A    between atoms: N_19  and  N_20
REMARK    7  A    between atoms: C_21  and  C_23
REMARK                            x       y       z     vdW  Elec       q    Type
REMARK                         _______ _______ _______ _____ _____    ______ ____
ROOT
ATOM      1  C   UNL     1       2.113   6.646  20.247  0.00  0.00    +0.000 A 
ATOM      2  C   UNL     1       1.214   5.811  20.917  0.00  0.00    +0.000 A 
ATOM      3  C   UNL     1       1.051   4.483  20.516  0.00  0.00    +0.000 A 
ATOM      4  C   UNL     1       1.769   3.989  19.425  0.00  0.00    +0.000 A 
ATOM      5  C   UNL     1       2.697   4.814  18.786  0.00  0.00    +0.000 A 
ATOM      6  C   UNL     1       2.922   6.119  19.244  0.00  0.00    +0.000 A 
ENDROOT
BRANCH   5   7
ATOM      7  C   UNL     1       3.371   4.355  17.553  0.00  0.00    +0.000 C 
ATOM      8  N   UNL     1       4.660   4.405  17.474  0.00  0.00    +0.000 NA
BRANCH   8   9
ATOM      9  N   UNL     1       5.248   4.029  16.308  0.00  0.00    +0.000 N 
ATOM     10  C   UNL     1       5.620   5.032  15.424  0.00  0.00    +0.000 C 
ATOM     11  O   UNL     1       5.496   6.235  15.639  0.00  0.00    +0.000 OA
ATOM     12  H   UNL     1       5.426   3.049  16.128  0.00  0.00    +0.000 HD
BRANCH  10  13
ATOM     13  C   UNL     1       6.239   4.607  14.141  0.00  0.00    +0.000 A 
ATOM     14  C   UNL     1       7.299   5.384  13.645  0.00  0.00    +0.000 A 
ATOM     15  C   UNL     1       7.890   5.077  12.420  0.00  0.00    +0.000 A 
ATOM     16  C   UNL     1       7.418   3.996  11.678  0.00  0.00    +0.000 A 
ATOM     17  C   UNL     1       6.358   3.229  12.166  0.00  0.00    +0.000 A 
ATOM     18 CL   UNL     1       5.767   1.911  11.231  0.00  0.00    +0.000 Cl
ATOM     19  C   UNL     1       5.763   3.525  13.395  0.00  0.00    +0.000 A 
ENDBRANCH  10  13
ENDBRANCH   8   9
ENDBRANCH   5   7
BRANCH   1  20
ATOM     20  O   UNL     1       2.122   7.961  20.649  0.00  0.00    +0.000 OA
BRANCH  20  26
ATOM     21  C   UNL     1       0.334   9.688  20.902  0.00  0.00    +0.000 A 
ATOM     22  C   UNL     1      -0.527  10.575  20.229  0.00  0.00    +0.000 A 
ATOM     23  C   UNL     1      -0.468  10.693  18.834  0.00  0.00    +0.000 A 
ATOM     24  C   UNL     1       0.437   9.924  18.096  0.00  0.00    +0.000 A 
ATOM     25  C   UNL     1       1.261   9.012  18.761  0.00  0.00    +0.000 A 
ATOM     26  C   UNL     1       1.201   8.865  20.158  0.00  0.00    +0.000 A 
BRANCH  23  27
ATOM     27  N   UNL     1      -1.334  11.662  18.146  0.00  0.00    +0.000 N 
ATOM     28  O   UNL     1      -0.933  12.831  18.060  0.00  0.00    +0.000 OA
ATOM     29  O   UNL     1      -2.404  11.245  17.680  0.00  0.00    +0.000 OA
ENDBRANCH  23  27
BRANCH  21  31
ATOM     30  N   UNL     1       0.242   9.752  23.498  0.00  0.00    +0.000 NA
ATOM     31  C   UNL     1       0.306   9.721  22.339  0.00  0.00    +0.000 C 
ENDBRANCH  21  31
ENDBRANCH  20  26
ENDBRANCH   1  20
TORSDOF 7
ENDMDL
MODEL 7
REMARK VINA RESULT:      -8.5      4.471      7.828
REMARK  Name = 
REMARK  7 active torsions:
REMARK  status: ('A' for Active; 'I' for Inactive)
REMARK    1  A    between atoms: C_2  and  C_3
REMARK    2  A    between atoms: C_5  and  N_6
REMARK    3  A    between atoms: C_11  and  O_12
REMARK    4  A    between atoms: O_12  and  C_13
REMARK    5  A    between atoms: C_17  and  C_18
REMARK    6  A    between atoms: N_19  and  N_20
REMARK    7  A    between atoms: C_21  and  C_23
REMARK                            x       y       z     vdW  Elec       q    Type
REMARK                         _______ _______ _______ _____ _____    ______ ____
ROOT
ATOM      1  C   UNL     1       3.772   3.928  19.743  0.00  0.00    +0.000 A 
ATOM      2  C   UNL     1       2.985   2.812  20.043  0.00  0.00    +0.000 A 
ATOM      3  C   UNL     1       1.667   2.972  20.480  0.00  0.00    +0.000 A 
ATOM      4  C   UNL     1       1.137   4.253  20.643  0.00  0.00    +0.000 A 
ATOM      5  C   UNL     1       1.912   5.364  20.302  0.00  0.00    +0.000 A 
ATOM      6  C   UNL     1       3.203   5.198  19.783  0.00  0.00    +0.000 A 
ENDROOT
BRANCH   5   7
ATOM      7  C   UNL     1       1.418   6.728  20.588  0.00  0.00    +0.000 C 
ATOM      8  N   UNL     1       1.809   7.716  19.852  0.00  0.00    +0.000 NA
BRANCH   8   9
ATOM      9  N   UNL     1       1.384   8.965  20.174  0.00  0.00    +0.000 N 
ATOM     10  C   UNL     1       0.975   9.792  19.138  0.00  0.00    +0.000 C 
ATOM     11  O   UNL     1       0.929   9.461  17.956  0.00  0.00    +0.000 OA
ATOM     12  H   UNL     1       1.346   9.248  21.146  0.00  0.00    +0.000 HD
BRANCH  10  13
ATOM     13  C   UNL     1       0.537  11.166  19.501  0.00  0.00    +0.000 A 
ATOM     14  C   UNL     1      -0.676  11.622  18.960  0.00  0.00    +0.000 A 
ATOM     15  C   UNL     1      -1.121  12.919  19.212  0.00  0.00    +0.000 A 
ATOM     16  C   UNL     1      -0.350  13.772  20.001  0.00  0.00    +0.000 A 
ATOM     17  C   UNL     1       0.860  13.321  20.532  0.00  0.00    +0.000 A 
ATOM     18 CL   UNL     1       1.815  14.389  21.484  0.00  0.00    +0.000 Cl
ATOM     19  C   UNL     1       1.312  12.022  20.289  0.00  0.00    +0.000 A 
ENDBRANCH  10  13
ENDBRANCH   8   9
ENDBRANCH   5   7
BRANCH   1  20
ATOM     20  O   UNL     1       5.083   3.667  19.426  0.00  0.00    +0.000 OA
BRANCH  20  26
ATOM     21  C   UNL     1       6.791   4.788  17.989  0.00  0.00    +0.000 A 
ATOM     22  C   UNL     1       7.198   5.063  16.669  0.00  0.00    +0.000 A 
ATOM     23  C   UNL     1       6.480   4.540  15.586  0.00  0.00    +0.000 A 
ATOM     24  C   UNL     1       5.348   3.749  15.803  0.00  0.00    +0.000 A 
ATOM     25  C   UNL     1       4.919   3.513  17.112  0.00  0.00    +0.000 A 
ATOM     26  C   UNL     1       5.614   4.047  18.210  0.00  0.00    +0.000 A 
BRANCH  23  27
ATOM     27  N   UNL     1       6.945   4.789  14.214  0.00  0.00    +0.000 N 
ATOM     28  O   UNL     1       7.865   5.604  14.058  0.00  0.00    +0.000 OA
ATOM     29  O   UNL     1       6.400   4.155  13.298  0.00  0.00    +0.000 OA
ENDBRANCH  23  27
BRANCH  21  31
ATOM     30  N   UNL     1       8.322   5.606  19.921  0.00  0.00    +0.000 NA
ATOM     31  C   UNL     1       7.654   5.248  19.043  0.00  0.00    +0.000 C 
ENDBRANCH  21  31
ENDBRANCH  20  26
ENDBRANCH   1  20
TORSDOF 7
ENDMDL
MODEL 8
REMARK VINA RESULT:      -8.4      4.463      8.701
REMARK  Name = 
REMARK  7 active torsions:
REMARK  status: ('A' for Active; 'I' for Inactive)
REMARK    1  A    between atoms: C_2  and  C_3
REMARK    2  A    between atoms: C_5  and  N_6
REMARK    3  A    between atoms: C_11  and  O_12
REMARK    4  A    between atoms: O_12  and  C_13
REMARK    5  A    between atoms: C_17  and  C_18
REMARK    6  A    between atoms: N_19  and  N_20
REMARK    7  A    between atoms: C_21  and  C_23
REMARK                            x       y       z     vdW  Elec       q    Type
REMARK                         _______ _______ _______ _____ _____    ______ ____
ROOT
ATOM      1  C   UNL     1       4.215   4.503  19.375  0.00  0.00    +0.000 A 
ATOM      2  C   UNL     1       3.492   3.498  20.023  0.00  0.00    +0.000 A 
ATOM      3  C   UNL     1       2.237   3.772  20.572  0.00  0.00    +0.000 A 
ATOM      4  C   UNL     1       1.708   5.062  20.497  0.00  0.00    +0.000 A 
ATOM      5  C   UNL     1       2.415   6.052  19.812  0.00  0.00    +0.000 A 
ATOM      6  C   UNL     1       3.634   5.754  19.189  0.00  0.00    +0.000 A 
ENDROOT
BRANCH   5   7
ATOM      7  C   UNL     1       1.937   7.452  19.832  0.00  0.00    +0.000 C 
ATOM      8  N   UNL     1       1.618   8.000  20.958  0.00  0.00    +0.000 NA
BRANCH   8   9
ATOM      9  N   UNL     1       1.128   9.267  20.939  0.00  0.00    +0.000 N 
ATOM     10  C   UNL     1      -0.135   9.476  21.476  0.00  0.00    +0.000 C 
ATOM     11  O   UNL     1      -0.822   8.606  22.004  0.00  0.00    +0.000 OA
ATOM     12  H   UNL     1       1.696  10.020  20.571  0.00  0.00    +0.000 HD
BRANCH  10  13
ATOM     13  C   UNL     1      -0.671  10.862  21.426  0.00  0.00    +0.000 A 
ATOM     14  C   UNL     1      -1.069  11.358  20.174  0.00  0.00    +0.000 A 
ATOM     15  C   UNL     1      -1.527  12.668  20.044  0.00  0.00    +0.000 A 
ATOM     16  C   UNL     1      -1.584  13.494  21.165  0.00  0.00    +0.000 A 
ATOM     17  C   UNL     1      -1.181  13.003  22.409  0.00  0.00    +0.000 A 
ATOM     18 CL   UNL     1      -1.231  14.038  23.783  0.00  0.00    +0.000 Cl
ATOM     19  C   UNL     1      -0.724  11.691  22.551  0.00  0.00    +0.000 A 
ENDBRANCH  10  13
ENDBRANCH   8   9
ENDBRANCH   5   7
BRANCH   1  20
ATOM     20  O   UNL     1       5.482   4.160  18.966  0.00  0.00    +0.000 OA
BRANCH  20  26
ATOM     21  C   UNL     1       6.885   5.367  17.288  0.00  0.00    +0.000 A 
ATOM     22  C   UNL     1       7.223   5.485  15.926  0.00  0.00    +0.000 A 
ATOM     23  C   UNL     1       6.654   4.621  14.981  0.00  0.00    +0.000 A 
ATOM     24  C   UNL     1       5.740   3.641  15.378  0.00  0.00    +0.000 A 
ATOM     25  C   UNL     1       5.372   3.554  16.723  0.00  0.00    +0.000 A 
ATOM     26  C   UNL     1       5.915   4.425  17.682  0.00  0.00    +0.000 A 
BRANCH  23  27
ATOM     27  N   UNL     1       7.056   4.718  13.570  0.00  0.00    +0.000 N 
ATOM     28  O   UNL     1       7.870   5.599  13.263  0.00  0.00    +0.000 OA
ATOM     29  O   UNL     1       6.568   3.900  12.777  0.00  0.00    +0.000 OA
ENDBRANCH  23  27
BRANCH  21  31
ATOM     30  N   UNL     1       8.223   6.875  18.927  0.00  0.00    +0.000 NA
ATOM     31  C   UNL     1       7.609   6.200  18.210  0.00  0.00    +0.000 C 
ENDBRANCH  21  31
ENDBRANCH  20  26
ENDBRANCH   1  20
TORSDOF 7
ENDMDL
MODEL 9
REMARK VINA RESULT:      -8.4      4.902      7.489
REMARK  Name = 
REMARK  7 active torsions:
REMARK  status: ('A' for Active; 'I' for Inactive)
REMARK    1  A    between atoms: C_2  and  C_3
REMARK    2  A    between atoms: C_5  and  N_6
REMARK    3  A    between atoms: C_11  and  O_12
REMARK    4  A    between atoms: O_12  and  C_13
REMARK    5  A    between atoms: C_17  and  C_18
REMARK    6  A    between atoms: N_19  and  N_20
REMARK    7  A    between atoms: C_21  and  C_23
REMARK                            x       y       z     vdW  Elec       q    Type
REMARK                         _______ _______ _______ _____ _____    ______ ____
ROOT
ATOM      1  C   UNL     1       3.959   4.171  19.804  0.00  0.00    +0.000 A 
ATOM      2  C   UNL     1       3.278   3.124  20.432  0.00  0.00    +0.000 A 
ATOM      3  C   UNL     1       2.022   3.341  21.003  0.00  0.00    +0.000 A 
ATOM      4  C   UNL     1       1.449   4.614  20.970  0.00  0.00    +0.000 A 
ATOM      5  C   UNL     1       2.114   5.646  20.304  0.00  0.00    +0.000 A 
ATOM      6  C   UNL     1       3.334   5.406  19.658  0.00  0.00    +0.000 A 
ENDROOT
BRANCH   5   7
ATOM      7  C   UNL     1       1.589   7.027  20.368  0.00  0.00    +0.000 C 
ATOM      8  N   UNL     1       1.931   7.882  19.462  0.00  0.00    +0.000 NA
BRANCH   8   9
ATOM      9  N   UNL     1       1.480   9.158  19.578  0.00  0.00    +0.000 N 
ATOM     10  C   UNL     1       1.574   9.978  18.462  0.00  0.00    +0.000 C 
ATOM     11  O   UNL     1       1.996   9.620  17.366  0.00  0.00    +0.000 OA
ATOM     12  H   UNL     1       1.065   9.466  20.448  0.00  0.00    +0.000 HD
BRANCH  10  13
ATOM     13  C   UNL     1       1.101  11.379  18.610  0.00  0.00    +0.000 A 
ATOM     14  C   UNL     1      -0.281  11.583  18.758  0.00  0.00    +0.000 A 
ATOM     15  C   UNL     1      -0.802  12.874  18.845  0.00  0.00    +0.000 A 
ATOM     16  C   UNL     1       0.056  13.970  18.776  0.00  0.00    +0.000 A 
ATOM     17  C   UNL     1       1.429  13.768  18.621  0.00  0.00    +0.000 A 
ATOM     18 CL   UNL     1       2.477  15.128  18.513  0.00  0.00    +0.000 Cl
ATOM     19  C   UNL     1       1.961  12.479  18.538  0.00  0.00    +0.000 A 
ENDBRANCH  10  13
ENDBRANCH   8   9
ENDBRANCH   5   7
BRANCH   1  20
ATOM     20  O   UNL     1       5.231   3.882  19.370  0.00  0.00    +0.000 OA
BRANCH  20  26
ATOM     21  C   UNL     1       4.775   3.786  16.916  0.00  0.00    +0.000 A 
ATOM     22  C   UNL     1       5.299   4.009  15.628  0.00  0.00    +0.000 A 
ATOM     23  C   UNL     1       6.588   4.536  15.472  0.00  0.00    +0.000 A 
ATOM     24  C   UNL     1       7.370   4.834  16.591  0.00  0.00    +0.000 A 
ATOM     25  C   UNL     1       6.867   4.571  17.868  0.00  0.00    +0.000 A 
ATOM     26  C   UNL     1       5.584   4.024  18.043  0.00  0.00    +0.000 A 
BRANCH  23  27
ATOM     27  N   UNL     1       7.103   4.815  14.124  0.00  0.00    +0.000 N 
ATOM     28  O   UNL     1       8.020   5.641  14.019  0.00  0.00    +0.000 OA
ATOM     29  O   UNL     1       6.599   4.195  13.177  0.00  0.00    +0.000 OA
ENDBRANCH  23  27
BRANCH  21  31
ATOM     30  N   UNL     1       2.284   3.054  17.022  0.00  0.00    +0.000 NA
ATOM     31  C   UNL     1       3.401   3.370  16.994  0.00  0.00    +0.000 C 
ENDBRANCH  21  31
ENDBRANCH  20  26
ENDBRANCH   1  20
TORSDOF 7
ENDMDL
