MODEL 1
REMARK VINA RESULT:      -7.5      0.000      0.000
REMARK  Name = 
REMARK  15 active torsions:
REMARK  status: ('A' for Active; 'I' for Inactive)
REMARK    1  A    between atoms: C_1  and  O_2
REMARK    2  A    between atoms: O_2  and  C_3
REMARK    3  A    between atoms: C_3  and  C_5
REMARK    4  A    between atoms: C_9  and  C_10
REMARK    5  A    between atoms: N_12  and  C_13
REMARK    6  A    between atoms: C_13  and  C_14
REMARK    7  A    between atoms: C_13  and  C_18
REMARK    8  A    between atoms: C_14  and  C_15
REMARK    9  A    between atoms: C_15  and  C_16
REMARK   10  A    between atoms: C_15  and  C_17
REMARK   11  A    between atoms: N_20  and  CA_21
REMARK   12  A    between atoms: CA_21  and  C_22
REMARK   13  A    between atoms: CA_21  and  CB_24
REMARK   14  A    between atoms: C_22  and  O_23
REMARK   15  A    between atoms: CB_24  and  CG_25
REMARK                            x       y       z     vdW  Elec       q    Type
REMARK                         _______ _______ _______ _____ _____    ______ ____
ROOT
ATOM      1  C   UNK A   1       3.413   4.869  19.418  0.00  0.00    +0.000 C 
ENDROOT
BRANCH   1   4
ATOM      2  C   UNK A   1       2.078   6.926  19.946  0.00  0.00    +0.000 C 
ATOM      3  O   UNK A   1       1.476   6.401  20.882  0.00  0.00    +0.000 OA
ATOM      4  N   UNK A   1       3.030   6.269  19.197  0.00  0.00    +0.000 N 
ATOM      5  H   UNK A   1       3.476   6.783  18.437  0.00  0.00    +0.000 HD
BRANCH   2  10
ATOM      6  C   UNK A   1       0.993  10.439  20.131  0.00  0.00    +0.000 A 
ATOM      7  C   UNK A   1       1.293  10.959  18.875  0.00  0.00    +0.000 A 
ATOM      8  C   UNK A   1       1.871  10.118  17.929  0.00  0.00    +0.000 A 
ATOM      9  C   UNK A   1       2.125   8.789  18.265  0.00  0.00    +0.000 A 
ATOM     10  C   UNK A   1       1.803   8.350  19.547  0.00  0.00    +0.000 A 
ATOM     11  N   UNK A   1       1.244   9.149  20.493  0.00  0.00    +0.000 NA
BRANCH   6  12
ATOM     12  C   UNK A   1       0.347  11.338  21.138  0.00  0.00    +0.000 C 
ATOM     13  O   UNK A   1       0.820  12.407  21.502  0.00  0.00    +0.000 OA
BRANCH  12  15
ATOM     14  C   UNK A   1      -0.917  10.618  22.974  0.00  0.00    +0.000 C 
ATOM     15  O   UNK A   1      -0.820  10.795  21.562  0.00  0.00    +0.000 OA
ENDBRANCH  12  15
ENDBRANCH   6  12
ENDBRANCH   2  10
ENDBRANCH   1   4
BRANCH   1  16
ATOM     16  C   UNK A   1       4.926   4.738  19.104  0.00  0.00    +0.000 C 
ATOM     17  O   UNK A   1       5.616   3.840  19.588  0.00  0.00    +0.000 OA
ATOM     18  N   PHE A   2       5.457   5.726  18.293  0.00  0.00    +0.000 N 
ATOM     19  H   PHE A   2       4.795   6.192  17.680  0.00  0.00    +0.000 HD
BRANCH  18  20
ATOM     20  CA  PHE A   2       6.849   5.666  17.797  0.00  0.00    +0.000 C 
BRANCH  20  21
ATOM     21  C   PHE A   2       7.849   6.364  18.749  0.00  0.00    +0.000 C 
BRANCH  21  22
ATOM     22  O   PHE A   2       8.223   5.507  19.826  0.00  0.00    +0.000 OA
ATOM     23  H   PHE A   2       8.200   4.603  19.464  0.00  0.00    +0.000 HD
ENDBRANCH  21  22
ENDBRANCH  20  21
BRANCH  20  24
ATOM     24  CB  PHE A   2       6.983   6.303  16.391  0.00  0.00    +0.000 C 
BRANCH  24  25
ATOM     25  CG  PHE A   2       6.666   5.379  15.237  0.00  0.00    +0.000 A 
ATOM     26  CD1 PHE A   2       5.477   4.635  15.240  0.00  0.00    +0.000 A 
ATOM     27  CE1 PHE A   2       5.166   3.786  14.176  0.00  0.00    +0.000 A 
ATOM     28  CZ  PHE A   2       6.036   3.679  13.094  0.00  0.00    +0.000 A 
ATOM     29  CE2 PHE A   2       7.214   4.425  13.072  0.00  0.00    +0.000 A 
ATOM     30  CD2 PHE A   2       7.526   5.274  14.135  0.00  0.00    +0.000 A 
ENDBRANCH  24  25
ENDBRANCH  20  24
ENDBRANCH  18  20
ENDBRANCH   1  16
BRANCH   1  31
ATOM     31  C   UNK A   1       2.555   3.944  18.527  0.00  0.00    +0.000 C 
BRANCH  31  32
ATOM     32  C   UNK A   1       2.214   2.549  19.093  0.00  0.00    +0.000 C 
ATOM     33  C   UNK A   1       0.761   2.128  18.860  0.00  0.00    +0.000 C 
ATOM     34  C   UNK A   1       3.142   1.489  18.484  0.00  0.00    +0.000 C 
ENDBRANCH  31  32
ENDBRANCH   1  31
TORSDOF 12
ENDMDL
MODEL 2
REMARK VINA RESULT:      -7.4      1.340      1.576
REMARK  Name = 
REMARK  15 active torsions:
REMARK  status: ('A' for Active; 'I' for Inactive)
REMARK    1  A    between atoms: C_1  and  O_2
REMARK    2  A    between atoms: O_2  and  C_3
REMARK    3  A    between atoms: C_3  and  C_5
REMARK    4  A    between atoms: C_9  and  C_10
REMARK    5  A    between atoms: N_12  and  C_13
REMARK    6  A    between atoms: C_13  and  C_14
REMARK    7  A    between atoms: C_13  and  C_18
REMARK    8  A    between atoms: C_14  and  C_15
REMARK    9  A    between atoms: C_15  and  C_16
REMARK   10  A    between atoms: C_15  and  C_17
REMARK   11  A    between atoms: N_20  and  CA_21
REMARK   12  A    between atoms: CA_21  and  C_22
REMARK   13  A    between atoms: CA_21  and  CB_24
REMARK   14  A    between atoms: C_22  and  O_23
REMARK   15  A    between atoms: CB_24  and  CG_25
REMARK                            x       y       z     vdW  Elec       q    Type
REMARK                         _______ _______ _______ _____ _____    ______ ____
ROOT
ATOM      1  C   UNK A   1       3.506   4.671  19.793  0.00  0.00    +0.000 C 
ENDROOT
BRANCH   1   4
ATOM      2  C   UNK A   1       2.577   6.830  18.916  0.00  0.00    +0.000 C 
ATOM      3  O   UNK A   1       2.854   6.574  17.744  0.00  0.00    +0.000 OA
ATOM      4  N   UNK A   1       2.843   5.970  19.960  0.00  0.00    +0.000 N 
ATOM      5  H   UNK A   1       2.581   6.267  20.900  0.00  0.00    +0.000 HD
BRANCH   2  10
ATOM      6  C   UNK A   1       0.961   9.450  20.935  0.00  0.00    +0.000 A 
ATOM      7  C   UNK A   1       0.723  10.482  20.032  0.00  0.00    +0.000 A 
ATOM      8  C   UNK A   1       1.104  10.306  18.706  0.00  0.00    +0.000 A 
ATOM      9  C   UNK A   1       1.706   9.107  18.324  0.00  0.00    +0.000 A 
ATOM     10  C   UNK A   1       1.918   8.128  19.292  0.00  0.00    +0.000 A 
ATOM     11  N   UNK A   1       1.561   8.274  20.595  0.00  0.00    +0.000 NA
BRANCH   6  12
ATOM     12  C   UNK A   1       0.527   9.631  22.355  0.00  0.00    +0.000 C 
ATOM     13  O   UNK A   1       1.292   9.618  23.311  0.00  0.00    +0.000 OA
BRANCH  12  15
ATOM     14  C   UNK A   1      -1.225  11.025  23.045  0.00  0.00    +0.000 C 
ATOM     15  O   UNK A   1      -0.815   9.816  22.409  0.00  0.00    +0.000 OA
ENDBRANCH  12  15
ENDBRANCH   6  12
ENDBRANCH   2  10
ENDBRANCH   1   4
BRANCH   1  16
ATOM     16  C   UNK A   1       4.869   4.921  19.098  0.00  0.00    +0.000 C 
ATOM     17  O   UNK A   1       5.770   5.560  19.643  0.00  0.00    +0.000 OA
ATOM     18  N   PHE A   2       4.984   4.430  17.808  0.00  0.00    +0.000 N 
ATOM     19  H   PHE A   2       4.372   3.652  17.581  0.00  0.00    +0.000 HD
BRANCH  18  20
ATOM     20  CA  PHE A   2       6.261   4.473  17.066  0.00  0.00    +0.000 C 
BRANCH  20  21
ATOM     21  C   PHE A   2       7.465   4.817  17.976  0.00  0.00    +0.000 C 
BRANCH  21  22
ATOM     22  O   PHE A   2       7.892   6.165  17.782  0.00  0.00    +0.000 OA
ATOM     23  H   PHE A   2       7.313   6.528  17.089  0.00  0.00    +0.000 HD
ENDBRANCH  21  22
ENDBRANCH  20  21
BRANCH  20  24
ATOM     24  CB  PHE A   2       6.215   5.500  15.905  0.00  0.00    +0.000 C 
BRANCH  24  25
ATOM     25  CG  PHE A   2       6.439   4.917  14.528  0.00  0.00    +0.000 A 
ATOM     26  CD1 PHE A   2       5.543   3.970  14.012  0.00  0.00    +0.000 A 
ATOM     27  CE1 PHE A   2       5.733   3.433  12.738  0.00  0.00    +0.000 A 
ATOM     28  CZ  PHE A   2       6.814   3.844  11.963  0.00  0.00    +0.000 A 
ATOM     29  CE2 PHE A   2       7.703   4.796  12.458  0.00  0.00    +0.000 A 
ATOM     30  CD2 PHE A   2       7.515   5.334  13.733  0.00  0.00    +0.000 A 
ENDBRANCH  24  25
ENDBRANCH  20  24
ENDBRANCH  18  20
ENDBRANCH   1  16
BRANCH   1  31
ATOM     31  C   UNK A   1       2.603   3.725  18.971  0.00  0.00    +0.000 C 
BRANCH  31  32
ATOM     32  C   UNK A   1       1.897   2.588  19.742  0.00  0.00    +0.000 C 
ATOM     33  C   UNK A   1       1.530   2.955  21.181  0.00  0.00    +0.000 C 
ATOM     34  C   UNK A   1       0.625   2.157  18.999  0.00  0.00    +0.000 C 
ENDBRANCH  31  32
ENDBRANCH   1  31
TORSDOF 12
ENDMDL
MODEL 3
REMARK VINA RESULT:      -7.4      1.291      1.773
REMARK  Name = 
REMARK  15 active torsions:
REMARK  status: ('A' for Active; 'I' for Inactive)
REMARK    1  A    between atoms: C_1  and  O_2
REMARK    2  A    between atoms: O_2  and  C_3
REMARK    3  A    between atoms: C_3  and  C_5
REMARK    4  A    between atoms: C_9  and  C_10
REMARK    5  A    between atoms: N_12  and  C_13
REMARK    6  A    between atoms: C_13  and  C_14
REMARK    7  A    between atoms: C_13  and  C_18
REMARK    8  A    between atoms: C_14  and  C_15
REMARK    9  A    between atoms: C_15  and  C_16
REMARK   10  A    between atoms: C_15  and  C_17
REMARK   11  A    between atoms: N_20  and  CA_21
REMARK   12  A    between atoms: CA_21  and  C_22
REMARK   13  A    between atoms: CA_21  and  CB_24
REMARK   14  A    between atoms: C_22  and  O_23
REMARK   15  A    between atoms: CB_24  and  CG_25
REMARK                            x       y       z     vdW  Elec       q    Type
REMARK                         _______ _______ _______ _____ _____    ______ ____
ROOT
ATOM      1  C   UNK A   1       3.116   5.520  18.581  0.00  0.00    +0.000 C 
ENDROOT
BRANCH   1   4
ATOM      2  C   UNK A   1       1.858   7.221  19.930  0.00  0.00    +0.000 C 
ATOM      3  O   UNK A   1       1.702   6.471  20.893  0.00  0.00    +0.000 OA
ATOM      4  N   UNK A   1       2.532   6.852  18.787  0.00  0.00    +0.000 N 
ATOM      5  H   UNK A   1       2.610   7.540  18.037  0.00  0.00    +0.000 HD
BRANCH   2  10
ATOM      6  C   UNK A   1       0.237  10.310  21.108  0.00  0.00    +0.000 A 
ATOM      7  C   UNK A   1       0.298  11.169  20.014  0.00  0.00    +0.000 A 
ATOM      8  C   UNK A   1       0.892  10.711  18.842  0.00  0.00    +0.000 A 
ATOM      9  C   UNK A   1       1.400   9.414  18.798  0.00  0.00    +0.000 A 
ATOM     10  C   UNK A   1       1.308   8.621  19.940  0.00  0.00    +0.000 A 
ATOM     11  N   UNK A   1       0.738   9.042  21.099  0.00  0.00    +0.000 NA
BRANCH   6  12
ATOM     12  C   UNK A   1      -0.426  10.794  22.359  0.00  0.00    +0.000 C 
ATOM     13  O   UNK A   1      -0.176  10.361  23.476  0.00  0.00    +0.000 OA
BRANCH  12  15
ATOM     14  C   UNK A   1      -2.313  11.993  23.058  0.00  0.00    +0.000 C 
ATOM     15  O   UNK A   1      -1.317  11.772  22.062  0.00  0.00    +0.000 OA
ENDBRANCH  12  15
ENDBRANCH   6  12
ENDBRANCH   2  10
ENDBRANCH   1   4
BRANCH   1  16
ATOM     16  C   UNK A   1       4.479   5.707  17.867  0.00  0.00    +0.000 C 
ATOM     17  O   UNK A   1       4.890   6.818  17.529  0.00  0.00    +0.000 OA
ATOM     18  N   PHE A   2       5.173   4.542  17.586  0.00  0.00    +0.000 N 
ATOM     19  H   PHE A   2       4.955   3.749  18.182  0.00  0.00    +0.000 HD
BRANCH  18  20
ATOM     20  CA  PHE A   2       6.542   4.563  17.030  0.00  0.00    +0.000 C 
BRANCH  20  21
ATOM     21  C   PHE A   2       7.607   4.937  18.089  0.00  0.00    +0.000 C 
BRANCH  21  22
ATOM     22  O   PHE A   2       7.788   6.350  18.166  0.00  0.00    +0.000 OA
ATOM     23  H   PHE A   2       8.751   6.493  18.158  0.00  0.00    +0.000 HD
ENDBRANCH  21  22
ENDBRANCH  20  21
BRANCH  20  24
ATOM     24  CB  PHE A   2       6.663   5.553  15.843  0.00  0.00    +0.000 C 
BRANCH  24  25
ATOM     25  CG  PHE A   2       6.632   4.914  14.473  0.00  0.00    +0.000 A 
ATOM     26  CD1 PHE A   2       7.627   5.219  13.534  0.00  0.00    +0.000 A 
ATOM     27  CE1 PHE A   2       7.617   4.628  12.269  0.00  0.00    +0.000 A 
ATOM     28  CZ  PHE A   2       6.618   3.718  11.934  0.00  0.00    +0.000 A 
ATOM     29  CE2 PHE A   2       5.632   3.394  12.865  0.00  0.00    +0.000 A 
ATOM     30  CD2 PHE A   2       5.640   3.985  14.130  0.00  0.00    +0.000 A 
ENDBRANCH  24  25
ENDBRANCH  20  24
ENDBRANCH  18  20
ENDBRANCH   1  16
BRANCH   1  31
ATOM     31  C   UNK A   1       2.146   4.645  17.757  0.00  0.00    +0.000 C 
BRANCH  31  32
ATOM     32  C   UNK A   1       1.783   3.264  18.343  0.00  0.00    +0.000 C 
ATOM     33  C   UNK A   1       2.551   2.104  17.706  0.00  0.00    +0.000 C 
ATOM     34  C   UNK A   1       2.028   3.250  19.858  0.00  0.00    +0.000 C 
ENDBRANCH  31  32
ENDBRANCH   1  31
TORSDOF 12
ENDMDL
MODEL 4
REMARK VINA RESULT:      -7.4      0.896      1.153
REMARK  Name = 
REMARK  15 active torsions:
REMARK  status: ('A' for Active; 'I' for Inactive)
REMARK    1  A    between atoms: C_1  and  O_2
REMARK    2  A    between atoms: O_2  and  C_3
REMARK    3  A    between atoms: C_3  and  C_5
REMARK    4  A    between atoms: C_9  and  C_10
REMARK    5  A    between atoms: N_12  and  C_13
REMARK    6  A    between atoms: C_13  and  C_14
REMARK    7  A    between atoms: C_13  and  C_18
REMARK    8  A    between atoms: C_14  and  C_15
REMARK    9  A    between atoms: C_15  and  C_16
REMARK   10  A    between atoms: C_15  and  C_17
REMARK   11  A    between atoms: N_20  and  CA_21
REMARK   12  A    between atoms: CA_21  and  C_22
REMARK   13  A    between atoms: CA_21  and  CB_24
REMARK   14  A    between atoms: C_22  and  O_23
REMARK   15  A    between atoms: CB_24  and  CG_25
REMARK                            x       y       z     vdW  Elec       q    Type
REMARK                         _______ _______ _______ _____ _____    ______ ____
ROOT
ATOM      1  C   UNK A   1       3.371   4.875  19.097  0.00  0.00    +0.000 C 
ENDROOT
BRANCH   1   4
ATOM      2  C   UNK A   1       2.087   6.913  19.799  0.00  0.00    +0.000 C 
ATOM      3  O   UNK A   1       1.645   6.389  20.822  0.00  0.00    +0.000 OA
ATOM      4  N   UNK A   1       2.929   6.264  18.922  0.00  0.00    +0.000 N 
ATOM      5  H   UNK A   1       3.244   6.776  18.097  0.00  0.00    +0.000 HD
BRANCH   2  10
ATOM      6  C   UNK A   1       0.661  10.301  20.006  0.00  0.00    +0.000 A 
ATOM      7  C   UNK A   1       1.049  10.910  18.816  0.00  0.00    +0.000 A 
ATOM      8  C   UNK A   1       1.804  10.175  17.908  0.00  0.00    +0.000 A 
ATOM      9  C   UNK A   1       2.145   8.858  18.215  0.00  0.00    +0.000 A 
ATOM     10  C   UNK A   1       1.725   8.325  19.432  0.00  0.00    +0.000 A 
ATOM     11  N   UNK A   1       0.992   9.020  20.340  0.00  0.00    +0.000 NA
BRANCH   6  12
ATOM     12  C   UNK A   1      -0.174  11.084  20.969  0.00  0.00    +0.000 C 
ATOM     13  O   UNK A   1      -1.102  11.809  20.636  0.00  0.00    +0.000 OA
BRANCH  12  15
ATOM     14  C   UNK A   1      -0.756  10.359  23.119  0.00  0.00    +0.000 C 
ATOM     15  O   UNK A   1       0.247  10.858  22.237  0.00  0.00    +0.000 OA
ENDBRANCH  12  15
ENDBRANCH   6  12
ENDBRANCH   2  10
ENDBRANCH   1   4
BRANCH   1  16
ATOM     16  C   UNK A   1       4.918   4.880  19.197  0.00  0.00    +0.000 C 
ATOM     17  O   UNK A   1       5.523   4.144  19.976  0.00  0.00    +0.000 OA
ATOM     18  N   PHE A   2       5.567   5.804  18.395  0.00  0.00    +0.000 N 
ATOM     19  H   PHE A   2       5.057   6.101  17.569  0.00  0.00    +0.000 HD
BRANCH  18  20
ATOM     20  CA  PHE A   2       7.040   5.840  18.280  0.00  0.00    +0.000 C 
BRANCH  20  21
ATOM     21  C   PHE A   2       7.551   7.138  17.610  0.00  0.00    +0.000 C 
BRANCH  21  22
ATOM     22  O   PHE A   2       8.361   7.899  18.505  0.00  0.00    +0.000 OA
ATOM     23  H   PHE A   2       7.990   8.799  18.495  0.00  0.00    +0.000 HD
ENDBRANCH  21  22
ENDBRANCH  20  21
BRANCH  20  24
ATOM     24  CB  PHE A   2       7.581   4.628  17.479  0.00  0.00    +0.000 C 
BRANCH  24  25
ATOM     25  CG  PHE A   2       6.978   4.451  16.103  0.00  0.00    +0.000 A 
ATOM     26  CD1 PHE A   2       5.775   3.747  15.950  0.00  0.00    +0.000 A 
ATOM     27  CE1 PHE A   2       5.202   3.586  14.688  0.00  0.00    +0.000 A 
ATOM     28  CZ  PHE A   2       5.820   4.134  13.567  0.00  0.00    +0.000 A 
ATOM     29  CE2 PHE A   2       7.008   4.849  13.708  0.00  0.00    +0.000 A 
ATOM     30  CD2 PHE A   2       7.583   5.011  14.970  0.00  0.00    +0.000 A 
ENDBRANCH  24  25
ENDBRANCH  20  24
ENDBRANCH  18  20
ENDBRANCH   1  16
BRANCH   1  31
ATOM     31  C   UNK A   1       2.871   4.013  17.917  0.00  0.00    +0.000 C 
BRANCH  31  32
ATOM     32  C   UNK A   1       2.368   2.593  18.253  0.00  0.00    +0.000 C 
ATOM     33  C   UNK A   1       3.480   1.543  18.312  0.00  0.00    +0.000 C 
ATOM     34  C   UNK A   1       1.620   2.600  19.594  0.00  0.00    +0.000 C 
ENDBRANCH  31  32
ENDBRANCH   1  31
TORSDOF 12
ENDMDL
MODEL 5
REMARK VINA RESULT:      -7.3      1.330      1.565
REMARK  Name = 
REMARK  15 active torsions:
REMARK  status: ('A' for Active; 'I' for Inactive)
REMARK    1  A    between atoms: C_1  and  O_2
REMARK    2  A    between atoms: O_2  and  C_3
REMARK    3  A    between atoms: C_3  and  C_5
REMARK    4  A    between atoms: C_9  and  C_10
REMARK    5  A    between atoms: N_12  and  C_13
REMARK    6  A    between atoms: C_13  and  C_14
REMARK    7  A    between atoms: C_13  and  C_18
REMARK    8  A    between atoms: C_14  and  C_15
REMARK    9  A    between atoms: C_15  and  C_16
REMARK   10  A    between atoms: C_15  and  C_17
REMARK   11  A    between atoms: N_20  and  CA_21
REMARK   12  A    between atoms: CA_21  and  C_22
REMARK   13  A    between atoms: CA_21  and  CB_24
REMARK   14  A    between atoms: C_22  and  O_23
REMARK   15  A    between atoms: CB_24  and  CG_25
REMARK                            x       y       z     vdW  Elec       q    Type
REMARK                         _______ _______ _______ _____ _____    ______ ____
ROOT
ATOM      1  C   UNK A   1       2.657   5.052  19.100  0.00  0.00    +0.000 C 
ENDROOT
BRANCH   1   4
ATOM      2  C   UNK A   1       1.870   7.318  19.835  0.00  0.00    +0.000 C 
ATOM      3  O   UNK A   1       1.565   6.942  20.967  0.00  0.00    +0.000 OA
ATOM      4  N   UNK A   1       2.409   6.483  18.881  0.00  0.00    +0.000 N 
ATOM      5  H   UNK A   1       2.628   6.882  17.968  0.00  0.00    +0.000 HD
BRANCH   2  10
ATOM      6  C   UNK A   1       0.783  10.835  19.881  0.00  0.00    +0.000 A 
ATOM      7  C   UNK A   1       1.273  11.363  18.690  0.00  0.00    +0.000 A 
ATOM      8  C   UNK A   1       1.985  10.526  17.837  0.00  0.00    +0.000 A 
ATOM      9  C   UNK A   1       2.180   9.193  18.196  0.00  0.00    +0.000 A 
ATOM     10  C   UNK A   1       1.665   8.746  19.411  0.00  0.00    +0.000 A 
ATOM     11  N   UNK A   1       0.971   9.541  20.267  0.00  0.00    +0.000 NA
BRANCH   6  12
ATOM     12  C   UNK A   1      -0.005  11.730  20.786  0.00  0.00    +0.000 C 
ATOM     13  O   UNK A   1       0.312  11.984  21.941  0.00  0.00    +0.000 OA
BRANCH  12  15
ATOM     14  C   UNK A   1      -1.288  13.615  20.253  0.00  0.00    +0.000 C 
ATOM     15  O   UNK A   1      -1.092  12.208  20.132  0.00  0.00    +0.000 OA
ENDBRANCH  12  15
ENDBRANCH   6  12
ENDBRANCH   2  10
ENDBRANCH   1   4
BRANCH   1  16
ATOM     16  C   UNK A   1       3.706   4.589  18.056  0.00  0.00    +0.000 C 
ATOM     17  O   UNK A   1       3.417   3.814  17.143  0.00  0.00    +0.000 OA
ATOM     18  N   PHE A   2       4.993   5.058  18.252  0.00  0.00    +0.000 N 
ATOM     19  H   PHE A   2       5.068   5.925  18.776  0.00  0.00    +0.000 HD
BRANCH  18  20
ATOM     20  CA  PHE A   2       6.071   4.814  17.270  0.00  0.00    +0.000 C 
BRANCH  20  21
ATOM     21  C   PHE A   2       7.481   5.025  17.873  0.00  0.00    +0.000 C 
BRANCH  21  22
ATOM     22  O   PHE A   2       8.376   3.989  17.469  0.00  0.00    +0.000 OA
ATOM     23  H   PHE A   2       9.102   4.436  16.999  0.00  0.00    +0.000 HD
ENDBRANCH  21  22
ENDBRANCH  20  21
BRANCH  20  24
ATOM     24  CB  PHE A   2       5.928   5.726  16.025  0.00  0.00    +0.000 C 
BRANCH  24  25
ATOM     25  CG  PHE A   2       6.231   5.055  14.704  0.00  0.00    +0.000 A 
ATOM     26  CD1 PHE A   2       5.332   4.120  14.170  0.00  0.00    +0.000 A 
ATOM     27  CE1 PHE A   2       5.594   3.502  12.946  0.00  0.00    +0.000 A 
ATOM     28  CZ  PHE A   2       6.751   3.819  12.239  0.00  0.00    +0.000 A 
ATOM     29  CE2 PHE A   2       7.644   4.758  12.751  0.00  0.00    +0.000 A 
ATOM     30  CD2 PHE A   2       7.384   5.377  13.976  0.00  0.00    +0.000 A 
ENDBRANCH  24  25
ENDBRANCH  20  24
ENDBRANCH  18  20
ENDBRANCH   1  16
BRANCH   1  31
ATOM     31  C   UNK A   1       1.333   4.267  18.977  0.00  0.00    +0.000 C 
BRANCH  31  32
ATOM     32  C   UNK A   1       1.149   3.056  19.917  0.00  0.00    +0.000 C 
ATOM     33  C   UNK A   1       1.680   1.742  19.341  0.00  0.00    +0.000 C 
ATOM     34  C   UNK A   1       1.837   3.322  21.263  0.00  0.00    +0.000 C 
ENDBRANCH  31  32
ENDBRANCH   1  31
TORSDOF 12
ENDMDL
MODEL 6
REMARK VINA RESULT:      -7.3      0.996      1.668
REMARK  Name = 
REMARK  15 active torsions:
REMARK  status: ('A' for Active; 'I' for Inactive)
REMARK    1  A    between atoms: C_1  and  O_2
REMARK    2  A    between atoms: O_2  and  C_3
REMARK    3  A    between atoms: C_3  and  C_5
REMARK    4  A    between atoms: C_9  and  C_10
REMARK    5  A    between atoms: N_12  and  C_13
REMARK    6  A    between atoms: C_13  and  C_14
REMARK    7  A    between atoms: C_13  and  C_18
REMARK    8  A    between atoms: C_14  and  C_15
REMARK    9  A    between atoms: C_15  and  C_16
REMARK   10  A    between atoms: C_15  and  C_17
REMARK   11  A    between atoms: N_20  and  CA_21
REMARK   12  A    between atoms: CA_21  and  C_22
REMARK   13  A    between atoms: CA_21  and  CB_24
REMARK   14  A    between atoms: C_22  and  O_23
REMARK   15  A    between atoms: CB_24  and  CG_25
REMARK                            x       y       z     vdW  Elec       q    Type
REMARK                         _______ _______ _______ _____ _____    ______ ____
ROOT
ATOM      1  C   UNK A   1       2.871   4.723  19.229  0.00  0.00    +0.000 C 
ENDROOT
BRANCH   1   4
ATOM      2  C   UNK A   1       1.963   6.977  19.853  0.00  0.00    +0.000 C 
ATOM      3  O   UNK A   1       1.545   6.602  20.948  0.00  0.00    +0.000 OA
ATOM      4  N   UNK A   1       2.620   6.147  18.970  0.00  0.00    +0.000 N 
ATOM      5  H   UNK A   1       2.929   6.544  18.083  0.00  0.00    +0.000 HD
BRANCH   2  10
ATOM      6  C   UNK A   1       0.902  10.502  19.806  0.00  0.00    +0.000 A 
ATOM      7  C   UNK A   1       1.418  11.001  18.614  0.00  0.00    +0.000 A 
ATOM      8  C   UNK A   1       2.139  10.142  17.791  0.00  0.00    +0.000 A 
ATOM      9  C   UNK A   1       2.318   8.815  18.182  0.00  0.00    +0.000 A 
ATOM     10  C   UNK A   1       1.777   8.398  19.396  0.00  0.00    +0.000 A 
ATOM     11  N   UNK A   1       1.073   9.215  20.222  0.00  0.00    +0.000 NA
BRANCH   6  12
ATOM     12  C   UNK A   1       0.104  11.420  20.677  0.00  0.00    +0.000 C 
ATOM     13  O   UNK A   1      -1.119  11.471  20.678  0.00  0.00    +0.000 OA
BRANCH  12  15
ATOM     14  C   UNK A   1       0.879  13.564  21.215  0.00  0.00    +0.000 C 
ATOM     15  O   UNK A   1       0.933  12.160  21.453  0.00  0.00    +0.000 OA
ENDBRANCH  12  15
ENDBRANCH   6  12
ENDBRANCH   2  10
ENDBRANCH   1   4
BRANCH   1  16
ATOM     16  C   UNK A   1       4.296   4.394  18.712  0.00  0.00    +0.000 C 
ATOM     17  O   UNK A   1       4.988   3.516  19.228  0.00  0.00    +0.000 OA
ATOM     18  N   PHE A   2       4.755   5.187  17.674  0.00  0.00    +0.000 N 
ATOM     19  H   PHE A   2       4.035   5.616  17.101  0.00  0.00    +0.000 HD
BRANCH  18  20
ATOM     20  CA  PHE A   2       6.034   4.911  16.987  0.00  0.00    +0.000 C 
BRANCH  20  21
ATOM     21  C   PHE A   2       7.261   5.136  17.904  0.00  0.00    +0.000 C 
BRANCH  21  22
ATOM     22  O   PHE A   2       8.215   4.085  17.760  0.00  0.00    +0.000 OA
ATOM     23  H   PHE A   2       8.501   3.863  18.663  0.00  0.00    +0.000 HD
ENDBRANCH  21  22
ENDBRANCH  20  21
BRANCH  20  24
ATOM     24  CB  PHE A   2       6.203   5.786  15.719  0.00  0.00    +0.000 C 
BRANCH  24  25
ATOM     25  CG  PHE A   2       6.329   5.016  14.424  0.00  0.00    +0.000 A 
ATOM     26  CD1 PHE A   2       7.443   5.214  13.595  0.00  0.00    +0.000 A 
ATOM     27  CE1 PHE A   2       7.577   4.502  12.402  0.00  0.00    +0.000 A 
ATOM     28  CZ  PHE A   2       6.605   3.577  12.030  0.00  0.00    +0.000 A 
ATOM     29  CE2 PHE A   2       5.501   3.359  12.853  0.00  0.00    +0.000 A 
ATOM     30  CD2 PHE A   2       5.365   4.071  14.046  0.00  0.00    +0.000 A 
ENDBRANCH  24  25
ENDBRANCH  20  24
ENDBRANCH  18  20
ENDBRANCH   1  16
BRANCH   1  31
ATOM     31  C   UNK A   1       1.791   3.866  18.533  0.00  0.00    +0.000 C 
BRANCH  31  32
ATOM     32  C   UNK A   1       1.224   2.673  19.332  0.00  0.00    +0.000 C 
ATOM     33  C   UNK A   1       2.060   1.397  19.209  0.00  0.00    +0.000 C 
ATOM     34  C   UNK A   1       1.097   3.043  20.816  0.00  0.00    +0.000 C 
ENDBRANCH  31  32
ENDBRANCH   1  31
TORSDOF 12
ENDMDL
MODEL 7
REMARK VINA RESULT:      -7.3      0.991      1.263
REMARK  Name = 
REMARK  15 active torsions:
REMARK  status: ('A' for Active; 'I' for Inactive)
REMARK    1  A    between atoms: C_1  and  O_2
REMARK    2  A    between atoms: O_2  and  C_3
REMARK    3  A    between atoms: C_3  and  C_5
REMARK    4  A    between atoms: C_9  and  C_10
REMARK    5  A    between atoms: N_12  and  C_13
REMARK    6  A    between atoms: C_13  and  C_14
REMARK    7  A    between atoms: C_13  and  C_18
REMARK    8  A    between atoms: C_14  and  C_15
REMARK    9  A    between atoms: C_15  and  C_16
REMARK   10  A    between atoms: C_15  and  C_17
REMARK   11  A    between atoms: N_20  and  CA_21
REMARK   12  A    between atoms: CA_21  and  C_22
REMARK   13  A    between atoms: CA_21  and  CB_24
REMARK   14  A    between atoms: C_22  and  O_23
REMARK   15  A    between atoms: CB_24  and  CG_25
REMARK                            x       y       z     vdW  Elec       q    Type
REMARK                         _______ _______ _______ _____ _____    ______ ____
ROOT
ATOM      1  C   UNK A   1       3.343   4.573  19.675  0.00  0.00    +0.000 C 
ENDROOT
BRANCH   1   4
ATOM      2  C   UNK A   1       2.056   6.699  20.013  0.00  0.00    +0.000 C 
ATOM      3  O   UNK A   1       1.415   6.262  20.969  0.00  0.00    +0.000 OA
ATOM      4  N   UNK A   1       3.007   5.963  19.341  0.00  0.00    +0.000 N 
ATOM      5  H   UNK A   1       3.487   6.406  18.558  0.00  0.00    +0.000 HD
BRANCH   2  10
ATOM      6  C   UNK A   1       0.902  10.191  19.835  0.00  0.00    +0.000 A 
ATOM      7  C   UNK A   1       1.409  10.660  18.626  0.00  0.00    +0.000 A 
ATOM      8  C   UNK A   1       2.154   9.790  17.837  0.00  0.00    +0.000 A 
ATOM      9  C   UNK A   1       2.366   8.484  18.276  0.00  0.00    +0.000 A 
ATOM     10  C   UNK A   1       1.833   8.097  19.504  0.00  0.00    +0.000 A 
ATOM     11  N   UNK A   1       1.106   8.925  20.298  0.00  0.00    +0.000 NA
BRANCH   6  12
ATOM     12  C   UNK A   1       0.078  11.120  20.670  0.00  0.00    +0.000 C 
ATOM     13  O   UNK A   1      -0.790  11.855  20.219  0.00  0.00    +0.000 OA
BRANCH  12  15
ATOM     14  C   UNK A   1      -0.621  10.609  22.847  0.00  0.00    +0.000 C 
ATOM     15  O   UNK A   1       0.433  11.009  21.974  0.00  0.00    +0.000 OA
ENDBRANCH  12  15
ENDBRANCH   6  12
ENDBRANCH   2  10
ENDBRANCH   1   4
BRANCH   1  16
ATOM     16  C   UNK A   1       4.836   4.350  19.322  0.00  0.00    +0.000 C 
ATOM     17  O   UNK A   1       5.276   3.240  19.021  0.00  0.00    +0.000 OA
ATOM     18  N   PHE A   2       5.648   5.467  19.423  0.00  0.00    +0.000 N 
ATOM     19  H   PHE A   2       5.177   6.361  19.328  0.00  0.00    +0.000 HD
BRANCH  18  20
ATOM     20  CA  PHE A   2       7.063   5.445  18.993  0.00  0.00    +0.000 C 
BRANCH  20  21
ATOM     21  C   PHE A   2       8.016   6.034  20.060  0.00  0.00    +0.000 C 
BRANCH  21  22
ATOM     22  O   PHE A   2       8.825   5.017  20.650  0.00  0.00    +0.000 OA
ATOM     23  H   PHE A   2       9.471   5.484  21.209  0.00  0.00    +0.000 HD
ENDBRANCH  21  22
ENDBRANCH  20  21
BRANCH  20  24
ATOM     24  CB  PHE A   2       7.270   6.222  17.668  0.00  0.00    +0.000 C 
BRANCH  24  25
ATOM     25  CG  PHE A   2       6.633   5.590  16.451  0.00  0.00    +0.000 A 
ATOM     26  CD1 PHE A   2       5.589   6.247  15.783  0.00  0.00    +0.000 A 
ATOM     27  CE1 PHE A   2       5.000   5.680  14.652  0.00  0.00    +0.000 A 
ATOM     28  CZ  PHE A   2       5.454   4.455  14.171  0.00  0.00    +0.000 A 
ATOM     29  CE2 PHE A   2       6.501   3.799  14.816  0.00  0.00    +0.000 A 
ATOM     30  CD2 PHE A   2       7.091   4.364  15.948  0.00  0.00    +0.000 A 
ENDBRANCH  24  25
ENDBRANCH  20  24
ENDBRANCH  18  20
ENDBRANCH   1  16
BRANCH   1  31
ATOM     31  C   UNK A   1       2.416   3.610  18.901  0.00  0.00    +0.000 C 
BRANCH  31  32
ATOM     32  C   UNK A   1       1.749   2.478  19.714  0.00  0.00    +0.000 C 
ATOM     33  C   UNK A   1       1.310   2.903  21.116  0.00  0.00    +0.000 C 
ATOM     34  C   UNK A   1       0.532   1.930  18.956  0.00  0.00    +0.000 C 
ENDBRANCH  31  32
ENDBRANCH   1  31
TORSDOF 12
ENDMDL
MODEL 8
REMARK VINA RESULT:      -7.2      1.449      1.562
REMARK  Name = 
REMARK  15 active torsions:
REMARK  status: ('A' for Active; 'I' for Inactive)
REMARK    1  A    between atoms: C_1  and  O_2
REMARK    2  A    between atoms: O_2  and  C_3
REMARK    3  A    between atoms: C_3  and  C_5
REMARK    4  A    between atoms: C_9  and  C_10
REMARK    5  A    between atoms: N_12  and  C_13
REMARK    6  A    between atoms: C_13  and  C_14
REMARK    7  A    between atoms: C_13  and  C_18
REMARK    8  A    between atoms: C_14  and  C_15
REMARK    9  A    between atoms: C_15  and  C_16
REMARK   10  A    between atoms: C_15  and  C_17
REMARK   11  A    between atoms: N_20  and  CA_21
REMARK   12  A    between atoms: CA_21  and  C_22
REMARK   13  A    between atoms: CA_21  and  CB_24
REMARK   14  A    between atoms: C_22  and  O_23
REMARK   15  A    between atoms: CB_24  and  CG_25
REMARK                            x       y       z     vdW  Elec       q    Type
REMARK                         _______ _______ _______ _____ _____    ______ ____
ROOT
ATOM      1  C   UNK A   1       3.977   4.396  20.003  0.00  0.00    +0.000 C 
ENDROOT
BRANCH   1   4
ATOM      2  C   UNK A   1       2.707   6.230  18.856  0.00  0.00    +0.000 C 
ATOM      3  O   UNK A   1       2.643   5.633  17.781  0.00  0.00    +0.000 OA
ATOM      4  N   UNK A   1       3.318   5.707  19.975  0.00  0.00    +0.000 N 
ATOM      5  H   UNK A   1       3.325   6.276  20.823  0.00  0.00    +0.000 HD
BRANCH   2  10
ATOM      6  C   UNK A   1       1.175   9.191  20.416  0.00  0.00    +0.000 A 
ATOM      7  C   UNK A   1       1.031  10.097  19.369  0.00  0.00    +0.000 A 
ATOM      8  C   UNK A   1       1.450   9.714  18.098  0.00  0.00    +0.000 A 
ATOM      9  C   UNK A   1       1.994   8.444  17.914  0.00  0.00    +0.000 A 
ATOM     10  C   UNK A   1       2.112   7.601  19.018  0.00  0.00    +0.000 A 
ATOM     11  N   UNK A   1       1.717   7.949  20.270  0.00  0.00    +0.000 NA
BRANCH   6  12
ATOM     12  C   UNK A   1       0.699   9.594  21.777  0.00  0.00    +0.000 C 
ATOM     13  O   UNK A   1       1.365   9.472  22.797  0.00  0.00    +0.000 OA
BRANCH  12  15
ATOM     14  C   UNK A   1      -0.907  10.981  22.769  0.00  0.00    +0.000 C 
ATOM     15  O   UNK A   1      -0.551  10.111  21.696  0.00  0.00    +0.000 OA
ENDBRANCH  12  15
ENDBRANCH   6  12
ENDBRANCH   2  10
ENDBRANCH   1   4
BRANCH   1  16
ATOM     16  C   UNK A   1       5.131   4.426  18.968  0.00  0.00    +0.000 C 
ATOM     17  O   UNK A   1       5.609   3.394  18.495  0.00  0.00    +0.000 OA
ATOM     18  N   PHE A   2       5.623   5.681  18.655  0.00  0.00    +0.000 N 
ATOM     19  H   PHE A   2       4.978   6.452  18.799  0.00  0.00    +0.000 HD
BRANCH  18  20
ATOM     20  CA  PHE A   2       6.629   5.884  17.591  0.00  0.00    +0.000 C 
BRANCH  20  21
ATOM     21  C   PHE A   2       7.730   6.892  17.998  0.00  0.00    +0.000 C 
BRANCH  21  22
ATOM     22  O   PHE A   2       7.736   8.028  17.135  0.00  0.00    +0.000 OA
ATOM     23  H   PHE A   2       7.284   7.743  16.321  0.00  0.00    +0.000 HD
ENDBRANCH  21  22
ENDBRANCH  20  21
BRANCH  20  24
ATOM     24  CB  PHE A   2       5.976   6.375  16.273  0.00  0.00    +0.000 C 
BRANCH  24  25
ATOM     25  CG  PHE A   2       6.166   5.459  15.086  0.00  0.00    +0.000 A 
ATOM     26  CD1 PHE A   2       5.145   4.572  14.713  0.00  0.00    +0.000 A 
ATOM     27  CE1 PHE A   2       5.302   3.729  13.613  0.00  0.00    +0.000 A 
ATOM     28  CZ  PHE A   2       6.477   3.769  12.867  0.00  0.00    +0.000 A 
ATOM     29  CE2 PHE A   2       7.493   4.657  13.217  0.00  0.00    +0.000 A 
ATOM     30  CD2 PHE A   2       7.338   5.501  14.318  0.00  0.00    +0.000 A 
ENDBRANCH  24  25
ENDBRANCH  20  24
ENDBRANCH  18  20
ENDBRANCH   1  16
BRANCH   1  31
ATOM     31  C   UNK A   1       2.949   3.286  19.691  0.00  0.00    +0.000 C 
BRANCH  31  32
ATOM     32  C   UNK A   1       1.556   3.422  20.341  0.00  0.00    +0.000 C 
ATOM     33  C   UNK A   1       0.416   2.887  19.473  0.00  0.00    +0.000 C 
ATOM     34  C   UNK A   1       1.531   2.698  21.695  0.00  0.00    +0.000 C 
ENDBRANCH  31  32
ENDBRANCH   1  31
TORSDOF 12
ENDMDL
MODEL 9
REMARK VINA RESULT:      -7.2      2.344      8.449
REMARK  Name = 
REMARK  15 active torsions:
REMARK  status: ('A' for Active; 'I' for Inactive)
REMARK    1  A    between atoms: C_1  and  O_2
REMARK    2  A    between atoms: O_2  and  C_3
REMARK    3  A    between atoms: C_3  and  C_5
REMARK    4  A    between atoms: C_9  and  C_10
REMARK    5  A    between atoms: N_12  and  C_13
REMARK    6  A    between atoms: C_13  and  C_14
REMARK    7  A    between atoms: C_13  and  C_18
REMARK    8  A    between atoms: C_14  and  C_15
REMARK    9  A    between atoms: C_15  and  C_16
REMARK   10  A    between atoms: C_15  and  C_17
REMARK   11  A    between atoms: N_20  and  CA_21
REMARK   12  A    between atoms: CA_21  and  C_22
REMARK   13  A    between atoms: CA_21  and  CB_24
REMARK   14  A    between atoms: C_22  and  O_23
REMARK   15  A    between atoms: CB_24  and  CG_25
REMARK                            x       y       z     vdW  Elec       q    Type
REMARK                         _______ _______ _______ _____ _____    ______ ____
ROOT
ATOM      1  C   UNK A   1       2.020   5.847  19.635  0.00  0.00    +0.000 C 
ENDROOT
BRANCH   1   4
ATOM      2  C   UNK A   1       3.591   4.938  17.903  0.00  0.00    +0.000 C 
ATOM      3  O   UNK A   1       2.695   4.422  17.235  0.00  0.00    +0.000 OA
ATOM      4  N   UNK A   1       3.356   5.648  19.061  0.00  0.00    +0.000 N 
ATOM      5  H   UNK A   1       4.161   6.038  19.552  0.00  0.00    +0.000 HD
BRANCH   2  10
ATOM      6  C   UNK A   1       6.588   4.656  15.784  0.00  0.00    +0.000 A 
ATOM      7  C   UNK A   1       7.646   4.614  16.687  0.00  0.00    +0.000 A 
ATOM      8  C   UNK A   1       7.360   4.675  18.048  0.00  0.00    +0.000 A 
ATOM      9  C   UNK A   1       6.032   4.772  18.461  0.00  0.00    +0.000 A 
ATOM     10  C   UNK A   1       5.032   4.819  17.492  0.00  0.00    +0.000 A 
ATOM     11  N   UNK A   1       5.281   4.767  16.157  0.00  0.00    +0.000 NA
BRANCH   6  12
ATOM     12  C   UNK A   1       6.895   4.564  14.322  0.00  0.00    +0.000 C 
ATOM     13  O   UNK A   1       6.361   3.767  13.561  0.00  0.00    +0.000 OA
BRANCH  12  15
ATOM     14  C   UNK A   1       8.100   5.578  12.589  0.00  0.00    +0.000 C 
ATOM     15  O   UNK A   1       7.827   5.488  13.985  0.00  0.00    +0.000 OA
ENDBRANCH  12  15
ENDBRANCH   6  12
ENDBRANCH   2  10
ENDBRANCH   1   4
BRANCH   1  16
ATOM     16  C   UNK A   1       1.864   7.356  19.956  0.00  0.00    +0.000 C 
ATOM     17  O   UNK A   1       2.363   8.228  19.243  0.00  0.00    +0.000 OA
ATOM     18  N   PHE A   2       1.178   7.653  21.121  0.00  0.00    +0.000 N 
ATOM     19  H   PHE A   2       0.528   6.942  21.439  0.00  0.00    +0.000 HD
BRANCH  18  20
ATOM     20  CA  PHE A   2       0.834   9.042  21.493  0.00  0.00    +0.000 C 
BRANCH  20  21
ATOM     21  C   PHE A   2      -0.096   9.113  22.728  0.00  0.00    +0.000 C 
BRANCH  21  22
ATOM     22  O   PHE A   2       0.560   9.728  23.835  0.00  0.00    +0.000 OA
ATOM     23  H   PHE A   2      -0.123  10.251  24.289  0.00  0.00    +0.000 HD
ENDBRANCH  21  22
ENDBRANCH  20  21
BRANCH  20  24
ATOM     24  CB  PHE A   2       0.153   9.796  20.321  0.00  0.00    +0.000 C 
BRANCH  24  25
ATOM     25  CG  PHE A   2       0.734  11.158  20.015  0.00  0.00    +0.000 A 
ATOM     26  CD1 PHE A   2       0.627  12.194  20.953  0.00  0.00    +0.000 A 
ATOM     27  CE1 PHE A   2       1.168  13.453  20.687  0.00  0.00    +0.000 A 
ATOM     28  CZ  PHE A   2       1.830  13.686  19.485  0.00  0.00    +0.000 A 
ATOM     29  CE2 PHE A   2       1.957  12.660  18.551  0.00  0.00    +0.000 A 
ATOM     30  CD2 PHE A   2       1.416  11.400  18.814  0.00  0.00    +0.000 A 
ENDBRANCH  24  25
ENDBRANCH  20  24
ENDBRANCH  18  20
ENDBRANCH   1  16
BRANCH   1  31
ATOM     31  C   UNK A   1       1.853   4.968  20.894  0.00  0.00    +0.000 C 
BRANCH  31  32
ATOM     32  C   UNK A   1       1.904   3.439  20.689  0.00  0.00    +0.000 C 
ATOM     33  C   UNK A   1       1.789   2.639  21.988  0.00  0.00    +0.000 C 
ATOM     34  C   UNK A   1       0.787   2.996  19.733  0.00  0.00    +0.000 C 
ENDBRANCH  31  32
ENDBRANCH   1  31
TORSDOF 12
ENDMDL
