MODEL 1
REMARK VINA RESULT:      -7.4      0.000      0.000
REMARK  Name = 
REMARK  7 active torsions:
REMARK  status: ('A' for Active; 'I' for Inactive)
REMARK    1  A    between atoms: C_1  and  N_2
REMARK    2  A    between atoms: C_3  and  S_6
REMARK    3  A    between atoms: N_4  and  C_5
REMARK    4  A    between atoms: S_6  and  C_7
REMARK    5  A    between atoms: C_7  and  C_8
REMARK    6  A    between atoms: N_18  and  C_19
REMARK    7  A    between atoms: C_24  and  C_25
REMARK                            x       y       z     vdW  Elec       q    Type
REMARK                         _______ _______ _______ _____ _____    ______ ____
ROOT
ATOM      1  C   UNL     1       4.130   5.499  18.926  0.00  0.00    +0.000 A 
ATOM      2  N   UNL     1       3.279   6.020  19.856  0.00  0.00    +0.000 NA
ATOM      3  C   UNL     1       2.554   7.142  19.651  0.00  0.00    +0.000 A 
ATOM      4  C   UNL     1       1.687   7.621  20.644  0.00  0.00    +0.000 A 
ATOM      5  C   UNL     1       0.948   8.789  20.425  0.00  0.00    +0.000 A 
ATOM      6  C   UNL     1       1.076   9.478  19.216  0.00  0.00    +0.000 A 
ATOM      7  C   UNL     1       1.918   8.986  18.217  0.00  0.00    +0.000 A 
ATOM      8  C   UNL     1       2.656   7.804  18.429  0.00  0.00    +0.000 A 
ATOM      9  C   UNL     1       3.495   7.263  17.443  0.00  0.00    +0.000 A 
ATOM     10  O   UNL     1       3.484   7.780  16.343  0.00  0.00    +0.000 OA
ATOM     11  N   UNL     1       4.269   6.129  17.684  0.00  0.00    +0.000 N 
ENDROOT
BRANCH  11  12
ATOM     12  C   UNL     1       5.217   5.663  16.660  0.00  0.00    +0.000 A 
ATOM     13  C   UNL     1       4.796   4.716  15.702  0.00  0.00    +0.000 A 
ATOM     14  C   UNL     1       5.688   4.122  14.811  0.00  0.00    +0.000 A 
ATOM     15  C   UNL     1       7.026   4.478  14.820  0.00  0.00    +0.000 A 
ATOM     16  C   UNL     1       7.480   5.445  15.705  0.00  0.00    +0.000 A 
ATOM     17  C   UNL     1       6.612   6.060  16.630  0.00  0.00    +0.000 A 
ATOM     18  C   UNL     1       7.276   7.053  17.571  0.00  0.00    +0.000 C 
ENDBRANCH  11  12
BRANCH   1  19
ATOM     19  C   UNL     1       4.792   4.190  19.374  0.00  0.00    +0.000 C 
BRANCH  19  20
ATOM     20  S   UNL     1       3.980   2.550  19.141  0.00  0.00    +0.000 S 
BRANCH  20  23
ATOM     21  C   UNL     1       1.212   2.570  22.074  0.00  0.00    +0.000 C 
ATOM     22  N   UNL     1       2.377   2.491  21.229  0.00  0.00    +0.000 NA
ATOM     23  C   UNL     1       2.438   2.850  19.990  0.00  0.00    +0.000 C 
ATOM     24  N   UNL     1       1.307   3.376  19.284  0.00  0.00    +0.000 N 
ATOM     25  C   UNL     1       1.323   3.673  17.865  0.00  0.00    +0.000 C 
ATOM     26  H   UNL     1       0.430   3.560  19.789  0.00  0.00    +0.000 HD
ENDBRANCH  20  23
ENDBRANCH  19  20
ENDBRANCH   1  19
TORSDOF 4
ENDMDL
MODEL 2
REMARK VINA RESULT:      -7.1      2.293      4.888
REMARK  Name = 
REMARK  7 active torsions:
REMARK  status: ('A' for Active; 'I' for Inactive)
REMARK    1  A    between atoms: C_1  and  N_2
REMARK    2  A    between atoms: C_3  and  S_6
REMARK    3  A    between atoms: N_4  and  C_5
REMARK    4  A    between atoms: S_6  and  C_7
REMARK    5  A    between atoms: C_7  and  C_8
REMARK    6  A    between atoms: N_18  and  C_19
REMARK    7  A    between atoms: C_24  and  C_25
REMARK                            x       y       z     vdW  Elec       q    Type
REMARK                         _______ _______ _______ _____ _____    ______ ____
ROOT
ATOM      1  C   UNL     1       3.291   7.189  17.801  0.00  0.00    +0.000 A 
ATOM      2  N   UNL     1       2.883   8.488  17.725  0.00  0.00    +0.000 NA
ATOM      3  C   UNL     1       2.035   9.052  18.611  0.00  0.00    +0.000 A 
ATOM      4  C   UNL     1       1.663  10.399  18.485  0.00  0.00    +0.000 A 
ATOM      5  C   UNL     1       0.775  10.970  19.403  0.00  0.00    +0.000 A 
ATOM      6  C   UNL     1       0.258  10.197  20.446  0.00  0.00    +0.000 A 
ATOM      7  C   UNL     1       0.649   8.865  20.589  0.00  0.00    +0.000 A 
ATOM      8  C   UNL     1       1.552   8.288  19.673  0.00  0.00    +0.000 A 
ATOM      9  C   UNL     1       1.989   6.960  19.793  0.00  0.00    +0.000 A 
ATOM     10  O   UNL     1       1.657   6.342  20.785  0.00  0.00    +0.000 OA
ATOM     11  N   UNL     1       2.831   6.379  18.846  0.00  0.00    +0.000 N 
ENDROOT
BRANCH  11  12
ATOM     12  C   UNL     1       3.174   4.953  18.954  0.00  0.00    +0.000 A 
ATOM     13  C   UNL     1       4.359   4.569  19.617  0.00  0.00    +0.000 A 
ATOM     14  C   UNL     1       4.814   3.252  19.612  0.00  0.00    +0.000 A 
ATOM     15  C   UNL     1       4.084   2.263  18.976  0.00  0.00    +0.000 A 
ATOM     16  C   UNL     1       2.883   2.577  18.357  0.00  0.00    +0.000 A 
ATOM     17  C   UNL     1       2.395   3.900  18.329  0.00  0.00    +0.000 A 
ATOM     18  C   UNL     1       1.098   4.090  17.559  0.00  0.00    +0.000 C 
ENDBRANCH  11  12
BRANCH   1  19
ATOM     19  C   UNL     1       4.300   6.803  16.712  0.00  0.00    +0.000 C 
BRANCH  19  20
ATOM     20  S   UNL     1       6.121   6.860  16.999  0.00  0.00    +0.000 S 
BRANCH  20  23
ATOM     21  C   UNL     1       6.282   3.964  14.196  0.00  0.00    +0.000 C 
ATOM     22  N   UNL     1       6.088   5.143  15.003  0.00  0.00    +0.000 NA
ATOM     23  C   UNL     1       6.608   5.358  16.165  0.00  0.00    +0.000 C 
ATOM     24  N   UNL     1       7.459   4.405  16.815  0.00  0.00    +0.000 N 
ATOM     25  C   UNL     1       7.956   4.575  18.167  0.00  0.00    +0.000 C 
ATOM     26  H   UNL     1       7.745   3.552  16.318  0.00  0.00    +0.000 HD
ENDBRANCH  20  23
ENDBRANCH  19  20
ENDBRANCH   1  19
TORSDOF 4
ENDMDL
MODEL 3
REMARK VINA RESULT:      -7.0      2.895      5.625
REMARK  Name = 
REMARK  7 active torsions:
REMARK  status: ('A' for Active; 'I' for Inactive)
REMARK    1  A    between atoms: C_1  and  N_2
REMARK    2  A    between atoms: C_3  and  S_6
REMARK    3  A    between atoms: N_4  and  C_5
REMARK    4  A    between atoms: S_6  and  C_7
REMARK    5  A    between atoms: C_7  and  C_8
REMARK    6  A    between atoms: N_18  and  C_19
REMARK    7  A    between atoms: C_24  and  C_25
REMARK                            x       y       z     vdW  Elec       q    Type
REMARK                         _______ _______ _______ _____ _____    ______ ____
ROOT
ATOM      1  C   UNL     1       4.673   3.806  17.124  0.00  0.00    +0.000 A 
ATOM      2  N   UNL     1       3.602   2.969  17.241  0.00  0.00    +0.000 NA
ATOM      3  C   UNL     1       2.703   3.052  18.245  0.00  0.00    +0.000 A 
ATOM      4  C   UNL     1       1.614   2.169  18.303  0.00  0.00    +0.000 A 
ATOM      5  C   UNL     1       0.695   2.257  19.354  0.00  0.00    +0.000 A 
ATOM      6  C   UNL     1       0.862   3.226  20.347  0.00  0.00    +0.000 A 
ATOM      7  C   UNL     1       1.929   4.123  20.275  0.00  0.00    +0.000 A 
ATOM      8  C   UNL     1       2.852   4.045  19.212  0.00  0.00    +0.000 A 
ATOM      9  C   UNL     1       3.924   4.941  19.090  0.00  0.00    +0.000 A 
ATOM     10  O   UNL     1       3.976   5.874  19.868  0.00  0.00    +0.000 OA
ATOM     11  N   UNL     1       4.868   4.817  18.071  0.00  0.00    +0.000 N 
ENDROOT
BRANCH  11  12
ATOM     12  C   UNL     1       6.035   5.712  18.047  0.00  0.00    +0.000 A 
ATOM     13  C   UNL     1       7.088   5.508  18.964  0.00  0.00    +0.000 A 
ATOM     14  C   UNL     1       8.140   6.414  19.093  0.00  0.00    +0.000 A 
ATOM     15  C   UNL     1       8.198   7.537  18.285  0.00  0.00    +0.000 A 
ATOM     16  C   UNL     1       7.218   7.754  17.328  0.00  0.00    +0.000 A 
ATOM     17  C   UNL     1       6.131   6.869  17.175  0.00  0.00    +0.000 A 
ATOM     18  C   UNL     1       5.110   7.280  16.127  0.00  0.00    +0.000 C 
ENDBRANCH  11  12
BRANCH   1  19
ATOM     19  C   UNL     1       5.513   3.546  15.867  0.00  0.00    +0.000 C 
BRANCH  19  20
ATOM     20  S   UNL     1       4.904   3.967  14.177  0.00  0.00    +0.000 S 
BRANCH  20  23
ATOM     21  C   UNL     1       8.469   5.502  13.082  0.00  0.00    +0.000 C 
ATOM     22  N   UNL     1       7.214   5.133  13.685  0.00  0.00    +0.000 NA
ATOM     23  C   UNL     1       6.465   4.144  13.327  0.00  0.00    +0.000 C 
ATOM     24  N   UNL     1       6.803   3.278  12.236  0.00  0.00    +0.000 N 
ATOM     25  C   UNL     1       5.922   2.238  11.742  0.00  0.00    +0.000 C 
ATOM     26  H   UNL     1       7.713   3.380  11.766  0.00  0.00    +0.000 HD
ENDBRANCH  20  23
ENDBRANCH  19  20
ENDBRANCH   1  19
TORSDOF 4
ENDMDL
MODEL 4
REMARK VINA RESULT:      -7.0      0.534      1.472
REMARK  Name = 
REMARK  7 active torsions:
REMARK  status: ('A' for Active; 'I' for Inactive)
REMARK    1  A    between atoms: C_1  and  N_2
REMARK    2  A    between atoms: C_3  and  S_6
REMARK    3  A    between atoms: N_4  and  C_5
REMARK    4  A    between atoms: S_6  and  C_7
REMARK    5  A    between atoms: C_7  and  C_8
REMARK    6  A    between atoms: N_18  and  C_19
REMARK    7  A    between atoms: C_24  and  C_25
REMARK                            x       y       z     vdW  Elec       q    Type
REMARK                         _______ _______ _______ _____ _____    ______ ____
ROOT
ATOM      1  C   UNL     1       4.091   5.357  19.036  0.00  0.00    +0.000 A 
ATOM      2  N   UNL     1       3.239   5.857  19.977  0.00  0.00    +0.000 NA
ATOM      3  C   UNL     1       2.524   6.990  19.802  0.00  0.00    +0.000 A 
ATOM      4  C   UNL     1       1.655   7.446  20.803  0.00  0.00    +0.000 A 
ATOM      5  C   UNL     1       0.927   8.626  20.616  0.00  0.00    +0.000 A 
ATOM      6  C   UNL     1       1.068   9.351  19.430  0.00  0.00    +0.000 A 
ATOM      7  C   UNL     1       1.912   8.883  18.421  0.00  0.00    +0.000 A 
ATOM      8  C   UNL     1       2.638   7.689  18.601  0.00  0.00    +0.000 A 
ATOM      9  C   UNL     1       3.479   7.171  17.604  0.00  0.00    +0.000 A 
ATOM     10  O   UNL     1       3.479   7.722  16.520  0.00  0.00    +0.000 OA
ATOM     11  N   UNL     1       4.243   6.024  17.815  0.00  0.00    +0.000 N 
ENDROOT
BRANCH  11  12
ATOM     12  C   UNL     1       5.193   5.581  16.783  0.00  0.00    +0.000 A 
ATOM     13  C   UNL     1       4.783   4.638  15.817  0.00  0.00    +0.000 A 
ATOM     14  C   UNL     1       5.680   4.065  14.917  0.00  0.00    +0.000 A 
ATOM     15  C   UNL     1       7.012   4.441  14.924  0.00  0.00    +0.000 A 
ATOM     16  C   UNL     1       7.456   5.407  15.816  0.00  0.00    +0.000 A 
ATOM     17  C   UNL     1       6.582   6.000  16.750  0.00  0.00    +0.000 A 
ATOM     18  C   UNL     1       7.235   6.994  17.697  0.00  0.00    +0.000 C 
ENDBRANCH  11  12
BRANCH   1  19
ATOM     19  C   UNL     1       4.741   4.030  19.448  0.00  0.00    +0.000 C 
BRANCH  19  20
ATOM     20  S   UNL     1       3.850   2.420  19.313  0.00  0.00    +0.000 S 
BRANCH  20  23
ATOM     21  C   UNL     1       0.756   3.988  17.257  0.00  0.00    +0.000 C 
ATOM     22  N   UNL     1       1.982   3.407  17.742  0.00  0.00    +0.000 NA
ATOM     23  C   UNL     1       2.205   3.011  18.951  0.00  0.00    +0.000 C 
ATOM     24  N   UNL     1       1.225   3.124  19.990  0.00  0.00    +0.000 N 
ATOM     25  C   UNL     1       1.495   2.797  21.377  0.00  0.00    +0.000 C 
ATOM     26  H   UNL     1       0.276   3.451  19.765  0.00  0.00    +0.000 HD
ENDBRANCH  20  23
ENDBRANCH  19  20
ENDBRANCH   1  19
TORSDOF 4
ENDMDL
MODEL 5
REMARK VINA RESULT:      -6.7      2.438      6.305
REMARK  Name = 
REMARK  7 active torsions:
REMARK  status: ('A' for Active; 'I' for Inactive)
REMARK    1  A    between atoms: C_1  and  N_2
REMARK    2  A    between atoms: C_3  and  S_6
REMARK    3  A    between atoms: N_4  and  C_5
REMARK    4  A    between atoms: S_6  and  C_7
REMARK    5  A    between atoms: C_7  and  C_8
REMARK    6  A    between atoms: N_18  and  C_19
REMARK    7  A    between atoms: C_24  and  C_25
REMARK                            x       y       z     vdW  Elec       q    Type
REMARK                         _______ _______ _______ _____ _____    ______ ____
ROOT
ATOM      1  C   UNL     1       3.415   6.024  18.255  0.00  0.00    +0.000 A 
ATOM      2  N   UNL     1       4.201   6.528  17.260  0.00  0.00    +0.000 NA
ATOM      3  C   UNL     1       4.943   5.754  16.438  0.00  0.00    +0.000 A 
ATOM      4  C   UNL     1       5.722   6.333  15.425  0.00  0.00    +0.000 A 
ATOM      5  C   UNL     1       6.494   5.523  14.586  0.00  0.00    +0.000 A 
ATOM      6  C   UNL     1       6.489   4.136  14.758  0.00  0.00    +0.000 A 
ATOM      7  C   UNL     1       5.692   3.558  15.747  0.00  0.00    +0.000 A 
ATOM      8  C   UNL     1       4.904   4.369  16.588  0.00  0.00    +0.000 A 
ATOM      9  C   UNL     1       4.071   3.827  17.579  0.00  0.00    +0.000 A 
ATOM     10  O   UNL     1       3.954   2.618  17.622  0.00  0.00    +0.000 OA
ATOM     11  N   UNL     1       3.344   4.640  18.448  0.00  0.00    +0.000 N 
ENDROOT
BRANCH  11  12
ATOM     12  C   UNL     1       2.572   4.030  19.541  0.00  0.00    +0.000 A 
ATOM     13  C   UNL     1       3.134   3.953  20.833  0.00  0.00    +0.000 A 
ATOM     14  C   UNL     1       2.518   3.249  21.865  0.00  0.00    +0.000 A 
ATOM     15  C   UNL     1       1.299   2.625  21.656  0.00  0.00    +0.000 A 
ATOM     16  C   UNL     1       0.677   2.718  20.419  0.00  0.00    +0.000 A 
ATOM     17  C   UNL     1       1.274   3.411  19.346  0.00  0.00    +0.000 A 
ATOM     18  C   UNL     1       0.495   3.367  18.041  0.00  0.00    +0.000 C 
ENDBRANCH  11  12
BRANCH   1  19
ATOM     19  C   UNL     1       2.627   7.101  19.012  0.00  0.00    +0.000 C 
BRANCH  19  20
ATOM     20  S   UNL     1       1.947   8.594  18.167  0.00  0.00    +0.000 S 
BRANCH  20  23
ATOM     21  C   UNL     1       0.745   9.429  21.925  0.00  0.00    +0.000 C 
ATOM     22  N   UNL     1       1.402   9.030  20.706  0.00  0.00    +0.000 NA
ATOM     23  C   UNL     1       1.000   9.297  19.509  0.00  0.00    +0.000 C 
ATOM     24  N   UNL     1      -0.199  10.036  19.246  0.00  0.00    +0.000 N 
ATOM     25  C   UNL     1      -0.730  10.243  17.912  0.00  0.00    +0.000 C 
ATOM     26  H   UNL     1      -0.726  10.450  20.026  0.00  0.00    +0.000 HD
ENDBRANCH  20  23
ENDBRANCH  19  20
ENDBRANCH   1  19
TORSDOF 4
ENDMDL
MODEL 6
REMARK VINA RESULT:      -6.7      2.375      6.132
REMARK  Name = 
REMARK  7 active torsions:
REMARK  status: ('A' for Active; 'I' for Inactive)
REMARK    1  A    between atoms: C_1  and  N_2
REMARK    2  A    between atoms: C_3  and  S_6
REMARK    3  A    between atoms: N_4  and  C_5
REMARK    4  A    between atoms: S_6  and  C_7
REMARK    5  A    between atoms: C_7  and  C_8
REMARK    6  A    between atoms: N_18  and  C_19
REMARK    7  A    between atoms: C_24  and  C_25
REMARK                            x       y       z     vdW  Elec       q    Type
REMARK                         _______ _______ _______ _____ _____    ______ ____
ROOT
ATOM      1  C   UNL     1       3.579   5.758  18.113  0.00  0.00    +0.000 A 
ATOM      2  N   UNL     1       4.352   6.290  17.122  0.00  0.00    +0.000 NA
ATOM      3  C   UNL     1       5.027   5.539  16.226  0.00  0.00    +0.000 A 
ATOM      4  C   UNL     1       5.795   6.146  15.221  0.00  0.00    +0.000 A 
ATOM      5  C   UNL     1       6.500   5.358  14.304  0.00  0.00    +0.000 A 
ATOM      6  C   UNL     1       6.437   3.965  14.390  0.00  0.00    +0.000 A 
ATOM      7  C   UNL     1       5.650   3.360  15.371  0.00  0.00    +0.000 A 
ATOM      8  C   UNL     1       4.931   4.149  16.291  0.00  0.00    +0.000 A 
ATOM      9  C   UNL     1       4.111   3.582  17.277  0.00  0.00    +0.000 A 
ATOM     10  O   UNL     1       3.939   2.379  17.250  0.00  0.00    +0.000 OA
ATOM     11  N   UNL     1       3.453   4.368  18.222  0.00  0.00    +0.000 N 
ENDROOT
BRANCH  11  12
ATOM     12  C   UNL     1       2.693   3.724  19.305  0.00  0.00    +0.000 A 
ATOM     13  C   UNL     1       1.300   3.928  19.394  0.00  0.00    +0.000 A 
ATOM     14  C   UNL     1       0.556   3.476  20.483  0.00  0.00    +0.000 A 
ATOM     15  C   UNL     1       1.171   2.771  21.505  0.00  0.00    +0.000 A 
ATOM     16  C   UNL     1       2.529   2.496  21.438  0.00  0.00    +0.000 A 
ATOM     17  C   UNL     1       3.318   2.946  20.359  0.00  0.00    +0.000 A 
ATOM     18  C   UNL     1       4.798   2.616  20.464  0.00  0.00    +0.000 C 
ENDBRANCH  11  12
BRANCH   1  19
ATOM     19  C   UNL     1       2.869   6.818  18.965  0.00  0.00    +0.000 C 
BRANCH  19  20
ATOM     20  S   UNL     1       2.143   8.345  18.227  0.00  0.00    +0.000 S 
BRANCH  20  23
ATOM     21  C   UNL     1       1.032   8.875  22.067  0.00  0.00    +0.000 C 
ATOM     22  N   UNL     1       1.646   8.550  20.805  0.00  0.00    +0.000 NA
ATOM     23  C   UNL     1       1.272   8.985  19.648  0.00  0.00    +0.000 C 
ATOM     24  N   UNL     1       0.151   9.862  19.482  0.00  0.00    +0.000 N 
ATOM     25  C   UNL     1      -0.357  10.267  18.185  0.00  0.00    +0.000 C 
ATOM     26  H   UNL     1      -0.332  10.237  20.309  0.00  0.00    +0.000 HD
ENDBRANCH  20  23
ENDBRANCH  19  20
ENDBRANCH   1  19
TORSDOF 4
ENDMDL
MODEL 7
REMARK VINA RESULT:      -6.7      1.707      2.791
REMARK  Name = 
REMARK  7 active torsions:
REMARK  status: ('A' for Active; 'I' for Inactive)
REMARK    1  A    between atoms: C_1  and  N_2
REMARK    2  A    between atoms: C_3  and  S_6
REMARK    3  A    between atoms: N_4  and  C_5
REMARK    4  A    between atoms: S_6  and  C_7
REMARK    5  A    between atoms: C_7  and  C_8
REMARK    6  A    between atoms: N_18  and  C_19
REMARK    7  A    between atoms: C_24  and  C_25
REMARK                            x       y       z     vdW  Elec       q    Type
REMARK                         _______ _______ _______ _____ _____    ______ ____
ROOT
ATOM      1  C   UNL     1       2.179   6.551  20.270  0.00  0.00    +0.000 A 
ATOM      2  N   UNL     1       1.420   7.522  20.854  0.00  0.00    +0.000 NA
ATOM      3  C   UNL     1       1.160   8.712  20.268  0.00  0.00    +0.000 A 
ATOM      4  C   UNL     1       0.360   9.665  20.916  0.00  0.00    +0.000 A 
ATOM      5  C   UNL     1       0.106  10.898  20.305  0.00  0.00    +0.000 A 
ATOM      6  C   UNL     1       0.649  11.178  19.048  0.00  0.00    +0.000 A 
ATOM      7  C   UNL     1       1.422  10.219  18.391  0.00  0.00    +0.000 A 
ATOM      8  C   UNL     1       1.672   8.972  18.998  0.00  0.00    +0.000 A 
ATOM      9  C   UNL     1       2.423   7.972  18.363  0.00  0.00    +0.000 A 
ATOM     10  O   UNL     1       2.763   8.163  17.212  0.00  0.00    +0.000 OA
ATOM     11  N   UNL     1       2.719   6.766  18.997  0.00  0.00    +0.000 N 
ENDROOT
BRANCH  11  12
ATOM     12  C   UNL     1       3.602   5.793  18.336  0.00  0.00    +0.000 A 
ATOM     13  C   UNL     1       5.001   5.912  18.478  0.00  0.00    +0.000 A 
ATOM     14  C   UNL     1       5.887   5.120  17.750  0.00  0.00    +0.000 A 
ATOM     15  C   UNL     1       5.409   4.153  16.881  0.00  0.00    +0.000 A 
ATOM     16  C   UNL     1       4.042   3.957  16.748  0.00  0.00    +0.000 A 
ATOM     17  C   UNL     1       3.113   4.746  17.456  0.00  0.00    +0.000 A 
ATOM     18  C   UNL     1       1.654   4.449  17.153  0.00  0.00    +0.000 C 
ENDBRANCH  11  12
BRANCH   1  19
ATOM     19  C   UNL     1       2.280   5.271  21.110  0.00  0.00    +0.000 C 
BRANCH  19  20
ATOM     20  S   UNL     1       1.171   3.824  20.826  0.00  0.00    +0.000 S 
BRANCH  20  23
ATOM     21  C   UNL     1       4.700   2.003  20.118  0.00  0.00    +0.000 C 
ATOM     22  N   UNL     1       3.578   2.784  20.573  0.00  0.00    +0.000 NA
ATOM     23  C   UNL     1       2.356   2.656  20.176  0.00  0.00    +0.000 C 
ATOM     24  N   UNL     1       1.965   1.695  19.187  0.00  0.00    +0.000 N 
ATOM     25  C   UNL     1       0.624   1.616  18.641  0.00  0.00    +0.000 C 
ATOM     26  H   UNL     1       2.653   1.018  18.832  0.00  0.00    +0.000 HD
ENDBRANCH  20  23
ENDBRANCH  19  20
ENDBRANCH   1  19
TORSDOF 4
ENDMDL
MODEL 8
REMARK VINA RESULT:      -6.6      2.844      5.551
REMARK  Name = 
REMARK  7 active torsions:
REMARK  status: ('A' for Active; 'I' for Inactive)
REMARK    1  A    between atoms: C_1  and  N_2
REMARK    2  A    between atoms: C_3  and  S_6
REMARK    3  A    between atoms: N_4  and  C_5
REMARK    4  A    between atoms: S_6  and  C_7
REMARK    5  A    between atoms: C_7  and  C_8
REMARK    6  A    between atoms: N_18  and  C_19
REMARK    7  A    between atoms: C_24  and  C_25
REMARK                            x       y       z     vdW  Elec       q    Type
REMARK                         _______ _______ _______ _____ _____    ______ ____
ROOT
ATOM      1  C   UNL     1       4.760   3.737  17.183  0.00  0.00    +0.000 A 
ATOM      2  N   UNL     1       3.695   2.892  17.294  0.00  0.00    +0.000 NA
ATOM      3  C   UNL     1       2.719   3.047  18.215  0.00  0.00    +0.000 A 
ATOM      4  C   UNL     1       1.643   2.149  18.271  0.00  0.00    +0.000 A 
ATOM      5  C   UNL     1       0.643   2.313  19.236  0.00  0.00    +0.000 A 
ATOM      6  C   UNL     1       0.718   3.372  20.145  0.00  0.00    +0.000 A 
ATOM      7  C   UNL     1       1.774   4.281  20.072  0.00  0.00    +0.000 A 
ATOM      8  C   UNL     1       2.778   4.127  19.095  0.00  0.00    +0.000 A 
ATOM      9  C   UNL     1       3.844   5.031  18.973  0.00  0.00    +0.000 A 
ATOM     10  O   UNL     1       3.821   6.031  19.663  0.00  0.00    +0.000 OA
ATOM     11  N   UNL     1       4.866   4.835  18.045  0.00  0.00    +0.000 N 
ENDROOT
BRANCH  11  12
ATOM     12  C   UNL     1       6.019   5.748  18.028  0.00  0.00    +0.000 A 
ATOM     13  C   UNL     1       7.136   5.475  18.846  0.00  0.00    +0.000 A 
ATOM     14  C   UNL     1       8.185   6.383  18.990  0.00  0.00    +0.000 A 
ATOM     15  C   UNL     1       8.173   7.580  18.293  0.00  0.00    +0.000 A 
ATOM     16  C   UNL     1       7.125   7.871  17.432  0.00  0.00    +0.000 A 
ATOM     17  C   UNL     1       6.041   6.985  17.269  0.00  0.00    +0.000 A 
ATOM     18  C   UNL     1       4.944   7.478  16.338  0.00  0.00    +0.000 C 
ENDBRANCH  11  12
BRANCH   1  19
ATOM     19  C   UNL     1       5.700   3.383  16.023  0.00  0.00    +0.000 C 
BRANCH  19  20
ATOM     20  S   UNL     1       6.855   4.617  15.285  0.00  0.00    +0.000 S 
BRANCH  20  23
ATOM     21  C   UNL     1       5.186   3.108  11.938  0.00  0.00    +0.000 C 
ATOM     22  N   UNL     1       5.566   3.529  13.263  0.00  0.00    +0.000 NA
ATOM     23  C   UNL     1       6.528   4.341  13.551  0.00  0.00    +0.000 C 
ATOM     24  N   UNL     1       7.369   4.925  12.549  0.00  0.00    +0.000 N 
ATOM     25  C   UNL     1       8.526   5.743  12.858  0.00  0.00    +0.000 C 
ATOM     26  H   UNL     1       7.160   4.772  11.553  0.00  0.00    +0.000 HD
ENDBRANCH  20  23
ENDBRANCH  19  20
ENDBRANCH   1  19
TORSDOF 4
ENDMDL
MODEL 9
REMARK VINA RESULT:      -6.6      0.959      1.264
REMARK  Name = 
REMARK  7 active torsions:
REMARK  status: ('A' for Active; 'I' for Inactive)
REMARK    1  A    between atoms: C_1  and  N_2
REMARK    2  A    between atoms: C_3  and  S_6
REMARK    3  A    between atoms: N_4  and  C_5
REMARK    4  A    between atoms: S_6  and  C_7
REMARK    5  A    between atoms: C_7  and  C_8
REMARK    6  A    between atoms: N_18  and  C_19
REMARK    7  A    between atoms: C_24  and  C_25
REMARK                            x       y       z     vdW  Elec       q    Type
REMARK                         _______ _______ _______ _____ _____    ______ ____
ROOT
ATOM      1  C   UNL     1       4.056   5.506  19.052  0.00  0.00    +0.000 A 
ATOM      2  N   UNL     1       3.198   6.033  19.973  0.00  0.00    +0.000 NA
ATOM      3  C   UNL     1       2.472   7.151  19.755  0.00  0.00    +0.000 A 
ATOM      4  C   UNL     1       1.597   7.636  20.738  0.00  0.00    +0.000 A 
ATOM      5  C   UNL     1       0.857   8.801  20.506  0.00  0.00    +0.000 A 
ATOM      6  C   UNL     1       0.990   9.480  19.292  0.00  0.00    +0.000 A 
ATOM      7  C   UNL     1       1.839   8.982  18.302  0.00  0.00    +0.000 A 
ATOM      8  C   UNL     1       2.578   7.804  18.528  0.00  0.00    +0.000 A 
ATOM      9  C   UNL     1       3.425   7.257  17.551  0.00  0.00    +0.000 A 
ATOM     10  O   UNL     1       3.419   7.765  16.447  0.00  0.00    +0.000 OA
ATOM     11  N   UNL     1       4.201   6.128  17.806  0.00  0.00    +0.000 N 
ENDROOT
BRANCH  11  12
ATOM     12  C   UNL     1       5.155   5.655  16.791  0.00  0.00    +0.000 A 
ATOM     13  C   UNL     1       4.756   4.669  15.864  0.00  0.00    +0.000 A 
ATOM     14  C   UNL     1       5.659   4.072  14.987  0.00  0.00    +0.000 A 
ATOM     15  C   UNL     1       6.987   4.463  14.978  0.00  0.00    +0.000 A 
ATOM     16  C   UNL     1       7.420   5.468  15.830  0.00  0.00    +0.000 A 
ATOM     17  C   UNL     1       6.540   6.089  16.741  0.00  0.00    +0.000 A 
ATOM     18  C   UNL     1       7.181   7.127  17.648  0.00  0.00    +0.000 C 
ENDBRANCH  11  12
BRANCH   1  19
ATOM     19  C   UNL     1       4.719   4.203  19.515  0.00  0.00    +0.000 C 
BRANCH  19  20
ATOM     20  S   UNL     1       3.813   2.942  20.511  0.00  0.00    +0.000 S 
BRANCH  20  23
ATOM     21  C   UNL     1       0.158   2.657  18.831  0.00  0.00    +0.000 C 
ATOM     22  N   UNL     1       1.346   2.953  19.591  0.00  0.00    +0.000 NA
ATOM     23  C   UNL     1       2.531   2.500  19.349  0.00  0.00    +0.000 C 
ATOM     24  N   UNL     1       2.806   1.605  18.265  0.00  0.00    +0.000 N 
ATOM     25  C   UNL     1       4.103   0.992  18.048  0.00  0.00    +0.000 C 
ATOM     26  H   UNL     1       2.063   1.372  17.593  0.00  0.00    +0.000 HD
ENDBRANCH  20  23
ENDBRANCH  19  20
ENDBRANCH   1  19
TORSDOF 4
ENDMDL
