MODEL 1
REMARK VINA RESULT:      -7.3      0.000      0.000
REMARK  Name = 
REMARK  6 active torsions:
REMARK  status: ('A' for Active; 'I' for Inactive)
REMARK    1  A    between atoms: C_1  and  O_2
REMARK    2  A    between atoms: O_2  and  C_3
REMARK    3  A    between atoms: C_13  and  O_14
REMARK    4  A    between atoms: O_14  and  C_15
REMARK    5  A    between atoms: C_15  and  C_16
REMARK    6  A    between atoms: C_16  and  N_17
REMARK                            x       y       z     vdW  Elec       q    Type
REMARK                         _______ _______ _______ _____ _____    ______ ____
ROOT
ATOM      1  C   UNL     1       2.462   5.068  20.320  0.00  0.00    +0.000 A 
ATOM      2  C   UNL     1       1.726   6.097  20.929  0.00  0.00    +0.000 A 
ATOM      3  C   UNL     1       1.600   7.346  20.318  0.00  0.00    +0.000 A 
ATOM      4  C   UNL     1       0.871   8.445  20.925  0.00  0.00    +0.000 A 
ATOM      5  C   UNL     1       0.810   9.621  20.297  0.00  0.00    +0.000 A 
ATOM      6  C   UNL     1       1.455   9.856  18.990  0.00  0.00    +0.000 A 
ATOM      7  O   UNL     1       1.399  10.956  18.453  0.00  0.00    +0.000 OA
ATOM      8  O   UNL     1       2.112   8.778  18.415  0.00  0.00    +0.000 OA
ATOM      9  C   UNL     1       2.196   7.539  19.077  0.00  0.00    +0.000 A 
ATOM     10  C   UNL     1       2.903   6.522  18.436  0.00  0.00    +0.000 A 
ATOM     11  C   UNL     1       3.057   5.278  19.061  0.00  0.00    +0.000 A 
ENDROOT
BRANCH   1  13
ATOM     12  C   UNL     1       1.346   3.061  20.948  0.00  0.00    +0.000 C 
ATOM     13  O   UNL     1       2.486   3.907  21.054  0.00  0.00    +0.000 OA
ENDBRANCH   1  13
BRANCH  11  14
ATOM     14  O   UNL     1       3.721   4.233  18.473  0.00  0.00    +0.000 OA
BRANCH  14  15
ATOM     15  C   UNL     1       4.994   3.900  19.031  0.00  0.00    +0.000 C 
BRANCH  15  16
ATOM     16  C   UNL     1       5.803   5.193  19.246  0.00  0.00    +0.000 C 
BRANCH  16  17
ATOM     17  N   UNL     1       7.183   5.074  18.746  0.00  0.00    +0.000 NA
ATOM     18  C   UNL     1       7.919   6.356  18.743  0.00  0.00    +0.000 C 
ATOM     19  C   UNL     1       7.490   7.314  17.623  0.00  0.00    +0.000 C 
ATOM     20  O   UNL     1       7.658   6.701  16.342  0.00  0.00    +0.000 OA
ATOM     21  C   UNL     1       6.894   5.492  16.251  0.00  0.00    +0.000 C 
ATOM     22  C   UNL     1       7.239   4.504  17.382  0.00  0.00    +0.000 C 
ENDBRANCH  16  17
ENDBRANCH  15  16
ENDBRANCH  14  15
ENDBRANCH  11  14
TORSDOF 5
ENDMDL
MODEL 2
REMARK VINA RESULT:      -7.2      3.503      7.343
REMARK  Name = 
REMARK  6 active torsions:
REMARK  status: ('A' for Active; 'I' for Inactive)
REMARK    1  A    between atoms: C_1  and  O_2
REMARK    2  A    between atoms: O_2  and  C_3
REMARK    3  A    between atoms: C_13  and  O_14
REMARK    4  A    between atoms: O_14  and  C_15
REMARK    5  A    between atoms: C_15  and  C_16
REMARK    6  A    between atoms: C_16  and  N_17
REMARK                            x       y       z     vdW  Elec       q    Type
REMARK                         _______ _______ _______ _____ _____    ______ ____
ROOT
ATOM      1  C   UNL     1       6.893   5.486  16.578  0.00  0.00    +0.000 A 
ATOM      2  C   UNL     1       7.507   5.301  15.329  0.00  0.00    +0.000 A 
ATOM      3  C   UNL     1       6.826   4.678  14.282  0.00  0.00    +0.000 A 
ATOM      4  C   UNL     1       7.432   4.443  12.983  0.00  0.00    +0.000 A 
ATOM      5  C   UNL     1       6.732   3.820  12.032  0.00  0.00    +0.000 A 
ATOM      6  C   UNL     1       5.347   3.356  12.244  0.00  0.00    +0.000 A 
ATOM      7  O   UNL     1       4.741   2.765  11.357  0.00  0.00    +0.000 OA
ATOM      8  O   UNL     1       4.779   3.628  13.480  0.00  0.00    +0.000 OA
ATOM      9  C   UNL     1       5.514   4.270  14.495  0.00  0.00    +0.000 A 
ATOM     10  C   UNL     1       4.872   4.472  15.716  0.00  0.00    +0.000 A 
ATOM     11  C   UNL     1       5.563   5.070  16.777  0.00  0.00    +0.000 A 
ENDROOT
BRANCH   1  13
ATOM     12  C   UNL     1       7.598   7.531  17.572  0.00  0.00    +0.000 C 
ATOM     13  O   UNL     1       7.701   6.113  17.494  0.00  0.00    +0.000 OA
ENDBRANCH   1  13
BRANCH  11  14
ATOM     14  O   UNL     1       4.980   5.316  17.993  0.00  0.00    +0.000 OA
BRANCH  14  15
ATOM     15  C   UNL     1       5.136   4.300  18.986  0.00  0.00    +0.000 C 
BRANCH  15  16
ATOM     16  C   UNL     1       3.820   4.161  19.775  0.00  0.00    +0.000 C 
BRANCH  16  17
ATOM     17  N   UNL     1       3.390   2.758  19.894  0.00  0.00    +0.000 NA
ATOM     18  C   UNL     1       3.403   2.029  18.607  0.00  0.00    +0.000 C 
ATOM     19  C   UNL     1       2.248   2.408  17.669  0.00  0.00    +0.000 C 
ATOM     20  O   UNL     1       0.986   2.175  18.301  0.00  0.00    +0.000 OA
ATOM     21  C   UNL     1       0.878   2.928  19.515  0.00  0.00    +0.000 C 
ATOM     22  C   UNL     1       2.039   2.633  20.484  0.00  0.00    +0.000 C 
ENDBRANCH  16  17
ENDBRANCH  15  16
ENDBRANCH  14  15
ENDBRANCH  11  14
TORSDOF 5
ENDMDL
MODEL 3
REMARK VINA RESULT:      -7.1      3.229      7.328
REMARK  Name = 
REMARK  6 active torsions:
REMARK  status: ('A' for Active; 'I' for Inactive)
REMARK    1  A    between atoms: C_1  and  O_2
REMARK    2  A    between atoms: O_2  and  C_3
REMARK    3  A    between atoms: C_13  and  O_14
REMARK    4  A    between atoms: O_14  and  C_15
REMARK    5  A    between atoms: C_15  and  C_16
REMARK    6  A    between atoms: C_16  and  N_17
REMARK                            x       y       z     vdW  Elec       q    Type
REMARK                         _______ _______ _______ _____ _____    ______ ____
ROOT
ATOM      1  C   UNL     1       6.919   5.496  16.945  0.00  0.00    +0.000 A 
ATOM      2  C   UNL     1       7.484   5.593  15.664  0.00  0.00    +0.000 A 
ATOM      3  C   UNL     1       6.945   4.886  14.587  0.00  0.00    +0.000 A 
ATOM      4  C   UNL     1       7.514   4.936  13.252  0.00  0.00    +0.000 A 
ATOM      5  C   UNL     1       6.962   4.216  12.273  0.00  0.00    +0.000 A 
ATOM      6  C   UNL     1       5.777   3.363  12.489  0.00  0.00    +0.000 A 
ATOM      7  O   UNL     1       5.310   2.696  11.573  0.00  0.00    +0.000 OA
ATOM      8  O   UNL     1       5.230   3.364  13.764  0.00  0.00    +0.000 OA
ATOM      9  C   UNL     1       5.815   4.107  14.807  0.00  0.00    +0.000 A 
ATOM     10  C   UNL     1       5.214   4.022  16.063  0.00  0.00    +0.000 A 
ATOM     11  C   UNL     1       5.772   4.706  17.150  0.00  0.00    +0.000 A 
ENDROOT
BRANCH   1  13
ATOM     12  C   UNL     1       7.652   7.653  17.637  0.00  0.00    +0.000 C 
ATOM     13  O   UNL     1       7.571   6.254  17.886  0.00  0.00    +0.000 OA
ENDBRANCH   1  13
BRANCH  11  14
ATOM     14  O   UNL     1       5.216   4.680  18.403  0.00  0.00    +0.000 OA
BRANCH  14  15
ATOM     15  C   UNL     1       4.196   5.647  18.661  0.00  0.00    +0.000 C 
BRANCH  15  16
ATOM     16  C   UNL     1       3.292   5.134  19.798  0.00  0.00    +0.000 C 
BRANCH  16  17
ATOM     17  N   UNL     1       1.900   4.944  19.357  0.00  0.00    +0.000 NA
ATOM     18  C   UNL     1       1.085   4.160  20.309  0.00  0.00    +0.000 C 
ATOM     19  C   UNL     1       1.398   2.657  20.303  0.00  0.00    +0.000 C 
ATOM     20  O   UNL     1       1.208   2.107  18.996  0.00  0.00    +0.000 OA
ATOM     21  C   UNL     1       2.042   2.770  18.038  0.00  0.00    +0.000 C 
ATOM     22  C   UNL     1       1.815   4.294  18.030  0.00  0.00    +0.000 C 
ENDBRANCH  16  17
ENDBRANCH  15  16
ENDBRANCH  14  15
ENDBRANCH  11  14
TORSDOF 5
ENDMDL
MODEL 4
REMARK VINA RESULT:      -7.1      2.837      6.787
REMARK  Name = 
REMARK  6 active torsions:
REMARK  status: ('A' for Active; 'I' for Inactive)
REMARK    1  A    between atoms: C_1  and  O_2
REMARK    2  A    between atoms: O_2  and  C_3
REMARK    3  A    between atoms: C_13  and  O_14
REMARK    4  A    between atoms: O_14  and  C_15
REMARK    5  A    between atoms: C_15  and  C_16
REMARK    6  A    between atoms: C_16  and  N_17
REMARK                            x       y       z     vdW  Elec       q    Type
REMARK                         _______ _______ _______ _____ _____    ______ ____
ROOT
ATOM      1  C   UNL     1       2.793   5.528  18.212  0.00  0.00    +0.000 A 
ATOM      2  C   UNL     1       3.468   4.449  17.619  0.00  0.00    +0.000 A 
ATOM      3  C   UNL     1       4.568   4.662  16.786  0.00  0.00    +0.000 A 
ATOM      4  C   UNL     1       5.278   3.577  16.132  0.00  0.00    +0.000 A 
ATOM      5  C   UNL     1       6.308   3.853  15.329  0.00  0.00    +0.000 A 
ATOM      6  C   UNL     1       6.769   5.233  15.078  0.00  0.00    +0.000 A 
ATOM      7  O   UNL     1       7.703   5.453  14.316  0.00  0.00    +0.000 OA
ATOM      8  O   UNL     1       6.098   6.247  15.746  0.00  0.00    +0.000 OA
ATOM      9  C   UNL     1       5.000   5.967  16.581  0.00  0.00    +0.000 A 
ATOM     10  C   UNL     1       4.368   7.053  17.186  0.00  0.00    +0.000 A 
ATOM     11  C   UNL     1       3.245   6.844  17.997  0.00  0.00    +0.000 A 
ENDROOT
BRANCH   1  13
ATOM     12  C   UNL     1       1.447   3.750  19.043  0.00  0.00    +0.000 C 
ATOM     13  O   UNL     1       1.736   5.143  18.998  0.00  0.00    +0.000 OA
ENDBRANCH   1  13
BRANCH  11  14
ATOM     14  O   UNL     1       2.595   7.867  18.637  0.00  0.00    +0.000 OA
BRANCH  14  15
ATOM     15  C   UNL     1       1.718   8.659  17.832  0.00  0.00    +0.000 C 
BRANCH  15  16
ATOM     16  C   UNL     1       1.870  10.139  18.230  0.00  0.00    +0.000 C 
BRANCH  16  17
ATOM     17  N   UNL     1       0.605  10.715  18.719  0.00  0.00    +0.000 NA
ATOM     18  C   UNL     1       0.708  12.148  19.066  0.00  0.00    +0.000 C 
ATOM     19  C   UNL     1       1.453  12.416  20.381  0.00  0.00    +0.000 C 
ATOM     20  O   UNL     1       0.818  11.738  21.468  0.00  0.00    +0.000 OA
ATOM     21  C   UNL     1       0.767  10.327  21.230  0.00  0.00    +0.000 C 
ATOM     22  C   UNL     1       0.075   9.990  19.895  0.00  0.00    +0.000 C 
ENDBRANCH  16  17
ENDBRANCH  15  16
ENDBRANCH  14  15
ENDBRANCH  11  14
TORSDOF 5
ENDMDL
MODEL 5
REMARK VINA RESULT:      -7.1      2.337      5.916
REMARK  Name = 
REMARK  6 active torsions:
REMARK  status: ('A' for Active; 'I' for Inactive)
REMARK    1  A    between atoms: C_1  and  O_2
REMARK    2  A    between atoms: O_2  and  C_3
REMARK    3  A    between atoms: C_13  and  O_14
REMARK    4  A    between atoms: O_14  and  C_15
REMARK    5  A    between atoms: C_15  and  C_16
REMARK    6  A    between atoms: C_16  and  N_17
REMARK                            x       y       z     vdW  Elec       q    Type
REMARK                         _______ _______ _______ _____ _____    ______ ____
ROOT
ATOM      1  C   UNL     1       2.863   7.236  18.504  0.00  0.00    +0.000 A 
ATOM      2  C   UNL     1       3.732   7.305  17.404  0.00  0.00    +0.000 A 
ATOM      3  C   UNL     1       4.869   6.497  17.338  0.00  0.00    +0.000 A 
ATOM      4  C   UNL     1       5.808   6.554  16.232  0.00  0.00    +0.000 A 
ATOM      5  C   UNL     1       6.888   5.770  16.243  0.00  0.00    +0.000 A 
ATOM      6  C   UNL     1       7.171   4.828  17.344  0.00  0.00    +0.000 A 
ATOM      7  O   UNL     1       8.185   4.139  17.334  0.00  0.00    +0.000 OA
ATOM      8  O   UNL     1       6.238   4.765  18.368  0.00  0.00    +0.000 OA
ATOM      9  C   UNL     1       5.104   5.600  18.373  0.00  0.00    +0.000 A 
ATOM     10  C   UNL     1       4.238   5.489  19.460  0.00  0.00    +0.000 A 
ATOM     11  C   UNL     1       3.113   6.320  19.543  0.00  0.00    +0.000 A 
ENDROOT
BRANCH   1  13
ATOM     12  C   UNL     1       2.035   9.341  17.759  0.00  0.00    +0.000 C 
ATOM     13  O   UNL     1       1.797   8.097  18.410  0.00  0.00    +0.000 OA
ENDBRANCH   1  13
BRANCH  11  14
ATOM     14  O   UNL     1       2.213   6.244  20.574  0.00  0.00    +0.000 OA
BRANCH  14  15
ATOM     15  C   UNL     1       1.928   4.933  21.068  0.00  0.00    +0.000 C 
BRANCH  15  16
ATOM     16  C   UNL     1       0.899   4.258  20.142  0.00  0.00    +0.000 C 
BRANCH  16  17
ATOM     17  N   UNL     1       1.004   2.789  20.173  0.00  0.00    +0.000 NA
ATOM     18  C   UNL     1       2.234   2.303  20.834  0.00  0.00    +0.000 C 
ATOM     19  C   UNL     1       3.502   2.475  19.987  0.00  0.00    +0.000 C 
ATOM     20  O   UNL     1       3.370   1.796  18.736  0.00  0.00    +0.000 OA
ATOM     21  C   UNL     1       2.241   2.289  18.005  0.00  0.00    +0.000 C 
ATOM     22  C   UNL     1       0.938   2.193  18.821  0.00  0.00    +0.000 C 
ENDBRANCH  16  17
ENDBRANCH  15  16
ENDBRANCH  14  15
ENDBRANCH  11  14
TORSDOF 5
ENDMDL
MODEL 6
REMARK VINA RESULT:      -7.0      3.114      7.500
REMARK  Name = 
REMARK  6 active torsions:
REMARK  status: ('A' for Active; 'I' for Inactive)
REMARK    1  A    between atoms: C_1  and  O_2
REMARK    2  A    between atoms: O_2  and  C_3
REMARK    3  A    between atoms: C_13  and  O_14
REMARK    4  A    between atoms: O_14  and  C_15
REMARK    5  A    between atoms: C_15  and  C_16
REMARK    6  A    between atoms: C_16  and  N_17
REMARK                            x       y       z     vdW  Elec       q    Type
REMARK                         _______ _______ _______ _____ _____    ______ ____
ROOT
ATOM      1  C   UNL     1       6.946   5.474  16.504  0.00  0.00    +0.000 A 
ATOM      2  C   UNL     1       7.537   5.341  15.237  0.00  0.00    +0.000 A 
ATOM      3  C   UNL     1       6.868   4.690  14.200  0.00  0.00    +0.000 A 
ATOM      4  C   UNL     1       7.453   4.507  12.883  0.00  0.00    +0.000 A 
ATOM      5  C   UNL     1       6.767   3.854  11.942  0.00  0.00    +0.000 A 
ATOM      6  C   UNL     1       5.418   3.306  12.183  0.00  0.00    +0.000 A 
ATOM      7  O   UNL     1       4.826   2.690  11.304  0.00  0.00    +0.000 OA
ATOM      8  O   UNL     1       4.867   3.529  13.436  0.00  0.00    +0.000 OA
ATOM      9  C   UNL     1       5.589   4.202  14.440  0.00  0.00    +0.000 A 
ATOM     10  C   UNL     1       4.967   4.352  15.679  0.00  0.00    +0.000 A 
ATOM     11  C   UNL     1       5.649   4.977  16.731  0.00  0.00    +0.000 A 
ENDROOT
BRANCH   1  13
ATOM     12  C   UNL     1       7.577   7.551  17.483  0.00  0.00    +0.000 C 
ATOM     13  O   UNL     1       7.739   6.139  17.407  0.00  0.00    +0.000 OA
ENDBRANCH   1  13
BRANCH  11  14
ATOM     14  O   UNL     1       5.084   5.174  17.964  0.00  0.00    +0.000 OA
BRANCH  14  15
ATOM     15  C   UNL     1       3.922   6.005  18.001  0.00  0.00    +0.000 C 
BRANCH  15  16
ATOM     16  C   UNL     1       2.683   5.127  18.260  0.00  0.00    +0.000 C 
BRANCH  16  17
ATOM     17  N   UNL     1       3.031   3.855  18.915  0.00  0.00    +0.000 NA
ATOM     18  C   UNL     1       2.295   2.694  18.371  0.00  0.00    +0.000 C 
ATOM     19  C   UNL     1       0.825   2.632  18.808  0.00  0.00    +0.000 C 
ATOM     20  O   UNL     1       0.723   2.596  20.234  0.00  0.00    +0.000 OA
ATOM     21  C   UNL     1       1.344   3.747  20.819  0.00  0.00    +0.000 C 
ATOM     22  C   UNL     1       2.812   3.899  20.378  0.00  0.00    +0.000 C 
ENDBRANCH  16  17
ENDBRANCH  15  16
ENDBRANCH  14  15
ENDBRANCH  11  14
TORSDOF 5
ENDMDL
MODEL 7
REMARK VINA RESULT:      -6.9      1.004      1.253
REMARK  Name = 
REMARK  6 active torsions:
REMARK  status: ('A' for Active; 'I' for Inactive)
REMARK    1  A    between atoms: C_1  and  O_2
REMARK    2  A    between atoms: O_2  and  C_3
REMARK    3  A    between atoms: C_13  and  O_14
REMARK    4  A    between atoms: O_14  and  C_15
REMARK    5  A    between atoms: C_15  and  C_16
REMARK    6  A    between atoms: C_16  and  N_17
REMARK                            x       y       z     vdW  Elec       q    Type
REMARK                         _______ _______ _______ _____ _____    ______ ____
ROOT
ATOM      1  C   UNL     1       2.481   4.444  19.975  0.00  0.00    +0.000 A 
ATOM      2  C   UNL     1       2.024   5.528  20.741  0.00  0.00    +0.000 A 
ATOM      3  C   UNL     1       1.820   6.780  20.159  0.00  0.00    +0.000 A 
ATOM      4  C   UNL     1       1.374   7.935  20.919  0.00  0.00    +0.000 A 
ATOM      5  C   UNL     1       1.222   9.110  20.305  0.00  0.00    +0.000 A 
ATOM      6  C   UNL     1       1.485   9.289  18.864  0.00  0.00    +0.000 A 
ATOM      7  O   UNL     1       1.358  10.389  18.336  0.00  0.00    +0.000 OA
ATOM      8  O   UNL     1       1.872   8.163  18.154  0.00  0.00    +0.000 OA
ATOM      9  C   UNL     1       2.051   6.923  18.796  0.00  0.00    +0.000 A 
ATOM     10  C   UNL     1       2.472   5.853  18.007  0.00  0.00    +0.000 A 
ATOM     11  C   UNL     1       2.707   4.603  18.594  0.00  0.00    +0.000 A 
ENDROOT
BRANCH   1  13
ATOM     12  C   UNL     1       1.448   2.740  21.277  0.00  0.00    +0.000 C 
ATOM     13  O   UNL     1       2.628   3.288  20.701  0.00  0.00    +0.000 OA
ENDBRANCH   1  13
BRANCH  11  14
ATOM     14  O   UNL     1       3.100   3.508  17.869  0.00  0.00    +0.000 OA
BRANCH  14  15
ATOM     15  C   UNL     1       4.259   3.675  17.050  0.00  0.00    +0.000 C 
BRANCH  15  16
ATOM     16  C   UNL     1       5.451   4.075  17.941  0.00  0.00    +0.000 C 
BRANCH  16  17
ATOM     17  N   UNL     1       6.618   4.500  17.148  0.00  0.00    +0.000 NA
ATOM     18  C   UNL     1       7.834   4.712  17.962  0.00  0.00    +0.000 C 
ATOM     19  C   UNL     1       7.805   6.000  18.796  0.00  0.00    +0.000 C 
ATOM     20  O   UNL     1       7.626   7.143  17.954  0.00  0.00    +0.000 OA
ATOM     21  C   UNL     1       6.412   7.038  17.202  0.00  0.00    +0.000 C 
ATOM     22  C   UNL     1       6.353   5.736  16.379  0.00  0.00    +0.000 C 
ENDBRANCH  16  17
ENDBRANCH  15  16
ENDBRANCH  14  15
ENDBRANCH  11  14
TORSDOF 5
ENDMDL
MODEL 8
REMARK VINA RESULT:      -6.9      2.662      7.028
REMARK  Name = 
REMARK  6 active torsions:
REMARK  status: ('A' for Active; 'I' for Inactive)
REMARK    1  A    between atoms: C_1  and  O_2
REMARK    2  A    between atoms: O_2  and  C_3
REMARK    3  A    between atoms: C_13  and  O_14
REMARK    4  A    between atoms: O_14  and  C_15
REMARK    5  A    between atoms: C_15  and  C_16
REMARK    6  A    between atoms: C_16  and  N_17
REMARK                            x       y       z     vdW  Elec       q    Type
REMARK                         _______ _______ _______ _____ _____    ______ ____
ROOT
ATOM      1  C   UNL     1       2.956   6.193  19.401  0.00  0.00    +0.000 A 
ATOM      2  C   UNL     1       4.032   5.294  19.330  0.00  0.00    +0.000 A 
ATOM      3  C   UNL     1       4.987   5.398  18.318  0.00  0.00    +0.000 A 
ATOM      4  C   UNL     1       6.101   4.474  18.193  0.00  0.00    +0.000 A 
ATOM      5  C   UNL     1       6.966   4.617  17.186  0.00  0.00    +0.000 A 
ATOM      6  C   UNL     1       6.842   5.693  16.183  0.00  0.00    +0.000 A 
ATOM      7  O   UNL     1       7.641   5.780  15.257  0.00  0.00    +0.000 OA
ATOM      8  O   UNL     1       5.793   6.584  16.349  0.00  0.00    +0.000 OA
ATOM      9  C   UNL     1       4.866   6.432  17.397  0.00  0.00    +0.000 A 
ATOM     10  C   UNL     1       3.825   7.358  17.466  0.00  0.00    +0.000 A 
ATOM     11  C   UNL     1       2.849   7.237  18.463  0.00  0.00    +0.000 A 
ENDROOT
BRANCH   1  13
ATOM     12  C   UNL     1       2.093   4.619  20.966  0.00  0.00    +0.000 C 
ATOM     13  O   UNL     1       2.110   5.948  20.455  0.00  0.00    +0.000 OA
ENDBRANCH   1  13
BRANCH  11  14
ATOM     14  O   UNL     1       1.815   8.127  18.597  0.00  0.00    +0.000 OA
BRANCH  14  15
ATOM     15  C   UNL     1       1.903   9.320  17.814  0.00  0.00    +0.000 C 
BRANCH  15  16
ATOM     16  C   UNL     1       1.153  10.454  18.537  0.00  0.00    +0.000 C 
BRANCH  16  17
ATOM     17  N   UNL     1      -0.188  10.036  18.981  0.00  0.00    +0.000 NA
ATOM     18  C   UNL     1      -1.258  10.382  18.022  0.00  0.00    +0.000 C 
ATOM     19  C   UNL     1      -1.618  11.874  18.006  0.00  0.00    +0.000 C 
ATOM     20  O   UNL     1      -2.028  12.309  19.306  0.00  0.00    +0.000 OA
ATOM     21  C   UNL     1      -0.992  12.081  20.269  0.00  0.00    +0.000 C 
ATOM     22  C   UNL     1      -0.546  10.606  20.299  0.00  0.00    +0.000 C 
ENDBRANCH  16  17
ENDBRANCH  15  16
ENDBRANCH  14  15
ENDBRANCH  11  14
TORSDOF 5
ENDMDL
MODEL 9
REMARK VINA RESULT:      -6.8      2.753      6.974
REMARK  Name = 
REMARK  6 active torsions:
REMARK  status: ('A' for Active; 'I' for Inactive)
REMARK    1  A    between atoms: C_1  and  O_2
REMARK    2  A    between atoms: O_2  and  C_3
REMARK    3  A    between atoms: C_13  and  O_14
REMARK    4  A    between atoms: O_14  and  C_15
REMARK    5  A    between atoms: C_15  and  C_16
REMARK    6  A    between atoms: C_16  and  N_17
REMARK                            x       y       z     vdW  Elec       q    Type
REMARK                         _______ _______ _______ _____ _____    ______ ____
ROOT
ATOM      1  C   UNL     1       2.661   5.486  18.272  0.00  0.00    +0.000 A 
ATOM      2  C   UNL     1       3.384   4.419  17.715  0.00  0.00    +0.000 A 
ATOM      3  C   UNL     1       4.502   4.654  16.912  0.00  0.00    +0.000 A 
ATOM      4  C   UNL     1       5.262   3.581  16.294  0.00  0.00    +0.000 A 
ATOM      5  C   UNL     1       6.307   3.876  15.518  0.00  0.00    +0.000 A 
ATOM      6  C   UNL     1       6.734   5.266  15.260  0.00  0.00    +0.000 A 
ATOM      7  O   UNL     1       7.683   5.502  14.522  0.00  0.00    +0.000 OA
ATOM      8  O   UNL     1       6.014   6.268  15.893  0.00  0.00    +0.000 OA
ATOM      9  C   UNL     1       4.901   5.968  16.700  0.00  0.00    +0.000 A 
ATOM     10  C   UNL     1       4.220   7.043  17.271  0.00  0.00    +0.000 A 
ATOM     11  C   UNL     1       3.081   6.812  18.052  0.00  0.00    +0.000 A 
ENDROOT
BRANCH   1  13
ATOM     12  C   UNL     1       1.727   3.836  19.712  0.00  0.00    +0.000 C 
ATOM     13  O   UNL     1       1.593   5.081  19.034  0.00  0.00    +0.000 OA
ENDBRANCH   1  13
BRANCH  11  14
ATOM     14  O   UNL     1       2.382   7.824  18.657  0.00  0.00    +0.000 OA
BRANCH  14  15
ATOM     15  C   UNL     1       2.202   9.015  17.888  0.00  0.00    +0.000 C 
BRANCH  15  16
ATOM     16  C   UNL     1       0.843   9.645  18.247  0.00  0.00    +0.000 C 
BRANCH  16  17
ATOM     17  N   UNL     1       0.912  10.451  19.478  0.00  0.00    +0.000 NA
ATOM     18  C   UNL     1      -0.369  10.511  20.213  0.00  0.00    +0.000 C 
ATOM     19  C   UNL     1      -1.417  11.421  19.557  0.00  0.00    +0.000 C 
ATOM     20  O   UNL     1      -0.917  12.754  19.424  0.00  0.00    +0.000 OA
ATOM     21  C   UNL     1       0.283  12.772  18.641  0.00  0.00    +0.000 C 
ATOM     22  C   UNL     1       1.363  11.836  19.217  0.00  0.00    +0.000 C 
ENDBRANCH  16  17
ENDBRANCH  15  16
ENDBRANCH  14  15
ENDBRANCH  11  14
TORSDOF 5
ENDMDL
