MODEL 1
REMARK VINA RESULT:      -8.7      0.000      0.000
REMARK  Name = 
REMARK  7 active torsions:
REMARK  status: ('A' for Active; 'I' for Inactive)
REMARK    1  A    between atoms: C_7  and  C_8
REMARK    2  A    between atoms: C_10  and  O_11
REMARK    3  A    between atoms: C_12  and  C_13
REMARK    4  A    between atoms: C_13  and  O_14
REMARK    5  A    between atoms: N_17  and  C_18
REMARK    6  A    between atoms: C_18  and  C_19
REMARK    7  A    between atoms: C_18  and  C_25
REMARK                            x       y       z     vdW  Elec       q    Type
REMARK                         _______ _______ _______ _____ _____    ______ ____
ROOT
ATOM      1  O   UNL     1       1.660   8.506  18.687  0.00  0.00    +0.000 OA
ATOM      2  C   UNL     1       1.860   7.865  19.707  0.00  0.00    +0.000 C 
ATOM      3  N   UNL     1       1.538   8.229  20.989  0.00  0.00    +0.000 N 
ATOM      4  C   UNL     1       0.914   9.372  21.412  0.00  0.00    +0.000 A 
ATOM      5  N   UNL     1       0.781   9.644  22.692  0.00  0.00    +0.000 NA
ATOM      6  N   UNL     1       0.147  10.846  22.911  0.00  0.00    +0.000 NA
ATOM      7  C   UNL     1      -0.195  11.439  21.784  0.00  0.00    +0.000 A 
ATOM      8  S   UNL     1       0.237  10.541  20.376  0.00  0.00    +0.000 S 
ATOM      9  N   UNL     1       2.485   6.640  19.701  0.00  0.00    +0.000 N 
ATOM     10  H   UNL     1       1.854   7.650  21.750  0.00  0.00    +0.000 HD
ATOM     11  H   UNL     1       2.678   6.177  20.572  0.00  0.00    +0.000 HD
ENDROOT
BRANCH   7  12
ATOM     12  C   UNL     1      -0.824  12.803  21.688  0.00  0.00    +0.000 C 
ATOM     13  C   UNL     1      -1.370  13.286  23.024  0.00  0.00    +0.000 C 
ATOM     14  C   UNL     1      -2.797  12.779  23.035  0.00  0.00    +0.000 C 
ATOM     15  C   UNL     1      -3.185  12.776  21.558  0.00  0.00    +0.000 C 
ATOM     16  O   UNL     1      -1.953  12.723  20.790  0.00  0.00    +0.000 OA
BRANCH  14  17
ATOM     17  O   UNL     1      -2.858  11.475  23.607  0.00  0.00    +0.000 OA
ATOM     18  H   UNL     1      -2.625  11.521  24.559  0.00  0.00    +0.000 HD
ENDBRANCH  14  17
BRANCH  15  19
ATOM     19  C   UNL     1      -3.939  14.055  21.175  0.00  0.00    +0.000 C 
BRANCH  19  20
ATOM     20  O   UNL     1      -3.117  14.904  20.377  0.00  0.00    +0.000 OA
ATOM     21  H   UNL     1      -2.452  14.322  19.961  0.00  0.00    +0.000 HD
ENDBRANCH  19  20
ENDBRANCH  15  19
ENDBRANCH   7  12
BRANCH   9  22
ATOM     22  C   UNL     1       2.956   5.952  18.505  0.00  0.00    +0.000 C 
BRANCH  22  23
ATOM     23  C   UNL     1       4.474   6.169  18.433  0.00  0.00    +0.000 A 
ATOM     24  C   UNL     1       5.109   6.877  17.399  0.00  0.00    +0.000 A 
ATOM     25  C   UNL     1       6.492   6.798  17.212  0.00  0.00    +0.000 A 
ATOM     26  C   UNL     1       7.272   6.033  18.074  0.00  0.00    +0.000 A 
ATOM     27  C   UNL     1       6.677   5.388  19.153  0.00  0.00    +0.000 A 
ATOM     28  C   UNL     1       5.292   5.457  19.333  0.00  0.00    +0.000 A 
ENDBRANCH  22  23
BRANCH  22  29
ATOM     29  C   UNL     1       2.456   4.508  18.521  0.00  0.00    +0.000 A 
ATOM     30  C   UNL     1       1.511   4.098  19.476  0.00  0.00    +0.000 A 
ATOM     31  C   UNL     1       1.074   2.770  19.533  0.00  0.00    +0.000 A 
ATOM     32  C   UNL     1       1.571   1.829  18.631  0.00  0.00    +0.000 A 
ATOM     33  C   UNL     1       2.513   2.210  17.682  0.00  0.00    +0.000 A 
ATOM     34  C   UNL     1       2.964   3.531  17.641  0.00  0.00    +0.000 A 
ENDBRANCH  22  29
ENDBRANCH   9  22
TORSDOF 7
ENDMDL
MODEL 2
REMARK VINA RESULT:      -8.6      1.253      1.919
REMARK  Name = 
REMARK  7 active torsions:
REMARK  status: ('A' for Active; 'I' for Inactive)
REMARK    1  A    between atoms: C_7  and  C_8
REMARK    2  A    between atoms: C_10  and  O_11
REMARK    3  A    between atoms: C_12  and  C_13
REMARK    4  A    between atoms: C_13  and  O_14
REMARK    5  A    between atoms: N_17  and  C_18
REMARK    6  A    between atoms: C_18  and  C_19
REMARK    7  A    between atoms: C_18  and  C_25
REMARK                            x       y       z     vdW  Elec       q    Type
REMARK                         _______ _______ _______ _____ _____    ______ ____
ROOT
ATOM      1  O   UNL     1       1.470   7.976  18.657  0.00  0.00    +0.000 OA
ATOM      2  C   UNL     1       2.064   7.584  19.648  0.00  0.00    +0.000 C 
ATOM      3  N   UNL     1       1.937   8.056  20.930  0.00  0.00    +0.000 N 
ATOM      4  C   UNL     1       1.116   9.052  21.386  0.00  0.00    +0.000 A 
ATOM      5  N   UNL     1       1.191   9.484  22.626  0.00  0.00    +0.000 NA
ATOM      6  N   UNL     1       0.299  10.501  22.883  0.00  0.00    +0.000 NA
ATOM      7  C   UNL     1      -0.437  10.793  21.828  0.00  0.00    +0.000 A 
ATOM      8  S   UNL     1      -0.080   9.821  20.449  0.00  0.00    +0.000 S 
ATOM      9  N   UNL     1       3.001   6.578  19.601  0.00  0.00    +0.000 N 
ATOM     10  H   UNL     1       2.565   7.711  21.637  0.00  0.00    +0.000 HD
ATOM     11  H   UNL     1       3.505   6.329  20.435  0.00  0.00    +0.000 HD
ENDROOT
BRANCH   7  12
ATOM     12  C   UNL     1      -1.440  11.913  21.766  0.00  0.00    +0.000 C 
ATOM     13  C   UNL     1      -0.949  13.088  20.933  0.00  0.00    +0.000 C 
ATOM     14  C   UNL     1      -0.233  13.968  21.936  0.00  0.00    +0.000 C 
ATOM     15  C   UNL     1      -0.986  13.707  23.239  0.00  0.00    +0.000 C 
ATOM     16  O   UNL     1      -1.645  12.419  23.105  0.00  0.00    +0.000 OA
BRANCH  14  17
ATOM     17  O   UNL     1       1.141  13.602  22.029  0.00  0.00    +0.000 OA
ATOM     18  H   UNL     1       1.280  13.049  22.828  0.00  0.00    +0.000 HD
ENDBRANCH  14  17
BRANCH  15  19
ATOM     19  C   UNL     1      -2.059  14.774  23.489  0.00  0.00    +0.000 C 
BRANCH  19  20
ATOM     20  O   UNL     1      -1.944  15.303  24.808  0.00  0.00    +0.000 OA
ATOM     21  H   UNL     1      -1.255  14.774  25.252  0.00  0.00    +0.000 HD
ENDBRANCH  19  20
ENDBRANCH  15  19
ENDBRANCH   7  12
BRANCH   9  22
ATOM     22  C   UNL     1       3.380   5.849  18.396  0.00  0.00    +0.000 C 
BRANCH  22  23
ATOM     23  C   UNL     1       4.912   5.881  18.319  0.00  0.00    +0.000 A 
ATOM     24  C   UNL     1       5.751   5.297  19.283  0.00  0.00    +0.000 A 
ATOM     25  C   UNL     1       7.115   5.601  19.335  0.00  0.00    +0.000 A 
ATOM     26  C   UNL     1       7.674   6.470  18.403  0.00  0.00    +0.000 A 
ATOM     27  C   UNL     1       6.880   6.997  17.389  0.00  0.00    +0.000 A 
ATOM     28  C   UNL     1       5.514   6.704  17.346  0.00  0.00    +0.000 A 
ENDBRANCH  22  23
BRANCH  22  29
ATOM     29  C   UNL     1       2.708   4.477  18.401  0.00  0.00    +0.000 A 
ATOM     30  C   UNL     1       1.667   4.203  19.305  0.00  0.00    +0.000 A 
ATOM     31  C   UNL     1       1.070   2.939  19.352  0.00  0.00    +0.000 A 
ATOM     32  C   UNL     1       1.497   1.928  18.492  0.00  0.00    +0.000 A 
ATOM     33  C   UNL     1       2.530   2.175  17.595  0.00  0.00    +0.000 A 
ATOM     34  C   UNL     1       3.141   3.430  17.563  0.00  0.00    +0.000 A 
ENDBRANCH  22  29
ENDBRANCH   9  22
TORSDOF 7
ENDMDL
MODEL 3
REMARK VINA RESULT:      -8.6      0.636      1.085
REMARK  Name = 
REMARK  7 active torsions:
REMARK  status: ('A' for Active; 'I' for Inactive)
REMARK    1  A    between atoms: C_7  and  C_8
REMARK    2  A    between atoms: C_10  and  O_11
REMARK    3  A    between atoms: C_12  and  C_13
REMARK    4  A    between atoms: C_13  and  O_14
REMARK    5  A    between atoms: N_17  and  C_18
REMARK    6  A    between atoms: C_18  and  C_19
REMARK    7  A    between atoms: C_18  and  C_25
REMARK                            x       y       z     vdW  Elec       q    Type
REMARK                         _______ _______ _______ _____ _____    ______ ____
ROOT
ATOM      1  O   UNL     1       1.728   8.208  18.243  0.00  0.00    +0.000 OA
ATOM      2  C   UNL     1       2.102   7.739  19.306  0.00  0.00    +0.000 C 
ATOM      3  N   UNL     1       1.873   8.246  20.560  0.00  0.00    +0.000 N 
ATOM      4  C   UNL     1       1.169   9.369  20.901  0.00  0.00    +0.000 A 
ATOM      5  N   UNL     1       1.137   9.803  22.143  0.00  0.00    +0.000 NA
ATOM      6  N   UNL     1       0.397  10.956  22.278  0.00  0.00    +0.000 NA
ATOM      7  C   UNL     1      -0.123  11.349  21.131  0.00  0.00    +0.000 A 
ATOM      8  S   UNL     1       0.262  10.309  19.809  0.00  0.00    +0.000 S 
ATOM      9  N   UNL     1       2.859   6.593  19.386  0.00  0.00    +0.000 N 
ATOM     10  H   UNL     1       2.328   7.813  21.347  0.00  0.00    +0.000 HD
ATOM     11  H   UNL     1       3.190   6.278  20.281  0.00  0.00    +0.000 HD
ENDROOT
BRANCH   7  12
ATOM     12  C   UNL     1      -0.910  12.616  20.934  0.00  0.00    +0.000 C 
ATOM     13  C   UNL     1      -1.220  13.317  22.249  0.00  0.00    +0.000 C 
ATOM     14  C   UNL     1      -2.546  12.722  22.671  0.00  0.00    +0.000 C 
ATOM     15  C   UNL     1      -3.228  12.395  21.344  0.00  0.00    +0.000 C 
ATOM     16  O   UNL     1      -2.183  12.277  20.341  0.00  0.00    +0.000 OA
BRANCH  14  17
ATOM     17  O   UNL     1      -2.339  11.558  23.468  0.00  0.00    +0.000 OA
ATOM     18  H   UNL     1      -1.378  11.423  23.608  0.00  0.00    +0.000 HD
ENDBRANCH  14  17
BRANCH  15  19
ATOM     19  C   UNL     1      -4.185  13.514  20.915  0.00  0.00    +0.000 C 
BRANCH  19  20
ATOM     20  O   UNL     1      -4.391  13.487  19.505  0.00  0.00    +0.000 OA
ATOM     21  H   UNL     1      -5.318  13.757  19.362  0.00  0.00    +0.000 HD
ENDBRANCH  19  20
ENDBRANCH  15  19
ENDBRANCH   7  12
BRANCH   9  22
ATOM     22  C   UNL     1       3.281   5.794  18.242  0.00  0.00    +0.000 C 
BRANCH  22  23
ATOM     23  C   UNL     1       4.813   5.856  18.194  0.00  0.00    +0.000 A 
ATOM     24  C   UNL     1       5.645   5.290  19.175  0.00  0.00    +0.000 A 
ATOM     25  C   UNL     1       7.001   5.621  19.253  0.00  0.00    +0.000 A 
ATOM     26  C   UNL     1       7.560   6.502  18.332  0.00  0.00    +0.000 A 
ATOM     27  C   UNL     1       6.776   7.013  17.302  0.00  0.00    +0.000 A 
ATOM     28  C   UNL     1       5.417   6.692  17.233  0.00  0.00    +0.000 A 
ENDBRANCH  22  23
BRANCH  22  29
ATOM     29  C   UNL     1       2.639   4.409  18.326  0.00  0.00    +0.000 A 
ATOM     30  C   UNL     1       1.566   4.180  19.204  0.00  0.00    +0.000 A 
ATOM     31  C   UNL     1       0.995   2.909  19.325  0.00  0.00    +0.000 A 
ATOM     32  C   UNL     1       1.483   1.844  18.567  0.00  0.00    +0.000 A 
ATOM     33  C   UNL     1       2.549   2.047  17.697  0.00  0.00    +0.000 A 
ATOM     34  C   UNL     1       3.132   3.311  17.593  0.00  0.00    +0.000 A 
ENDBRANCH  22  29
ENDBRANCH   9  22
TORSDOF 7
ENDMDL
MODEL 4
REMARK VINA RESULT:      -8.5      1.165      1.838
REMARK  Name = 
REMARK  7 active torsions:
REMARK  status: ('A' for Active; 'I' for Inactive)
REMARK    1  A    between atoms: C_7  and  C_8
REMARK    2  A    between atoms: C_10  and  O_11
REMARK    3  A    between atoms: C_12  and  C_13
REMARK    4  A    between atoms: C_13  and  O_14
REMARK    5  A    between atoms: N_17  and  C_18
REMARK    6  A    between atoms: C_18  and  C_19
REMARK    7  A    between atoms: C_18  and  C_25
REMARK                            x       y       z     vdW  Elec       q    Type
REMARK                         _______ _______ _______ _____ _____    ______ ____
ROOT
ATOM      1  O   UNL     1       1.314   8.194  18.801  0.00  0.00    +0.000 OA
ATOM      2  C   UNL     1       1.842   7.744  19.805  0.00  0.00    +0.000 C 
ATOM      3  N   UNL     1       1.673   8.181  21.094  0.00  0.00    +0.000 N 
ATOM      4  C   UNL     1       0.875   9.198  21.544  0.00  0.00    +0.000 A 
ATOM      5  N   UNL     1       0.909   9.588  22.800  0.00  0.00    +0.000 NA
ATOM      6  N   UNL     1       0.050  10.635  23.049  0.00  0.00    +0.000 NA
ATOM      7  C   UNL     1      -0.621  10.994  21.970  0.00  0.00    +0.000 A 
ATOM      8  S   UNL     1      -0.239  10.049  20.578  0.00  0.00    +0.000 S 
ATOM      9  N   UNL     1       2.736   6.699  19.769  0.00  0.00    +0.000 N 
ATOM     10  H   UNL     1       2.250   7.786  21.819  0.00  0.00    +0.000 HD
ATOM     11  H   UNL     1       3.186   6.401  20.617  0.00  0.00    +0.000 HD
ENDROOT
BRANCH   7  12
ATOM     12  C   UNL     1      -1.570  12.159  21.898  0.00  0.00    +0.000 C 
ATOM     13  C   UNL     1      -1.032  13.294  21.040  0.00  0.00    +0.000 C 
ATOM     14  C   UNL     1      -0.264  14.156  22.020  0.00  0.00    +0.000 C 
ATOM     15  C   UNL     1      -1.015  13.954  23.335  0.00  0.00    +0.000 C 
ATOM     16  O   UNL     1      -1.736  12.697  23.229  0.00  0.00    +0.000 OA
BRANCH  14  17
ATOM     17  O   UNL     1       1.092  13.726  22.107  0.00  0.00    +0.000 OA
ATOM     18  H   UNL     1       1.276  13.400  23.014  0.00  0.00    +0.000 HD
ENDBRANCH  14  17
BRANCH  15  19
ATOM     19  C   UNL     1      -2.033  15.075  23.577  0.00  0.00    +0.000 C 
BRANCH  19  20
ATOM     20  O   UNL     1      -3.284  14.537  24.000  0.00  0.00    +0.000 OA
ATOM     21  H   UNL     1      -3.074  13.717  24.486  0.00  0.00    +0.000 HD
ENDBRANCH  19  20
ENDBRANCH  15  19
ENDBRANCH   7  12
BRANCH   9  22
ATOM     22  C   UNL     1       3.141   5.992  18.560  0.00  0.00    +0.000 C 
BRANCH  22  23
ATOM     23  C   UNL     1       4.660   6.165  18.429  0.00  0.00    +0.000 A 
ATOM     24  C   UNL     1       5.280   6.789  17.334  0.00  0.00    +0.000 A 
ATOM     25  C   UNL     1       6.654   6.662  17.111  0.00  0.00    +0.000 A 
ATOM     26  C   UNL     1       7.442   5.934  17.997  0.00  0.00    +0.000 A 
ATOM     27  C   UNL     1       6.865   5.374  19.133  0.00  0.00    +0.000 A 
ATOM     28  C   UNL     1       5.489   5.490  19.348  0.00  0.00    +0.000 A 
ENDBRANCH  22  23
BRANCH  22  29
ATOM     29  C   UNL     1       2.600   4.564  18.602  0.00  0.00    +0.000 A 
ATOM     30  C   UNL     1       2.984   3.634  17.621  0.00  0.00    +0.000 A 
ATOM     31  C   UNL     1       2.465   2.335  17.620  0.00  0.00    +0.000 A 
ATOM     32  C   UNL     1       1.558   1.939  18.603  0.00  0.00    +0.000 A 
ATOM     33  C   UNL     1       1.158   2.845  19.579  0.00  0.00    +0.000 A 
ATOM     34  C   UNL     1       1.660   4.149  19.567  0.00  0.00    +0.000 A 
ENDBRANCH  22  29
ENDBRANCH   9  22
TORSDOF 7
ENDMDL
MODEL 5
REMARK VINA RESULT:      -8.3      1.674      2.574
REMARK  Name = 
REMARK  7 active torsions:
REMARK  status: ('A' for Active; 'I' for Inactive)
REMARK    1  A    between atoms: C_7  and  C_8
REMARK    2  A    between atoms: C_10  and  O_11
REMARK    3  A    between atoms: C_12  and  C_13
REMARK    4  A    between atoms: C_13  and  O_14
REMARK    5  A    between atoms: N_17  and  C_18
REMARK    6  A    between atoms: C_18  and  C_19
REMARK    7  A    between atoms: C_18  and  C_25
REMARK                            x       y       z     vdW  Elec       q    Type
REMARK                         _______ _______ _______ _____ _____    ______ ____
ROOT
ATOM      1  O   UNL     1       1.667   8.078  17.967  0.00  0.00    +0.000 OA
ATOM      2  C   UNL     1       2.107   7.762  19.061  0.00  0.00    +0.000 C 
ATOM      3  N   UNL     1       1.878   8.390  20.258  0.00  0.00    +0.000 N 
ATOM      4  C   UNL     1       1.103   9.493  20.499  0.00  0.00    +0.000 A 
ATOM      5  N   UNL     1       1.076  10.062  21.685  0.00  0.00    +0.000 NA
ATOM      6  N   UNL     1       0.255  11.166  21.719  0.00  0.00    +0.000 NA
ATOM      7  C   UNL     1      -0.327  11.388  20.556  0.00  0.00    +0.000 A 
ATOM      8  S   UNL     1       0.095  10.234  19.345  0.00  0.00    +0.000 S 
ATOM      9  N   UNL     1       2.950   6.689  19.239  0.00  0.00    +0.000 N 
ATOM     10  H   UNL     1       2.388   8.084  21.071  0.00  0.00    +0.000 HD
ATOM     11  H   UNL     1       3.330   6.502  20.150  0.00  0.00    +0.000 HD
ENDROOT
BRANCH   7  12
ATOM     12  C   UNL     1      -1.212  12.566  20.250  0.00  0.00    +0.000 C 
ATOM     13  C   UNL     1      -1.304  12.852  18.758  0.00  0.00    +0.000 C 
ATOM     14  C   UNL     1      -0.164  13.816  18.505  0.00  0.00    +0.000 C 
ATOM     15  C   UNL     1      -0.041  14.576  19.824  0.00  0.00    +0.000 C 
ATOM     16  O   UNL     1      -0.633  13.743  20.857  0.00  0.00    +0.000 OA
BRANCH  14  17
ATOM     17  O   UNL     1       1.029  13.105  18.184  0.00  0.00    +0.000 OA
ATOM     18  H   UNL     1       0.851  12.140  18.201  0.00  0.00    +0.000 HD
ENDBRANCH  14  17
BRANCH  15  19
ATOM     19  C   UNL     1      -0.805  15.905  19.779  0.00  0.00    +0.000 C 
BRANCH  19  20
ATOM     20  O   UNL     1      -0.879  16.398  18.444  0.00  0.00    +0.000 OA
ATOM     21  H   UNL     1       0.036  16.620  18.187  0.00  0.00    +0.000 HD
ENDBRANCH  19  20
ENDBRANCH  15  19
ENDBRANCH   7  12
BRANCH   9  22
ATOM     22  C   UNL     1       3.396   5.796  18.175  0.00  0.00    +0.000 C 
BRANCH  22  23
ATOM     23  C   UNL     1       4.929   5.843  18.167  0.00  0.00    +0.000 A 
ATOM     24  C   UNL     1       5.729   5.291  19.182  0.00  0.00    +0.000 A 
ATOM     25  C   UNL     1       7.086   5.610  19.289  0.00  0.00    +0.000 A 
ATOM     26  C   UNL     1       7.678   6.465  18.365  0.00  0.00    +0.000 A 
ATOM     27  C   UNL     1       6.927   6.961  17.304  0.00  0.00    +0.000 A 
ATOM     28  C   UNL     1       5.567   6.651  17.205  0.00  0.00    +0.000 A 
ENDBRANCH  22  23
BRANCH  22  29
ATOM     29  C   UNL     1       2.738   4.428  18.352  0.00  0.00    +0.000 A 
ATOM     30  C   UNL     1       3.172   3.332  17.587  0.00  0.00    +0.000 A 
ATOM     31  C   UNL     1       2.552   2.083  17.705  0.00  0.00    +0.000 A 
ATOM     32  C   UNL     1       1.493   1.906  18.595  0.00  0.00    +0.000 A 
ATOM     33  C   UNL     1       1.043   2.979  19.356  0.00  0.00    +0.000 A 
ATOM     34  C   UNL     1       1.647   4.230  19.222  0.00  0.00    +0.000 A 
ENDBRANCH  22  29
ENDBRANCH   9  22
TORSDOF 7
ENDMDL
MODEL 6
REMARK VINA RESULT:      -8.2      1.723      2.346
REMARK  Name = 
REMARK  7 active torsions:
REMARK  status: ('A' for Active; 'I' for Inactive)
REMARK    1  A    between atoms: C_7  and  C_8
REMARK    2  A    between atoms: C_10  and  O_11
REMARK    3  A    between atoms: C_12  and  C_13
REMARK    4  A    between atoms: C_13  and  O_14
REMARK    5  A    between atoms: N_17  and  C_18
REMARK    6  A    between atoms: C_18  and  C_19
REMARK    7  A    between atoms: C_18  and  C_25
REMARK                            x       y       z     vdW  Elec       q    Type
REMARK                         _______ _______ _______ _____ _____    ______ ____
ROOT
ATOM      1  O   UNL     1       1.781   8.164  17.530  0.00  0.00    +0.000 OA
ATOM      2  C   UNL     1       2.099   7.877  18.673  0.00  0.00    +0.000 C 
ATOM      3  N   UNL     1       1.784   8.566  19.816  0.00  0.00    +0.000 N 
ATOM      4  C   UNL     1       1.040   9.709  19.937  0.00  0.00    +0.000 A 
ATOM      5  N   UNL     1       0.924  10.329  21.090  0.00  0.00    +0.000 NA
ATOM      6  N   UNL     1       0.155  11.467  21.000  0.00  0.00    +0.000 NA
ATOM      7  C   UNL     1      -0.301  11.662  19.778  0.00  0.00    +0.000 A 
ATOM      8  S   UNL     1       0.183  10.441  18.660  0.00  0.00    +0.000 S 
ATOM      9  N   UNL     1       2.871   6.779  18.975  0.00  0.00    +0.000 N 
ATOM     10  H   UNL     1       2.198   8.274  20.687  0.00  0.00    +0.000 HD
ATOM     11  H   UNL     1       3.152   6.616  19.926  0.00  0.00    +0.000 HD
ENDROOT
BRANCH   7  12
ATOM     12  C   UNL     1      -1.098  12.861  19.340  0.00  0.00    +0.000 C 
ATOM     13  C   UNL     1      -0.285  13.816  18.479  0.00  0.00    +0.000 C 
ATOM     14  C   UNL     1       0.337  14.766  19.481  0.00  0.00    +0.000 C 
ATOM     15  C   UNL     1      -0.691  14.814  20.610  0.00  0.00    +0.000 C 
ATOM     16  O   UNL     1      -1.490  13.604  20.516  0.00  0.00    +0.000 OA
BRANCH  14  17
ATOM     17  O   UNL     1       1.596  14.269  19.925  0.00  0.00    +0.000 OA
ATOM     18  H   UNL     1       2.155  14.048  19.149  0.00  0.00    +0.000 HD
ENDBRANCH  14  17
BRANCH  15  19
ATOM     19  C   UNL     1      -1.625  16.022  20.467  0.00  0.00    +0.000 C 
BRANCH  19  20
ATOM     20  O   UNL     1      -2.971  15.596  20.267  0.00  0.00    +0.000 OA
ATOM     21  H   UNL     1      -3.123  15.624  19.303  0.00  0.00    +0.000 HD
ENDBRANCH  19  20
ENDBRANCH  15  19
ENDBRANCH   7  12
BRANCH   9  22
ATOM     22  C   UNL     1       3.377   5.823  17.997  0.00  0.00    +0.000 C 
BRANCH  22  23
ATOM     23  C   UNL     1       4.908   5.856  18.091  0.00  0.00    +0.000 A 
ATOM     24  C   UNL     1       5.634   5.278  19.146  0.00  0.00    +0.000 A 
ATOM     25  C   UNL     1       6.983   5.583  19.348  0.00  0.00    +0.000 A 
ATOM     26  C   UNL     1       7.642   6.449  18.481  0.00  0.00    +0.000 A 
ATOM     27  C   UNL     1       6.967   6.971  17.382  0.00  0.00    +0.000 A 
ATOM     28  C   UNL     1       5.614   6.676  17.188  0.00  0.00    +0.000 A 
ENDBRANCH  22  23
BRANCH  22  29
ATOM     29  C   UNL     1       2.692   4.473  18.205  0.00  0.00    +0.000 A 
ATOM     30  C   UNL     1       1.694   4.331  19.185  0.00  0.00    +0.000 A 
ATOM     31  C   UNL     1       1.088   3.092  19.418  0.00  0.00    +0.000 A 
ATOM     32  C   UNL     1       1.462   1.975  18.673  0.00  0.00    +0.000 A 
ATOM     33  C   UNL     1       2.452   2.091  17.703  0.00  0.00    +0.000 A 
ATOM     34  C   UNL     1       3.073   3.323  17.486  0.00  0.00    +0.000 A 
ENDBRANCH  22  29
ENDBRANCH   9  22
TORSDOF 7
ENDMDL
MODEL 7
REMARK VINA RESULT:      -8.1      1.403      1.880
REMARK  Name = 
REMARK  7 active torsions:
REMARK  status: ('A' for Active; 'I' for Inactive)
REMARK    1  A    between atoms: C_7  and  C_8
REMARK    2  A    between atoms: C_10  and  O_11
REMARK    3  A    between atoms: C_12  and  C_13
REMARK    4  A    between atoms: C_13  and  O_14
REMARK    5  A    between atoms: N_17  and  C_18
REMARK    6  A    between atoms: C_18  and  C_19
REMARK    7  A    between atoms: C_18  and  C_25
REMARK                            x       y       z     vdW  Elec       q    Type
REMARK                         _______ _______ _______ _____ _____    ______ ____
ROOT
ATOM      1  O   UNL     1       1.701   8.660  18.161  0.00  0.00    +0.000 OA
ATOM      2  C   UNL     1       1.852   8.121  19.246  0.00  0.00    +0.000 C 
ATOM      3  N   UNL     1       1.509   8.624  20.475  0.00  0.00    +0.000 N 
ATOM      4  C   UNL     1       0.915   9.824  20.761  0.00  0.00    +0.000 A 
ATOM      5  N   UNL     1       0.758  10.230  22.002  0.00  0.00    +0.000 NA
ATOM      6  N   UNL     1       0.162  11.468  22.080  0.00  0.00    +0.000 NA
ATOM      7  C   UNL     1      -0.129  11.954  20.888  0.00  0.00    +0.000 A 
ATOM      8  S   UNL     1       0.307  10.903  19.592  0.00  0.00    +0.000 S 
ATOM      9  N   UNL     1       2.433   6.882  19.383  0.00  0.00    +0.000 N 
ATOM     10  H   UNL     1       1.784   8.117  21.300  0.00  0.00    +0.000 HD
ATOM     11  H   UNL     1       2.586   6.504  20.302  0.00  0.00    +0.000 HD
ENDROOT
BRANCH   7  12
ATOM     12  C   UNL     1      -0.707  13.320  20.636  0.00  0.00    +0.000 C 
ATOM     13  C   UNL     1       0.348  14.326  20.201  0.00  0.00    +0.000 C 
ATOM     14  C   UNL     1       0.837  14.923  21.504  0.00  0.00    +0.000 C 
ATOM     15  C   UNL     1      -0.390  14.851  22.411  0.00  0.00    +0.000 C 
ATOM     16  O   UNL     1      -1.260  13.818  21.875  0.00  0.00    +0.000 OA
BRANCH  14  17
ATOM     17  O   UNL     1       1.929  14.167  22.020  0.00  0.00    +0.000 OA
ATOM     18  H   UNL     1       2.483  13.841  21.279  0.00  0.00    +0.000 HD
ENDBRANCH  14  17
BRANCH  15  19
ATOM     19  C   UNL     1      -1.161  16.176  22.417  0.00  0.00    +0.000 C 
BRANCH  19  20
ATOM     20  O   UNL     1      -2.508  15.977  21.993  0.00  0.00    +0.000 OA
ATOM     21  H   UNL     1      -3.067  16.192  22.764  0.00  0.00    +0.000 HD
ENDBRANCH  19  20
ENDBRANCH  15  19
ENDBRANCH   7  12
BRANCH   9  22
ATOM     22  C   UNL     1       2.911   6.060  18.278  0.00  0.00    +0.000 C 
BRANCH  22  23
ATOM     23  C   UNL     1       4.438   6.202  18.243  0.00  0.00    +0.000 A 
ATOM     24  C   UNL     1       5.138   6.810  17.188  0.00  0.00    +0.000 A 
ATOM     25  C   UNL     1       6.522   6.655  17.053  0.00  0.00    +0.000 A 
ATOM     26  C   UNL     1       7.237   5.914  17.988  0.00  0.00    +0.000 A 
ATOM     27  C   UNL     1       6.579   5.369  19.086  0.00  0.00    +0.000 A 
ATOM     28  C   UNL     1       5.194   5.513  19.214  0.00  0.00    +0.000 A 
ENDBRANCH  22  23
BRANCH  22  29
ATOM     29  C   UNL     1       2.342   4.648  18.413  0.00  0.00    +0.000 A 
ATOM     30  C   UNL     1       1.441   4.346  19.448  0.00  0.00    +0.000 A 
ATOM     31  C   UNL     1       0.944   3.048  19.613  0.00  0.00    +0.000 A 
ATOM     32  C   UNL     1       1.334   2.031  18.742  0.00  0.00    +0.000 A 
ATOM     33  C   UNL     1       2.231   2.306  17.715  0.00  0.00    +0.000 A 
ATOM     34  C   UNL     1       2.743   3.596  17.565  0.00  0.00    +0.000 A 
ENDBRANCH  22  29
ENDBRANCH   9  22
TORSDOF 7
ENDMDL
MODEL 8
REMARK VINA RESULT:      -8.1      1.923      4.037
REMARK  Name = 
REMARK  7 active torsions:
REMARK  status: ('A' for Active; 'I' for Inactive)
REMARK    1  A    between atoms: C_7  and  C_8
REMARK    2  A    between atoms: C_10  and  O_11
REMARK    3  A    between atoms: C_12  and  C_13
REMARK    4  A    between atoms: C_13  and  O_14
REMARK    5  A    between atoms: N_17  and  C_18
REMARK    6  A    between atoms: C_18  and  C_19
REMARK    7  A    between atoms: C_18  and  C_25
REMARK                            x       y       z     vdW  Elec       q    Type
REMARK                         _______ _______ _______ _____ _____    ______ ____
ROOT
ATOM      1  O   UNL     1       1.731   7.926  20.868  0.00  0.00    +0.000 OA
ATOM      2  C   UNL     1       1.795   8.111  19.663  0.00  0.00    +0.000 C 
ATOM      3  N   UNL     1       1.187   9.109  18.946  0.00  0.00    +0.000 N 
ATOM      4  C   UNL     1       0.391  10.121  19.413  0.00  0.00    +0.000 A 
ATOM      5  N   UNL     1      -0.228  10.938  18.589  0.00  0.00    +0.000 NA
ATOM      6  N   UNL     1      -0.994  11.871  19.250  0.00  0.00    +0.000 NA
ATOM      7  C   UNL     1      -0.916  11.738  20.561  0.00  0.00    +0.000 A 
ATOM      8  S   UNL     1       0.121  10.454  21.061  0.00  0.00    +0.000 S 
ATOM      9  N   UNL     1       2.507   7.286  18.823  0.00  0.00    +0.000 N 
ATOM     10  H   UNL     1       1.240   9.084  17.941  0.00  0.00    +0.000 HD
ATOM     11  H   UNL     1       2.484   7.448  17.831  0.00  0.00    +0.000 HD
ENDROOT
BRANCH   7  12
ATOM     12  C   UNL     1      -1.703  12.549  21.554  0.00  0.00    +0.000 C 
ATOM     13  C   UNL     1      -2.610  13.570  20.882  0.00  0.00    +0.000 C 
ATOM     14  C   UNL     1      -1.741  14.805  20.768  0.00  0.00    +0.000 C 
ATOM     15  C   UNL     1      -0.811  14.698  21.976  0.00  0.00    +0.000 C 
ATOM     16  O   UNL     1      -0.775  13.300  22.369  0.00  0.00    +0.000 OA
BRANCH  14  17
ATOM     17  O   UNL     1      -1.022  14.797  19.538  0.00  0.00    +0.000 OA
ATOM     18  H   UNL     1      -1.650  14.889  18.790  0.00  0.00    +0.000 HD
ENDBRANCH  14  17
BRANCH  15  19
ATOM     19  C   UNL     1      -1.336  15.519  23.161  0.00  0.00    +0.000 C 
BRANCH  19  20
ATOM     20  O   UNL     1      -0.715  15.103  24.375  0.00  0.00    +0.000 OA
ATOM     21  H   UNL     1      -1.323  15.365  25.092  0.00  0.00    +0.000 HD
ENDBRANCH  19  20
ENDBRANCH  15  19
ENDBRANCH   7  12
BRANCH   9  22
ATOM     22  C   UNL     1       3.280   6.128  19.254  0.00  0.00    +0.000 C 
BRANCH  22  23
ATOM     23  C   UNL     1       2.286   4.977  19.456  0.00  0.00    +0.000 A 
ATOM     24  C   UNL     1       1.985   4.421  20.711  0.00  0.00    +0.000 A 
ATOM     25  C   UNL     1       1.314   3.199  20.820  0.00  0.00    +0.000 A 
ATOM     26  C   UNL     1       0.903   2.523  19.675  0.00  0.00    +0.000 A 
ATOM     27  C   UNL     1       1.118   3.092  18.424  0.00  0.00    +0.000 A 
ATOM     28  C   UNL     1       1.800   4.307  18.315  0.00  0.00    +0.000 A 
ENDBRANCH  22  23
BRANCH  22  29
ATOM     29  C   UNL     1       4.431   5.894  18.276  0.00  0.00    +0.000 A 
ATOM     30  C   UNL     1       4.442   6.542  17.029  0.00  0.00    +0.000 A 
ATOM     31  C   UNL     1       5.465   6.306  16.105  0.00  0.00    +0.000 A 
ATOM     32  C   UNL     1       6.499   5.422  16.412  0.00  0.00    +0.000 A 
ATOM     33  C   UNL     1       6.504   4.764  17.636  0.00  0.00    +0.000 A 
ATOM     34  C   UNL     1       5.471   4.983  18.550  0.00  0.00    +0.000 A 
ENDBRANCH  22  29
ENDBRANCH   9  22
TORSDOF 7
ENDMDL
MODEL 9
REMARK VINA RESULT:      -8.1      1.950      4.029
REMARK  Name = 
REMARK  7 active torsions:
REMARK  status: ('A' for Active; 'I' for Inactive)
REMARK    1  A    between atoms: C_7  and  C_8
REMARK    2  A    between atoms: C_10  and  O_11
REMARK    3  A    between atoms: C_12  and  C_13
REMARK    4  A    between atoms: C_13  and  O_14
REMARK    5  A    between atoms: N_17  and  C_18
REMARK    6  A    between atoms: C_18  and  C_19
REMARK    7  A    between atoms: C_18  and  C_25
REMARK                            x       y       z     vdW  Elec       q    Type
REMARK                         _______ _______ _______ _____ _____    ______ ____
ROOT
ATOM      1  O   UNL     1       2.172   7.557  20.577  0.00  0.00    +0.000 OA
ATOM      2  C   UNL     1       2.191   7.693  19.364  0.00  0.00    +0.000 C 
ATOM      3  N   UNL     1       1.516   8.631  18.626  0.00  0.00    +0.000 N 
ATOM      4  C   UNL     1       0.691   9.627  19.076  0.00  0.00    +0.000 A 
ATOM      5  N   UNL     1       0.010  10.379  18.239  0.00  0.00    +0.000 NA
ATOM      6  N   UNL     1      -0.777  11.306  18.885  0.00  0.00    +0.000 NA
ATOM      7  C   UNL     1      -0.652  11.233  20.197  0.00  0.00    +0.000 A 
ATOM      8  S   UNL     1       0.457  10.018  20.716  0.00  0.00    +0.000 S 
ATOM      9  N   UNL     1       2.913   6.865  18.536  0.00  0.00    +0.000 N 
ATOM     10  H   UNL     1       1.540   8.566  17.621  0.00  0.00    +0.000 HD
ATOM     11  H   UNL     1       2.852   6.982  17.540  0.00  0.00    +0.000 HD
ENDROOT
BRANCH   7  12
ATOM     12  C   UNL     1      -1.444  12.051  21.180  0.00  0.00    +0.000 C 
ATOM     13  C   UNL     1      -2.383  13.034  20.496  0.00  0.00    +0.000 C 
ATOM     14  C   UNL     1      -1.544  14.285  20.339  0.00  0.00    +0.000 C 
ATOM     15  C   UNL     1      -0.596  14.231  21.535  0.00  0.00    +0.000 C 
ATOM     16  O   UNL     1      -0.522  12.844  21.963  0.00  0.00    +0.000 OA
BRANCH  14  17
ATOM     17  O   UNL     1      -0.842  14.262  19.099  0.00  0.00    +0.000 OA
ATOM     18  H   UNL     1      -0.827  15.164  18.712  0.00  0.00    +0.000 HD
ENDBRANCH  14  17
BRANCH  15  19
ATOM     19  C   UNL     1      -1.123  15.069  22.706  0.00  0.00    +0.000 C 
BRANCH  19  20
ATOM     20  O   UNL     1      -0.760  14.478  23.952  0.00  0.00    +0.000 OA
ATOM     21  H   UNL     1      -1.599  14.260  24.401  0.00  0.00    +0.000 HD
ENDBRANCH  19  20
ENDBRANCH  15  19
ENDBRANCH   7  12
BRANCH   9  22
ATOM     22  C   UNL     1       3.751   5.760  18.990  0.00  0.00    +0.000 C 
BRANCH  22  23
ATOM     23  C   UNL     1       2.820   4.565  19.233  0.00  0.00    +0.000 A 
ATOM     24  C   UNL     1       2.079   3.938  18.218  0.00  0.00    +0.000 A 
ATOM     25  C   UNL     1       1.033   3.061  18.522  0.00  0.00    +0.000 A 
ATOM     26  C   UNL     1       0.726   2.771  19.847  0.00  0.00    +0.000 A 
ATOM     27  C   UNL     1       1.497   3.316  20.869  0.00  0.00    +0.000 A 
ATOM     28  C   UNL     1       2.535   4.203  20.565  0.00  0.00    +0.000 A 
ENDBRANCH  22  23
BRANCH  22  29
ATOM     29  C   UNL     1       4.903   5.561  18.006  0.00  0.00    +0.000 A 
ATOM     30  C   UNL     1       4.752   5.925  16.657  0.00  0.00    +0.000 A 
ATOM     31  C   UNL     1       5.781   5.709  15.735  0.00  0.00    +0.000 A 
ATOM     32  C   UNL     1       6.982   5.131  16.145  0.00  0.00    +0.000 A 
ATOM     33  C   UNL     1       7.151   4.757  17.473  0.00  0.00    +0.000 A 
ATOM     34  C   UNL     1       6.115   4.952  18.389  0.00  0.00    +0.000 A 
ENDBRANCH  22  29
ENDBRANCH   9  22
TORSDOF 7
ENDMDL
