MODEL 1
REMARK VINA RESULT:      -8.0      0.000      0.000
REMARK  Name = 
REMARK  6 active torsions:
REMARK  status: ('A' for Active; 'I' for Inactive)
REMARK    1  A    between atoms: C_1  and  C_2
REMARK    2  A    between atoms: C_2  and  C_3
REMARK    3  A    between atoms: C_4  and  C_5
REMARK    4  A    between atoms: N_7  and  O_8
REMARK    5  A    between atoms: C_9  and  C_10
REMARK    6  A    between atoms: C_10  and  C_11
REMARK                            x       y       z     vdW  Elec       q    Type
REMARK                         _______ _______ _______ _____ _____    ______ ____
ROOT
ATOM      1  C   UNL     1       5.608   5.911  17.626  0.00  0.00    +0.000 C 
ATOM      2  C   UNL     1       6.071   5.189  18.907  0.00  0.00    +0.000 C 
ATOM      3  C   UNL     1       5.741   5.056  16.348  0.00  0.00    +0.000 C 
ATOM      4  C   UNL     1       5.104   3.678  16.507  0.00  0.00    +0.000 C 
ATOM      5  C   UNL     1       3.753   3.727  17.173  0.00  0.00    +0.000 A 
ATOM      6  C   UNL     1       3.022   2.539  17.302  0.00  0.00    +0.000 A 
ATOM      7  C   UNL     1       1.804   2.528  17.984  0.00  0.00    +0.000 A 
ATOM      8  C   UNL     1       1.291   3.707  18.523  0.00  0.00    +0.000 A 
ATOM      9  C   UNL     1       2.004   4.900  18.401  0.00  0.00    +0.000 A 
ATOM     10  C   UNL     1       3.242   4.906  17.750  0.00  0.00    +0.000 A 
ATOM     11  C   UNL     1       4.085   6.140  17.797  0.00  0.00    +0.000 C 
ATOM     12  O   UNL     1       3.569   7.232  18.025  0.00  0.00    +0.000 OA
ENDROOT
BRANCH   1  15
ATOM     13  C   UNL     1       8.385   6.942  18.823  0.00  0.00    +0.000 C 
ATOM     14  C   UNL     1       7.481   7.715  17.893  0.00  0.00    +0.000 C 
ATOM     15  C   UNL     1       6.328   7.236  17.369  0.00  0.00    +0.000 C 
BRANCH  14  16
ATOM     16  C   UNL     1       8.002   9.035  17.540  0.00  0.00    +0.000 C 
ATOM     17  C   UNL     1       8.751   9.803  18.347  0.00  0.00    +0.000 C 
BRANCH  17  18
ATOM     18  C   UNL     1       9.262  11.117  17.894  0.00  0.00    +0.000 C 
ATOM     19  O   UNL     1       8.565  12.117  17.768  0.00  0.00    +0.000 OA
ATOM     20  N   UNL     1      10.606  11.097  17.633  0.00  0.00    +0.000 N 
ATOM     21  H   UNL     1      11.214  10.293  17.729  0.00  0.00    +0.000 HD
BRANCH  20  22
ATOM     22  O   UNL     1      11.194  12.296  17.182  0.00  0.00    +0.000 OA
ATOM     23  H   UNL     1      11.455  12.066  16.262  0.00  0.00    +0.000 HD
ENDBRANCH  20  22
ENDBRANCH  17  18
ENDBRANCH  14  16
ENDBRANCH   1  15
TORSDOF 4
ENDMDL
MODEL 2
REMARK VINA RESULT:      -7.9      4.200      6.032
REMARK  Name = 
REMARK  6 active torsions:
REMARK  status: ('A' for Active; 'I' for Inactive)
REMARK    1  A    between atoms: C_1  and  C_2
REMARK    2  A    between atoms: C_2  and  C_3
REMARK    3  A    between atoms: C_4  and  C_5
REMARK    4  A    between atoms: N_7  and  O_8
REMARK    5  A    between atoms: C_9  and  C_10
REMARK    6  A    between atoms: C_10  and  C_11
REMARK                            x       y       z     vdW  Elec       q    Type
REMARK                         _______ _______ _______ _____ _____    ______ ____
ROOT
ATOM      1  C   UNL     1       4.381   4.754  17.893  0.00  0.00    +0.000 C 
ATOM      2  C   UNL     1       5.348   4.944  19.079  0.00  0.00    +0.000 C 
ATOM      3  C   UNL     1       3.258   3.732  18.165  0.00  0.00    +0.000 C 
ATOM      4  C   UNL     1       2.529   4.010  19.477  0.00  0.00    +0.000 C 
ATOM      5  C   UNL     1       2.204   5.469  19.672  0.00  0.00    +0.000 A 
ATOM      6  C   UNL     1       1.459   5.849  20.796  0.00  0.00    +0.000 A 
ATOM      7  C   UNL     1       1.206   7.196  21.055  0.00  0.00    +0.000 A 
ATOM      8  C   UNL     1       1.673   8.179  20.182  0.00  0.00    +0.000 A 
ATOM      9  C   UNL     1       2.413   7.818  19.055  0.00  0.00    +0.000 A 
ATOM     10  C   UNL     1       2.699   6.471  18.814  0.00  0.00    +0.000 A 
ATOM     11  C   UNL     1       3.653   6.112  17.721  0.00  0.00    +0.000 C 
ATOM     12  O   UNL     1       3.866   6.900  16.803  0.00  0.00    +0.000 OA
ENDROOT
BRANCH   1  15
ATOM     13  C   UNL     1       7.114   5.846  16.649  0.00  0.00    +0.000 C 
ATOM     14  C   UNL     1       6.206   4.816  16.021  0.00  0.00    +0.000 C 
ATOM     15  C   UNL     1       5.073   4.342  16.592  0.00  0.00    +0.000 C 
BRANCH  14  16
ATOM     16  C   UNL     1       6.699   4.307  14.742  0.00  0.00    +0.000 C 
ATOM     17  C   UNL     1       5.920   3.957  13.706  0.00  0.00    +0.000 C 
BRANCH  17  18
ATOM     18  C   UNL     1       6.509   3.479  12.435  0.00  0.00    +0.000 C 
ATOM     19  O   UNL     1       7.243   4.154  11.723  0.00  0.00    +0.000 OA
ATOM     20  N   UNL     1       6.146   2.192  12.139  0.00  0.00    +0.000 N 
ATOM     21  H   UNL     1       5.546   1.604  12.703  0.00  0.00    +0.000 HD
BRANCH  20  22
ATOM     22  O   UNL     1       6.642   1.642  10.940  0.00  0.00    +0.000 OA
ATOM     23  H   UNL     1       5.841   1.628  10.370  0.00  0.00    +0.000 HD
ENDBRANCH  20  22
ENDBRANCH  17  18
ENDBRANCH  14  16
ENDBRANCH   1  15
TORSDOF 4
ENDMDL
MODEL 3
REMARK VINA RESULT:      -7.9      4.683      5.928
REMARK  Name = 
REMARK  6 active torsions:
REMARK  status: ('A' for Active; 'I' for Inactive)
REMARK    1  A    between atoms: C_1  and  C_2
REMARK    2  A    between atoms: C_2  and  C_3
REMARK    3  A    between atoms: C_4  and  C_5
REMARK    4  A    between atoms: N_7  and  O_8
REMARK    5  A    between atoms: C_9  and  C_10
REMARK    6  A    between atoms: C_10  and  C_11
REMARK                            x       y       z     vdW  Elec       q    Type
REMARK                         _______ _______ _______ _____ _____    ______ ____
ROOT
ATOM      1  C   UNL     1       4.260   4.417  17.453  0.00  0.00    +0.000 C 
ATOM      2  C   UNL     1       3.676   5.825  17.685  0.00  0.00    +0.000 C 
ATOM      3  C   UNL     1       5.211   3.947  18.574  0.00  0.00    +0.000 C 
ATOM      4  C   UNL     1       4.591   4.103  19.959  0.00  0.00    +0.000 C 
ATOM      5  C   UNL     1       3.160   3.636  20.021  0.00  0.00    +0.000 A 
ATOM      6  C   UNL     1       2.501   3.644  21.257  0.00  0.00    +0.000 A 
ATOM      7  C   UNL     1       1.152   3.296  21.343  0.00  0.00    +0.000 A 
ATOM      8  C   UNL     1       0.453   2.912  20.199  0.00  0.00    +0.000 A 
ATOM      9  C   UNL     1       1.095   2.894  18.960  0.00  0.00    +0.000 A 
ATOM     10  C   UNL     1       2.436   3.278  18.867  0.00  0.00    +0.000 A 
ATOM     11  C   UNL     1       3.055   3.444  17.517  0.00  0.00    +0.000 C 
ATOM     12  O   UNL     1       2.568   2.881  16.540  0.00  0.00    +0.000 OA
ENDROOT
BRANCH   1  15
ATOM     13  C   UNL     1       6.894   5.928  16.459  0.00  0.00    +0.000 C 
ATOM     14  C   UNL     1       6.096   4.925  15.662  0.00  0.00    +0.000 C 
ATOM     15  C   UNL     1       5.005   4.269  16.125  0.00  0.00    +0.000 C 
BRANCH  14  16
ATOM     16  C   UNL     1       6.654   4.659  14.336  0.00  0.00    +0.000 C 
ATOM     17  C   UNL     1       6.236   3.685  13.512  0.00  0.00    +0.000 C 
BRANCH  17  18
ATOM     18  C   UNL     1       6.838   3.508  12.172  0.00  0.00    +0.000 C 
ATOM     19  O   UNL     1       7.280   4.427  11.492  0.00  0.00    +0.000 OA
ATOM     20  N   UNL     1       6.854   2.198  11.771  0.00  0.00    +0.000 N 
ATOM     21  H   UNL     1       6.503   1.414  12.305  0.00  0.00    +0.000 HD
BRANCH  20  22
ATOM     22  O   UNL     1       7.396   1.919  10.501  0.00  0.00    +0.000 OA
ATOM     23  H   UNL     1       6.926   2.566   9.928  0.00  0.00    +0.000 HD
ENDBRANCH  20  22
ENDBRANCH  17  18
ENDBRANCH  14  16
ENDBRANCH   1  15
TORSDOF 4
ENDMDL
MODEL 4
REMARK VINA RESULT:      -7.6      3.912      5.134
REMARK  Name = 
REMARK  6 active torsions:
REMARK  status: ('A' for Active; 'I' for Inactive)
REMARK    1  A    between atoms: C_1  and  C_2
REMARK    2  A    between atoms: C_2  and  C_3
REMARK    3  A    between atoms: C_4  and  C_5
REMARK    4  A    between atoms: N_7  and  O_8
REMARK    5  A    between atoms: C_9  and  C_10
REMARK    6  A    between atoms: C_10  and  C_11
REMARK                            x       y       z     vdW  Elec       q    Type
REMARK                         _______ _______ _______ _____ _____    ______ ____
ROOT
ATOM      1  C   UNL     1       3.505   3.492  17.422  0.00  0.00    +0.000 C 
ATOM      2  C   UNL     1       2.920   2.101  17.104  0.00  0.00    +0.000 C 
ATOM      3  C   UNL     1       2.445   4.613  17.477  0.00  0.00    +0.000 C 
ATOM      4  C   UNL     1       1.269   4.251  18.380  0.00  0.00    +0.000 C 
ATOM      5  C   UNL     1       1.697   3.635  19.687  0.00  0.00    +0.000 A 
ATOM      6  C   UNL     1       0.719   3.335  20.644  0.00  0.00    +0.000 A 
ATOM      7  C   UNL     1       1.065   2.691  21.832  0.00  0.00    +0.000 A 
ATOM      8  C   UNL     1       2.395   2.360  22.089  0.00  0.00    +0.000 A 
ATOM      9  C   UNL     1       3.383   2.653  21.149  0.00  0.00    +0.000 A 
ATOM     10  C   UNL     1       3.033   3.266  19.942  0.00  0.00    +0.000 A 
ATOM     11  C   UNL     1       4.061   3.397  18.865  0.00  0.00    +0.000 C 
ATOM     12  O   UNL     1       5.257   3.359  19.145  0.00  0.00    +0.000 OA
ENDROOT
BRANCH   1  15
ATOM     13  C   UNL     1       4.795   6.393  17.061  0.00  0.00    +0.000 C 
ATOM     14  C   UNL     1       5.132   5.168  16.246  0.00  0.00    +0.000 C 
ATOM     15  C   UNL     1       4.597   3.940  16.449  0.00  0.00    +0.000 C 
BRANCH  14  16
ATOM     16  C   UNL     1       6.163   5.405  15.237  0.00  0.00    +0.000 C 
ATOM     17  C   UNL     1       6.407   4.603  14.188  0.00  0.00    +0.000 C 
BRANCH  17  18
ATOM     18  C   UNL     1       7.453   4.937  13.196  0.00  0.00    +0.000 C 
ATOM     19  O   UNL     1       7.451   4.538  12.037  0.00  0.00    +0.000 OA
ATOM     20  N   UNL     1       8.426   5.751  13.712  0.00  0.00    +0.000 N 
ATOM     21  H   UNL     1       8.459   6.103  14.660  0.00  0.00    +0.000 HD
BRANCH  20  22
ATOM     22  O   UNL     1       9.480   6.120  12.852  0.00  0.00    +0.000 OA
ATOM     23  H   UNL     1       9.837   5.247  12.574  0.00  0.00    +0.000 HD
ENDBRANCH  20  22
ENDBRANCH  17  18
ENDBRANCH  14  16
ENDBRANCH   1  15
TORSDOF 4
ENDMDL
MODEL 5
REMARK VINA RESULT:      -7.6      4.539      6.627
REMARK  Name = 
REMARK  6 active torsions:
REMARK  status: ('A' for Active; 'I' for Inactive)
REMARK    1  A    between atoms: C_1  and  C_2
REMARK    2  A    between atoms: C_2  and  C_3
REMARK    3  A    between atoms: C_4  and  C_5
REMARK    4  A    between atoms: N_7  and  O_8
REMARK    5  A    between atoms: C_9  and  C_10
REMARK    6  A    between atoms: C_10  and  C_11
REMARK                            x       y       z     vdW  Elec       q    Type
REMARK                         _______ _______ _______ _____ _____    ______ ____
ROOT
ATOM      1  C   UNL     1       3.317   5.650  18.473  0.00  0.00    +0.000 C 
ATOM      2  C   UNL     1       2.378   4.669  17.743  0.00  0.00    +0.000 C 
ATOM      3  C   UNL     1       4.444   4.956  19.267  0.00  0.00    +0.000 C 
ATOM      4  C   UNL     1       5.203   3.938  18.421  0.00  0.00    +0.000 C 
ATOM      5  C   UNL     1       5.536   4.448  17.042  0.00  0.00    +0.000 A 
ATOM      6  C   UNL     1       6.308   3.644  16.193  0.00  0.00    +0.000 A 
ATOM      7  C   UNL     1       6.569   4.044  14.883  0.00  0.00    +0.000 A 
ATOM      8  C   UNL     1       6.085   5.265  14.412  0.00  0.00    +0.000 A 
ATOM      9  C   UNL     1       5.318   6.080  15.245  0.00  0.00    +0.000 A 
ATOM     10  C   UNL     1       5.024   5.663  16.546  0.00  0.00    +0.000 A 
ATOM     11  C   UNL     1       4.044   6.446  17.360  0.00  0.00    +0.000 C 
ATOM     12  O   UNL     1       3.812   7.621  17.085  0.00  0.00    +0.000 OA
ENDROOT
BRANCH   1  15
ATOM     13  C   UNL     1       1.345   4.935  20.884  0.00  0.00    +0.000 C 
ATOM     14  C   UNL     1       1.724   6.325  20.433  0.00  0.00    +0.000 C 
ATOM     15  C   UNL     1       2.595   6.598  19.433  0.00  0.00    +0.000 C 
BRANCH  14  16
ATOM     16  C   UNL     1       1.110   7.384  21.234  0.00  0.00    +0.000 C 
ATOM     17  C   UNL     1       1.256   8.699  21.005  0.00  0.00    +0.000 C 
BRANCH  17  18
ATOM     18  C   UNL     1       0.571   9.702  21.850  0.00  0.00    +0.000 C 
ATOM     19  O   UNL     1       0.856  10.895  21.866  0.00  0.00    +0.000 OA
ATOM     20  N   UNL     1      -0.425   9.156  22.614  0.00  0.00    +0.000 N 
ATOM     21  H   UNL     1      -0.692   8.180  22.624  0.00  0.00    +0.000 HD
BRANCH  20  22
ATOM     22  O   UNL     1      -1.135  10.025  23.467  0.00  0.00    +0.000 OA
ATOM     23  H   UNL     1      -0.668  10.879  23.328  0.00  0.00    +0.000 HD
ENDBRANCH  20  22
ENDBRANCH  17  18
ENDBRANCH  14  16
ENDBRANCH   1  15
TORSDOF 4
ENDMDL
MODEL 6
REMARK VINA RESULT:      -7.6      1.656      2.364
REMARK  Name = 
REMARK  6 active torsions:
REMARK  status: ('A' for Active; 'I' for Inactive)
REMARK    1  A    between atoms: C_1  and  C_2
REMARK    2  A    between atoms: C_2  and  C_3
REMARK    3  A    between atoms: C_4  and  C_5
REMARK    4  A    between atoms: N_7  and  O_8
REMARK    5  A    between atoms: C_9  and  C_10
REMARK    6  A    between atoms: C_10  and  C_11
REMARK                            x       y       z     vdW  Elec       q    Type
REMARK                         _______ _______ _______ _____ _____    ______ ____
ROOT
ATOM      1  C   UNL     1       4.698   5.968  17.838  0.00  0.00    +0.000 C 
ATOM      2  C   UNL     1       4.655   5.409  16.402  0.00  0.00    +0.000 C 
ATOM      3  C   UNL     1       3.410   6.707  18.257  0.00  0.00    +0.000 C 
ATOM      4  C   UNL     1       2.157   5.879  17.987  0.00  0.00    +0.000 C 
ATOM      5  C   UNL     1       2.299   4.439  18.408  0.00  0.00    +0.000 A 
ATOM      6  C   UNL     1       1.191   3.590  18.295  0.00  0.00    +0.000 A 
ATOM      7  C   UNL     1       1.305   2.233  18.598  0.00  0.00    +0.000 A 
ATOM      8  C   UNL     1       2.520   1.712  19.041  0.00  0.00    +0.000 A 
ATOM      9  C   UNL     1       3.634   2.544  19.163  0.00  0.00    +0.000 A 
ATOM     10  C   UNL     1       3.531   3.897  18.824  0.00  0.00    +0.000 A 
ATOM     11  C   UNL     1       4.770   4.731  18.770  0.00  0.00    +0.000 C 
ATOM     12  O   UNL     1       5.776   4.385  19.385  0.00  0.00    +0.000 OA
ENDROOT
BRANCH   1  15
ATOM     13  C   UNL     1       7.640   5.888  16.593  0.00  0.00    +0.000 C 
ATOM     14  C   UNL     1       7.140   6.876  17.619  0.00  0.00    +0.000 C 
ATOM     15  C   UNL     1       5.874   6.911  18.099  0.00  0.00    +0.000 C 
BRANCH  14  16
ATOM     16  C   UNL     1       8.144   7.865  18.011  0.00  0.00    +0.000 C 
ATOM     17  C   UNL     1       7.970   9.195  17.956  0.00  0.00    +0.000 C 
BRANCH  17  18
ATOM     18  C   UNL     1       9.032  10.124  18.404  0.00  0.00    +0.000 C 
ATOM     19  O   UNL     1       9.691  10.828  17.647  0.00  0.00    +0.000 OA
ATOM     20  N   UNL     1       9.200  10.116  19.762  0.00  0.00    +0.000 N 
ATOM     21  H   UNL     1       8.674   9.553  20.418  0.00  0.00    +0.000 HD
BRANCH  20  22
ATOM     22  O   UNL     1      10.198  10.957  20.294  0.00  0.00    +0.000 OA
ATOM     23  H   UNL     1      10.750  10.326  20.808  0.00  0.00    +0.000 HD
ENDBRANCH  20  22
ENDBRANCH  17  18
ENDBRANCH  14  16
ENDBRANCH   1  15
TORSDOF 4
ENDMDL
MODEL 7
REMARK VINA RESULT:      -7.6      4.918      6.186
REMARK  Name = 
REMARK  6 active torsions:
REMARK  status: ('A' for Active; 'I' for Inactive)
REMARK    1  A    between atoms: C_1  and  C_2
REMARK    2  A    between atoms: C_2  and  C_3
REMARK    3  A    between atoms: C_4  and  C_5
REMARK    4  A    between atoms: N_7  and  O_8
REMARK    5  A    between atoms: C_9  and  C_10
REMARK    6  A    between atoms: C_10  and  C_11
REMARK                            x       y       z     vdW  Elec       q    Type
REMARK                         _______ _______ _______ _____ _____    ______ ____
ROOT
ATOM      1  C   UNL     1       3.838   4.312  17.494  0.00  0.00    +0.000 C 
ATOM      2  C   UNL     1       2.447   4.883  17.154  0.00  0.00    +0.000 C 
ATOM      3  C   UNL     1       4.616   5.148  18.532  0.00  0.00    +0.000 C 
ATOM      4  C   UNL     1       3.783   5.442  19.776  0.00  0.00    +0.000 C 
ATOM      5  C   UNL     1       3.027   4.239  20.279  0.00  0.00    +0.000 A 
ATOM      6  C   UNL     1       2.292   4.352  21.465  0.00  0.00    +0.000 A 
ATOM      7  C   UNL     1       1.514   3.287  21.921  0.00  0.00    +0.000 A 
ATOM      8  C   UNL     1       1.482   2.087  21.209  0.00  0.00    +0.000 A 
ATOM      9  C   UNL     1       2.211   1.956  20.027  0.00  0.00    +0.000 A 
ATOM     10  C   UNL     1       2.961   3.035  19.550  0.00  0.00    +0.000 A 
ATOM     11  C   UNL     1       3.577   2.952  18.190  0.00  0.00    +0.000 C 
ATOM     12  O   UNL     1       3.782   1.857  17.671  0.00  0.00    +0.000 OA
ENDROOT
BRANCH   1  15
ATOM     13  C   UNL     1       5.222   6.549  15.681  0.00  0.00    +0.000 C 
ATOM     14  C   UNL     1       5.311   5.057  15.466  0.00  0.00    +0.000 C 
ATOM     15  C   UNL     1       4.746   4.130  16.276  0.00  0.00    +0.000 C 
BRANCH  14  16
ATOM     16  C   UNL     1       6.137   4.682  14.320  0.00  0.00    +0.000 C 
ATOM     17  C   UNL     1       5.788   3.783  13.386  0.00  0.00    +0.000 C 
BRANCH  17  18
ATOM     18  C   UNL     1       6.676   3.487  12.240  0.00  0.00    +0.000 C 
ATOM     19  O   UNL     1       7.401   4.316  11.702  0.00  0.00    +0.000 OA
ATOM     20  N   UNL     1       6.606   2.178  11.844  0.00  0.00    +0.000 N 
ATOM     21  H   UNL     1       6.024   1.465  12.265  0.00  0.00    +0.000 HD
BRANCH  20  22
ATOM     22  O   UNL     1       7.405   1.791  10.749  0.00  0.00    +0.000 OA
ATOM     23  H   UNL     1       7.494   2.634  10.249  0.00  0.00    +0.000 HD
ENDBRANCH  20  22
ENDBRANCH  17  18
ENDBRANCH  14  16
ENDBRANCH   1  15
TORSDOF 4
ENDMDL
MODEL 8
REMARK VINA RESULT:      -7.5      4.287     10.271
REMARK  Name = 
REMARK  6 active torsions:
REMARK  status: ('A' for Active; 'I' for Inactive)
REMARK    1  A    between atoms: C_1  and  C_2
REMARK    2  A    between atoms: C_2  and  C_3
REMARK    3  A    between atoms: C_4  and  C_5
REMARK    4  A    between atoms: N_7  and  O_8
REMARK    5  A    between atoms: C_9  and  C_10
REMARK    6  A    between atoms: C_10  and  C_11
REMARK                            x       y       z     vdW  Elec       q    Type
REMARK                         _______ _______ _______ _____ _____    ______ ____
ROOT
ATOM      1  C   UNL     1      10.733  12.711  18.007  0.00  0.00    +0.000 C 
ATOM      2  C   UNL     1      11.528  12.990  16.717  0.00  0.00    +0.000 C 
ATOM      3  C   UNL     1      11.563  12.878  19.297  0.00  0.00    +0.000 C 
ATOM      4  C   UNL     1      12.299  14.215  19.340  0.00  0.00    +0.000 C 
ATOM      5  C   UNL     1      11.438  15.375  18.912  0.00  0.00    +0.000 A 
ATOM      6  C   UNL     1      11.966  16.671  18.988  0.00  0.00    +0.000 A 
ATOM      7  C   UNL     1      11.231  17.763  18.526  0.00  0.00    +0.000 A 
ATOM      8  C   UNL     1       9.951  17.578  18.005  0.00  0.00    +0.000 A 
ATOM      9  C   UNL     1       9.407  16.295  17.925  0.00  0.00    +0.000 A 
ATOM     10  C   UNL     1      10.157  15.195  18.354  0.00  0.00    +0.000 A 
ATOM     11  C   UNL     1       9.649  13.816  18.083  0.00  0.00    +0.000 C 
ATOM     12  O   UNL     1       8.453  13.628  17.874  0.00  0.00    +0.000 OA
ENDROOT
BRANCH   1  15
ATOM     13  C   UNL     1       9.317  11.235  20.463  0.00  0.00    +0.000 C 
ATOM     14  C   UNL     1       9.525  10.657  19.084  0.00  0.00    +0.000 C 
ATOM     15  C   UNL     1      10.093  11.322  18.050  0.00  0.00    +0.000 C 
BRANCH  14  16
ATOM     16  C   UNL     1       8.985   9.306  18.932  0.00  0.00    +0.000 C 
ATOM     17  C   UNL     1       8.202   8.905  17.918  0.00  0.00    +0.000 C 
BRANCH  17  18
ATOM     18  C   UNL     1       7.725   7.507  17.828  0.00  0.00    +0.000 C 
ATOM     19  O   UNL     1       7.975   6.642  18.660  0.00  0.00    +0.000 OA
ATOM     20  N   UNL     1       6.965   7.281  16.712  0.00  0.00    +0.000 N 
ATOM     21  H   UNL     1       6.734   7.969  16.006  0.00  0.00    +0.000 HD
BRANCH  20  22
ATOM     22  O   UNL     1       6.469   5.975  16.522  0.00  0.00    +0.000 OA
ATOM     23  H   UNL     1       7.252   5.422  16.743  0.00  0.00    +0.000 HD
ENDBRANCH  20  22
ENDBRANCH  17  18
ENDBRANCH  14  16
ENDBRANCH   1  15
TORSDOF 4
ENDMDL
MODEL 9
REMARK VINA RESULT:      -7.4      1.307      1.508
REMARK  Name = 
REMARK  6 active torsions:
REMARK  status: ('A' for Active; 'I' for Inactive)
REMARK    1  A    between atoms: C_1  and  C_2
REMARK    2  A    between atoms: C_2  and  C_3
REMARK    3  A    between atoms: C_4  and  C_5
REMARK    4  A    between atoms: N_7  and  O_8
REMARK    5  A    between atoms: C_9  and  C_10
REMARK    6  A    between atoms: C_10  and  C_11
REMARK                            x       y       z     vdW  Elec       q    Type
REMARK                         _______ _______ _______ _____ _____    ______ ____
ROOT
ATOM      1  C   UNL     1       4.824   5.429  18.286  0.00  0.00    +0.000 C 
ATOM      2  C   UNL     1       5.550   4.355  19.120  0.00  0.00    +0.000 C 
ATOM      3  C   UNL     1       4.472   4.972  16.854  0.00  0.00    +0.000 C 
ATOM      4  C   UNL     1       3.747   3.629  16.841  0.00  0.00    +0.000 C 
ATOM      5  C   UNL     1       2.666   3.532  17.887  0.00  0.00    +0.000 A 
ATOM      6  C   UNL     1       1.866   2.383  17.924  0.00  0.00    +0.000 A 
ATOM      7  C   UNL     1       0.909   2.220  18.927  0.00  0.00    +0.000 A 
ATOM      8  C   UNL     1       0.724   3.212  19.889  0.00  0.00    +0.000 A 
ATOM      9  C   UNL     1       1.510   4.365  19.865  0.00  0.00    +0.000 A 
ATOM     10  C   UNL     1       2.494   4.513  18.882  0.00  0.00    +0.000 A 
ATOM     11  C   UNL     1       3.458   5.652  18.981  0.00  0.00    +0.000 C 
ATOM     12  O   UNL     1       3.169   6.650  19.637  0.00  0.00    +0.000 OA
ENDROOT
BRANCH   1  15
ATOM     13  C   UNL     1       7.503   6.045  16.655  0.00  0.00    +0.000 C 
ATOM     14  C   UNL     1       6.751   7.025  17.523  0.00  0.00    +0.000 C 
ATOM     15  C   UNL     1       5.594   6.747  18.171  0.00  0.00    +0.000 C 
BRANCH  14  16
ATOM     16  C   UNL     1       7.352   8.357  17.552  0.00  0.00    +0.000 C 
ATOM     17  C   UNL     1       8.277   8.760  18.438  0.00  0.00    +0.000 C 
BRANCH  17  18
ATOM     18  C   UNL     1       8.856  10.121  18.374  0.00  0.00    +0.000 C 
ATOM     19  O   UNL     1       8.555  10.954  17.527  0.00  0.00    +0.000 OA
ATOM     20  N   UNL     1       9.765  10.354  19.372  0.00  0.00    +0.000 N 
ATOM     21  H   UNL     1      10.035   9.694  20.089  0.00  0.00    +0.000 HD
BRANCH  20  22
ATOM     22  O   UNL     1      10.386  11.618  19.395  0.00  0.00    +0.000 OA
ATOM     23  H   UNL     1      10.719  11.669  20.319  0.00  0.00    +0.000 HD
ENDBRANCH  20  22
ENDBRANCH  17  18
ENDBRANCH  14  16
ENDBRANCH   1  15
TORSDOF 4
ENDMDL
