MODEL 1
REMARK VINA RESULT:      -8.4      0.000      0.000
REMARK  Name = 
REMARK  4 active torsions:
REMARK  status: ('A' for Active; 'I' for Inactive)
REMARK    1  A    between atoms: C_1  and  C_2
REMARK    2  A    between atoms: C_2  and  C_3
REMARK    3  A    between atoms: C_2  and  N_16
REMARK    4  A    between atoms: C_2  and  N_21
REMARK                            x       y       z     vdW  Elec       q    Type
REMARK                         _______ _______ _______ _____ _____    ______ ____
ROOT
ATOM      1  C   UNL     1       2.250   6.331  19.273  0.00  0.00    +0.000 A 
ATOM      2  C   UNL     1       1.786   6.711  20.570  0.00  0.00    +0.000 A 
ATOM      3  C   UNL     1       1.351   8.016  20.831  0.00  0.00    +0.000 A 
ATOM      4  C   UNL     1       1.431   8.922  19.795  0.00  0.00    +0.000 A 
ATOM      5  C   UNL     1       1.880   8.612  18.530  0.00  0.00    +0.000 A 
ATOM      6  C   UNL     1       2.237   7.309  18.239  0.00  0.00    +0.000 A 
ATOM      7  C   UNL     1       1.889   9.838  17.665  0.00  0.00    +0.000 C 
ATOM      8  C   UNL     1       1.448  10.945  18.656  0.00  0.00    +0.000 C 
ATOM      9  N   UNL     1       1.093  10.259  19.898  0.00  0.00    +0.000 N 
ATOM     10  C   UNL     1       0.517  10.805  21.015  0.00  0.00    +0.000 C 
ATOM     11  O   UNL     1       0.304  12.006  21.150  0.00  0.00    +0.000 OA
ATOM     12  C   UNL     1       0.005   9.773  22.017  0.00  0.00    +0.000 C 
ATOM     13  C   UNL     1       0.909   8.539  22.165  0.00  0.00    +0.000 C 
ENDROOT
BRANCH   1  15
ATOM     14  C   UNL     1       1.859   4.469  17.699  0.00  0.00    +0.000 C 
ATOM     15  C   UNL     1       2.678   4.854  18.968  0.00  0.00    +0.000 C 
BRANCH  15  16
ATOM     16  N   UNL     1       2.353   3.939  20.100  0.00  0.00    +0.000 N 
ATOM     17  C   UNL     1       1.106   3.529  20.514  0.00  0.00    +0.000 A 
ATOM     18  C   UNL     1       1.319   2.706  21.592  0.00  0.00    +0.000 A 
ATOM     19  N   UNL     1       2.653   2.578  21.842  0.00  0.00    +0.000 NA
ATOM     20  C   UNL     1       3.249   3.328  20.943  0.00  0.00    +0.000 A 
ENDBRANCH  15  16
BRANCH  15  21
ATOM     21  N   UNL     1       4.140   4.774  18.683  0.00  0.00    +0.000 N 
ATOM     22  C   UNL     1       4.766   4.109  17.651  0.00  0.00    +0.000 A 
ATOM     23  C   UNL     1       6.091   4.466  17.725  0.00  0.00    +0.000 A 
ATOM     24  N   UNL     1       6.306   5.311  18.772  0.00  0.00    +0.000 NA
ATOM     25  C   UNL     1       5.131   5.470  19.338  0.00  0.00    +0.000 A 
ENDBRANCH  15  21
ENDBRANCH   1  15
TORSDOF 3
ENDMDL
MODEL 2
REMARK VINA RESULT:      -8.2      0.403      2.048
REMARK  Name = 
REMARK  4 active torsions:
REMARK  status: ('A' for Active; 'I' for Inactive)
REMARK    1  A    between atoms: C_1  and  C_2
REMARK    2  A    between atoms: C_2  and  C_3
REMARK    3  A    between atoms: C_2  and  N_16
REMARK    4  A    between atoms: C_2  and  N_21
REMARK                            x       y       z     vdW  Elec       q    Type
REMARK                         _______ _______ _______ _____ _____    ______ ____
ROOT
ATOM      1  C   UNL     1       2.188   6.286  19.284  0.00  0.00    +0.000 A 
ATOM      2  C   UNL     1       2.268   7.307  18.287  0.00  0.00    +0.000 A 
ATOM      3  C   UNL     1       1.909   8.629  18.575  0.00  0.00    +0.000 A 
ATOM      4  C   UNL     1       1.438   8.889  19.843  0.00  0.00    +0.000 A 
ATOM      5  C   UNL     1       1.330   7.941  20.838  0.00  0.00    +0.000 A 
ATOM      6  C   UNL     1       1.756   6.650  20.590  0.00  0.00    +0.000 A 
ATOM      7  C   UNL     1       0.732   8.547  22.073  0.00  0.00    +0.000 C 
ATOM      8  C   UNL     1       0.426   9.996  21.616  0.00  0.00    +0.000 C 
ATOM      9  N   UNL     1       0.993  10.126  20.274  0.00  0.00    +0.000 N 
ATOM     10  C   UNL     1       1.092  11.265  19.519  0.00  0.00    +0.000 C 
ATOM     11  O   UNL     1       0.612  12.344  19.854  0.00  0.00    +0.000 OA
ATOM     12  C   UNL     1       1.996  11.123  18.296  0.00  0.00    +0.000 C 
ATOM     13  C   UNL     1       1.890   9.762  17.592  0.00  0.00    +0.000 C 
ENDROOT
BRANCH   1  15
ATOM     14  C   UNL     1       1.845   4.419  17.704  0.00  0.00    +0.000 C 
ATOM     15  C   UNL     1       2.649   4.818  18.978  0.00  0.00    +0.000 C 
BRANCH  15  16
ATOM     16  N   UNL     1       2.337   3.894  20.107  0.00  0.00    +0.000 N 
ATOM     17  C   UNL     1       1.100   3.424  20.487  0.00  0.00    +0.000 A 
ATOM     18  C   UNL     1       1.322   2.618  21.576  0.00  0.00    +0.000 A 
ATOM     19  N   UNL     1       2.653   2.559  21.865  0.00  0.00    +0.000 NA
ATOM     20  C   UNL     1       3.237   3.334  20.979  0.00  0.00    +0.000 A 
ENDBRANCH  15  16
BRANCH  15  21
ATOM     21  N   UNL     1       4.113   4.769  18.701  0.00  0.00    +0.000 N 
ATOM     22  C   UNL     1       4.759   4.115  17.675  0.00  0.00    +0.000 A 
ATOM     23  C   UNL     1       6.076   4.501  17.754  0.00  0.00    +0.000 A 
ATOM     24  N   UNL     1       6.267   5.354  18.799  0.00  0.00    +0.000 NA
ATOM     25  C   UNL     1       5.086   5.489  19.358  0.00  0.00    +0.000 A 
ENDBRANCH  15  21
ENDBRANCH   1  15
TORSDOF 3
ENDMDL
MODEL 3
REMARK VINA RESULT:      -7.8      1.573      3.547
REMARK  Name = 
REMARK  4 active torsions:
REMARK  status: ('A' for Active; 'I' for Inactive)
REMARK    1  A    between atoms: C_1  and  C_2
REMARK    2  A    between atoms: C_2  and  C_3
REMARK    3  A    between atoms: C_2  and  N_16
REMARK    4  A    between atoms: C_2  and  N_21
REMARK                            x       y       z     vdW  Elec       q    Type
REMARK                         _______ _______ _______ _____ _____    ______ ____
ROOT
ATOM      1  C   UNL     1       3.006   6.590  18.840  0.00  0.00    +0.000 A 
ATOM      2  C   UNL     1       2.362   6.658  20.114  0.00  0.00    +0.000 A 
ATOM      3  C   UNL     1       1.578   7.761  20.472  0.00  0.00    +0.000 A 
ATOM      4  C   UNL     1       1.492   8.791  19.560  0.00  0.00    +0.000 A 
ATOM      5  C   UNL     1       2.100   8.782  18.324  0.00  0.00    +0.000 A 
ATOM      6  C   UNL     1       2.812   7.665  17.928  0.00  0.00    +0.000 A 
ATOM      7  C   UNL     1       1.849  10.077  17.610  0.00  0.00    +0.000 C 
ATOM      8  C   UNL     1       1.057  10.889  18.665  0.00  0.00    +0.000 C 
ATOM      9  N   UNL     1       0.804   9.971  19.776  0.00  0.00    +0.000 N 
ATOM     10  C   UNL     1       0.022  10.194  20.879  0.00  0.00    +0.000 C 
ATOM     11  O   UNL     1      -0.512  11.271  21.125  0.00  0.00    +0.000 OA
ATOM     12  C   UNL     1      -0.272   8.938  21.697  0.00  0.00    +0.000 C 
ATOM     13  C   UNL     1       0.914   7.966  21.801  0.00  0.00    +0.000 C 
ENDROOT
BRANCH   1  15
ATOM     14  C   UNL     1       4.880   5.151  19.559  0.00  0.00    +0.000 C 
ATOM     15  C   UNL     1       3.833   5.326  18.418  0.00  0.00    +0.000 C 
BRANCH  15  16
ATOM     16  N   UNL     1       4.515   5.526  17.106  0.00  0.00    +0.000 N 
ATOM     17  C   UNL     1       4.813   4.568  16.162  0.00  0.00    +0.000 A 
ATOM     18  C   UNL     1       5.445   5.231  15.139  0.00  0.00    +0.000 A 
ATOM     19  N   UNL     1       5.526   6.565  15.411  0.00  0.00    +0.000 NA
ATOM     20  C   UNL     1       4.971   6.715  16.593  0.00  0.00    +0.000 A 
ENDBRANCH  15  16
BRANCH  15  21
ATOM     21  N   UNL     1       2.957   4.123  18.332  0.00  0.00    +0.000 N 
ATOM     22  C   UNL     1       3.166   2.882  18.892  0.00  0.00    +0.000 A 
ATOM     23  C   UNL     1       2.011   2.170  18.668  0.00  0.00    +0.000 A 
ATOM     24  N   UNL     1       1.107   2.921  17.977  0.00  0.00    +0.000 NA
ATOM     25  C   UNL     1       1.698   4.078  17.776  0.00  0.00    +0.000 A 
ENDBRANCH  15  21
ENDBRANCH   1  15
TORSDOF 3
ENDMDL
MODEL 4
REMARK VINA RESULT:      -7.7      1.813      2.212
REMARK  Name = 
REMARK  4 active torsions:
REMARK  status: ('A' for Active; 'I' for Inactive)
REMARK    1  A    between atoms: C_1  and  C_2
REMARK    2  A    between atoms: C_2  and  C_3
REMARK    3  A    between atoms: C_2  and  N_16
REMARK    4  A    between atoms: C_2  and  N_21
REMARK                            x       y       z     vdW  Elec       q    Type
REMARK                         _______ _______ _______ _____ _____    ______ ____
ROOT
ATOM      1  C   UNL     1       3.488   6.347  18.233  0.00  0.00    +0.000 A 
ATOM      2  C   UNL     1       2.816   6.180  19.483  0.00  0.00    +0.000 A 
ATOM      3  C   UNL     1       1.983   7.180  19.998  0.00  0.00    +0.000 A 
ATOM      4  C   UNL     1       1.876   8.343  19.267  0.00  0.00    +0.000 A 
ATOM      5  C   UNL     1       2.509   8.562  18.063  0.00  0.00    +0.000 A 
ATOM      6  C   UNL     1       3.271   7.552  17.506  0.00  0.00    +0.000 A 
ATOM      7  C   UNL     1       2.222   9.948  17.567  0.00  0.00    +0.000 C 
ATOM      8  C   UNL     1       1.378  10.545  18.721  0.00  0.00    +0.000 C 
ATOM      9  N   UNL     1       1.139   9.447  19.657  0.00  0.00    +0.000 N 
ATOM     10  C   UNL     1       0.326   9.456  20.761  0.00  0.00    +0.000 C 
ATOM     11  O   UNL     1      -0.253  10.458  21.168  0.00  0.00    +0.000 OA
ATOM     12  C   UNL     1       0.065   8.072  21.351  0.00  0.00    +0.000 C 
ATOM     13  C   UNL     1       1.285   7.138  21.325  0.00  0.00    +0.000 C 
ENDROOT
BRANCH   1  15
ATOM     14  C   UNL     1       4.502   5.568  16.120  0.00  0.00    +0.000 C 
ATOM     15  C   UNL     1       4.372   5.201  17.629  0.00  0.00    +0.000 C 
BRANCH  15  16
ATOM     16  N   UNL     1       3.729   3.865  17.791  0.00  0.00    +0.000 N 
ATOM     17  C   UNL     1       4.140   2.830  18.600  0.00  0.00    +0.000 A 
ATOM     18  C   UNL     1       3.239   1.813  18.399  0.00  0.00    +0.000 A 
ATOM     19  N   UNL     1       2.276   2.195  17.512  0.00  0.00    +0.000 NA
ATOM     20  C   UNL     1       2.595   3.420  17.158  0.00  0.00    +0.000 A 
ENDBRANCH  15  16
BRANCH  15  21
ATOM     21  N   UNL     1       5.717   5.174  18.272  0.00  0.00    +0.000 N 
ATOM     22  C   UNL     1       6.944   5.029  17.662  0.00  0.00    +0.000 A 
ATOM     23  C   UNL     1       7.879   5.230  18.650  0.00  0.00    +0.000 A 
ATOM     24  N   UNL     1       7.274   5.475  19.846  0.00  0.00    +0.000 NA
ATOM     25  C   UNL     1       5.984   5.424  19.600  0.00  0.00    +0.000 A 
ENDBRANCH  15  21
ENDBRANCH   1  15
TORSDOF 3
ENDMDL
MODEL 5
REMARK VINA RESULT:      -7.6      1.648      4.079
REMARK  Name = 
REMARK  4 active torsions:
REMARK  status: ('A' for Active; 'I' for Inactive)
REMARK    1  A    between atoms: C_1  and  C_2
REMARK    2  A    between atoms: C_2  and  C_3
REMARK    3  A    between atoms: C_2  and  N_16
REMARK    4  A    between atoms: C_2  and  N_21
REMARK                            x       y       z     vdW  Elec       q    Type
REMARK                         _______ _______ _______ _____ _____    ______ ____
ROOT
ATOM      1  C   UNL     1       3.075   6.474  18.801  0.00  0.00    +0.000 A 
ATOM      2  C   UNL     1       2.943   7.631  17.971  0.00  0.00    +0.000 A 
ATOM      3  C   UNL     1       2.185   8.734  18.381  0.00  0.00    +0.000 A 
ATOM      4  C   UNL     1       1.542   8.636  19.596  0.00  0.00    +0.000 A 
ATOM      5  C   UNL     1       1.627   7.542  20.430  0.00  0.00    +0.000 A 
ATOM      6  C   UNL     1       2.435   6.480  20.072  0.00  0.00    +0.000 A 
ATOM      7  C   UNL     1       0.764   7.742  21.641  0.00  0.00    +0.000 C 
ATOM      8  C   UNL     1       0.088   9.104  21.345  0.00  0.00    +0.000 C 
ATOM      9  N   UNL     1       0.714   9.610  20.124  0.00  0.00    +0.000 N 
ATOM     10  C   UNL     1       0.543  10.843  19.549  0.00  0.00    +0.000 C 
ATOM     11  O   UNL     1      -0.262  11.674  19.956  0.00  0.00    +0.000 OA
ATOM     12  C   UNL     1       1.559  11.164  18.455  0.00  0.00    +0.000 C 
ATOM     13  C   UNL     1       1.924   9.966  17.566  0.00  0.00    +0.000 C 
ENDROOT
BRANCH   1  15
ATOM     14  C   UNL     1       5.064   5.176  19.478  0.00  0.00    +0.000 C 
ATOM     15  C   UNL     1       3.975   5.265  18.367  0.00  0.00    +0.000 C 
BRANCH  15  16
ATOM     16  N   UNL     1       4.602   5.495  17.033  0.00  0.00    +0.000 N 
ATOM     17  C   UNL     1       4.863   4.559  16.058  0.00  0.00    +0.000 A 
ATOM     18  C   UNL     1       5.452   5.245  15.025  0.00  0.00    +0.000 A 
ATOM     19  N   UNL     1       5.542   6.573  15.322  0.00  0.00    +0.000 NA
ATOM     20  C   UNL     1       5.035   6.696  16.528  0.00  0.00    +0.000 A 
ENDBRANCH  15  16
BRANCH  15  21
ATOM     21  N   UNL     1       3.180   4.004  18.320  0.00  0.00    +0.000 N 
ATOM     22  C   UNL     1       3.458   2.806  18.939  0.00  0.00    +0.000 A 
ATOM     23  C   UNL     1       2.358   2.010  18.727  0.00  0.00    +0.000 A 
ATOM     24  N   UNL     1       1.422   2.668  17.986  0.00  0.00    +0.000 NA
ATOM     25  C   UNL     1       1.939   3.851  17.743  0.00  0.00    +0.000 A 
ENDBRANCH  15  21
ENDBRANCH   1  15
TORSDOF 3
ENDMDL
MODEL 6
REMARK VINA RESULT:      -7.5      1.835      2.942
REMARK  Name = 
REMARK  4 active torsions:
REMARK  status: ('A' for Active; 'I' for Inactive)
REMARK    1  A    between atoms: C_1  and  C_2
REMARK    2  A    between atoms: C_2  and  C_3
REMARK    3  A    between atoms: C_2  and  N_16
REMARK    4  A    between atoms: C_2  and  N_21
REMARK                            x       y       z     vdW  Elec       q    Type
REMARK                         _______ _______ _______ _____ _____    ______ ____
ROOT
ATOM      1  C   UNL     1       3.434   6.367  18.261  0.00  0.00    +0.000 A 
ATOM      2  C   UNL     1       3.209   7.615  17.601  0.00  0.00    +0.000 A 
ATOM      3  C   UNL     1       2.429   8.616  18.191  0.00  0.00    +0.000 A 
ATOM      4  C   UNL     1       1.856   8.327  19.410  0.00  0.00    +0.000 A 
ATOM      5  C   UNL     1       2.030   7.138  20.085  0.00  0.00    +0.000 A 
ATOM      6  C   UNL     1       2.862   6.173  19.550  0.00  0.00    +0.000 A 
ATOM      7  C   UNL     1       1.225   7.134  21.351  0.00  0.00    +0.000 C 
ATOM      8  C   UNL     1       0.478   8.490  21.273  0.00  0.00    +0.000 C 
ATOM      9  N   UNL     1       1.017   9.182  20.102  0.00  0.00    +0.000 N 
ATOM     10  C   UNL     1       0.764  10.470  19.707  0.00  0.00    +0.000 C 
ATOM     11  O   UNL     1      -0.052  11.200  20.260  0.00  0.00    +0.000 OA
ATOM     12  C   UNL     1       1.706  10.982  18.620  0.00  0.00    +0.000 C 
ATOM     13  C   UNL     1       2.074   9.931  17.562  0.00  0.00    +0.000 C 
ENDROOT
BRANCH   1  15
ATOM     14  C   UNL     1       4.477   5.685  16.129  0.00  0.00    +0.000 C 
ATOM     15  C   UNL     1       4.358   5.270  17.627  0.00  0.00    +0.000 C 
BRANCH  15  16
ATOM     16  N   UNL     1       3.764   3.908  17.749  0.00  0.00    +0.000 N 
ATOM     17  C   UNL     1       4.233   2.853  18.498  0.00  0.00    +0.000 A 
ATOM     18  C   UNL     1       3.358   1.817  18.280  0.00  0.00    +0.000 A 
ATOM     19  N   UNL     1       2.356   2.205  17.441  0.00  0.00    +0.000 NA
ATOM     20  C   UNL     1       2.623   3.454  17.132  0.00  0.00    +0.000 A 
ENDBRANCH  15  16
BRANCH  15  21
ATOM     21  N   UNL     1       5.703   5.273  18.271  0.00  0.00    +0.000 N 
ATOM     22  C   UNL     1       6.934   5.374  17.661  0.00  0.00    +0.000 A 
ATOM     23  C   UNL     1       7.849   5.492  18.680  0.00  0.00    +0.000 A 
ATOM     24  N   UNL     1       7.229   5.451  19.893  0.00  0.00    +0.000 NA
ATOM     25  C   UNL     1       5.951   5.306  19.625  0.00  0.00    +0.000 A 
ENDBRANCH  15  21
ENDBRANCH   1  15
TORSDOF 3
ENDMDL
MODEL 7
REMARK VINA RESULT:      -7.3      1.713      2.914
REMARK  Name = 
REMARK  4 active torsions:
REMARK  status: ('A' for Active; 'I' for Inactive)
REMARK    1  A    between atoms: C_1  and  C_2
REMARK    2  A    between atoms: C_2  and  C_3
REMARK    3  A    between atoms: C_2  and  N_16
REMARK    4  A    between atoms: C_2  and  N_21
REMARK                            x       y       z     vdW  Elec       q    Type
REMARK                         _______ _______ _______ _____ _____    ______ ____
ROOT
ATOM      1  C   UNL     1       3.619   5.980  18.348  0.00  0.00    +0.000 A 
ATOM      2  C   UNL     1       3.418   7.189  17.612  0.00  0.00    +0.000 A 
ATOM      3  C   UNL     1       2.625   8.224  18.121  0.00  0.00    +0.000 A 
ATOM      4  C   UNL     1       2.015   8.006  19.338  0.00  0.00    +0.000 A 
ATOM      5  C   UNL     1       2.166   6.857  20.083  0.00  0.00    +0.000 A 
ATOM      6  C   UNL     1       3.009   5.861  19.629  0.00  0.00    +0.000 A 
ATOM      7  C   UNL     1       1.325   6.927  21.323  0.00  0.00    +0.000 C 
ATOM      8  C   UNL     1       0.585   8.277  21.147  0.00  0.00    +0.000 C 
ATOM      9  N   UNL     1       1.160   8.901  19.956  0.00  0.00    +0.000 N 
ATOM     10  C   UNL     1       0.924  10.164  19.481  0.00  0.00    +0.000 C 
ATOM     11  O   UNL     1       0.094  10.927  19.967  0.00  0.00    +0.000 OA
ATOM     12  C   UNL     1       1.899  10.612  18.394  0.00  0.00    +0.000 C 
ATOM     13  C   UNL     1       2.294   9.502  17.408  0.00  0.00    +0.000 C 
ENDROOT
BRANCH   1  15
ATOM     14  C   UNL     1       4.418   4.942  16.254  0.00  0.00    +0.000 C 
ATOM     15  C   UNL     1       4.558   4.848  17.804  0.00  0.00    +0.000 C 
BRANCH  15  16
ATOM     16  N   UNL     1       4.136   3.501  18.288  0.00  0.00    +0.000 N 
ATOM     17  C   UNL     1       3.287   2.615  17.665  0.00  0.00    +0.000 A 
ATOM     18  C   UNL     1       3.201   1.526  18.497  0.00  0.00    +0.000 A 
ATOM     19  N   UNL     1       3.986   1.703  19.599  0.00  0.00    +0.000 NA
ATOM     20  C   UNL     1       4.527   2.891  19.454  0.00  0.00    +0.000 A 
ENDBRANCH  15  16
BRANCH  15  21
ATOM     21  N   UNL     1       5.971   5.090  18.211  0.00  0.00    +0.000 N 
ATOM     22  C   UNL     1       6.428   5.749  19.331  0.00  0.00    +0.000 A 
ATOM     23  C   UNL     1       7.791   5.570  19.342  0.00  0.00    +0.000 A 
ATOM     24  N   UNL     1       8.191   4.840  18.263  0.00  0.00    +0.000 NA
ATOM     25  C   UNL     1       7.090   4.577  17.595  0.00  0.00    +0.000 A 
ENDBRANCH  15  21
ENDBRANCH   1  15
TORSDOF 3
ENDMDL
MODEL 8
REMARK VINA RESULT:      -7.2      1.909      2.363
REMARK  Name = 
REMARK  4 active torsions:
REMARK  status: ('A' for Active; 'I' for Inactive)
REMARK    1  A    between atoms: C_1  and  C_2
REMARK    2  A    between atoms: C_2  and  C_3
REMARK    3  A    between atoms: C_2  and  N_16
REMARK    4  A    between atoms: C_2  and  N_21
REMARK                            x       y       z     vdW  Elec       q    Type
REMARK                         _______ _______ _______ _____ _____    ______ ____
ROOT
ATOM      1  C   UNL     1       3.277   7.073  18.227  0.00  0.00    +0.000 A 
ATOM      2  C   UNL     1       2.656   6.806  19.487  0.00  0.00    +0.000 A 
ATOM      3  C   UNL     1       1.772   7.722  20.068  0.00  0.00    +0.000 A 
ATOM      4  C   UNL     1       1.562   8.905  19.392  0.00  0.00    +0.000 A 
ATOM      5  C   UNL     1       2.141   9.217  18.182  0.00  0.00    +0.000 A 
ATOM      6  C   UNL     1       2.954   8.288  17.561  0.00  0.00    +0.000 A 
ATOM      7  C   UNL     1       1.743  10.599  17.755  0.00  0.00    +0.000 C 
ATOM      8  C   UNL     1       0.896  11.086  18.957  0.00  0.00    +0.000 C 
ATOM      9  N   UNL     1       0.762   9.936  19.850  0.00  0.00    +0.000 N 
ATOM     10  C   UNL     1      -0.015   9.841  20.975  0.00  0.00    +0.000 C 
ATOM     11  O   UNL     1      -0.651  10.782  21.441  0.00  0.00    +0.000 OA
ATOM     12  C   UNL     1      -0.161   8.419  21.511  0.00  0.00    +0.000 C 
ATOM     13  C   UNL     1       1.119   7.576  21.410  0.00  0.00    +0.000 C 
ENDROOT
BRANCH   1  15
ATOM     14  C   UNL     1       4.398   6.540  16.092  0.00  0.00    +0.000 C 
ATOM     15  C   UNL     1       4.219   6.018  17.550  0.00  0.00    +0.000 C 
BRANCH  15  16
ATOM     16  N   UNL     1       3.613   4.655  17.549  0.00  0.00    +0.000 N 
ATOM     17  C   UNL     1       4.270   3.445  17.532  0.00  0.00    +0.000 A 
ATOM     18  C   UNL     1       3.289   2.484  17.528  0.00  0.00    +0.000 A 
ATOM     19  N   UNL     1       2.054   3.060  17.565  0.00  0.00    +0.000 NA
ATOM     20  C   UNL     1       2.273   4.355  17.570  0.00  0.00    +0.000 A 
ENDBRANCH  15  16
BRANCH  15  21
ATOM     21  N   UNL     1       5.538   5.962  18.244  0.00  0.00    +0.000 N 
ATOM     22  C   UNL     1       5.854   5.297  19.408  0.00  0.00    +0.000 A 
ATOM     23  C   UNL     1       7.216   5.415  19.549  0.00  0.00    +0.000 A 
ATOM     24  N   UNL     1       7.747   6.142  18.525  0.00  0.00    +0.000 NA
ATOM     25  C   UNL     1       6.725   6.469  17.766  0.00  0.00    +0.000 A 
ENDBRANCH  15  21
ENDBRANCH   1  15
TORSDOF 3
ENDMDL
MODEL 9
REMARK VINA RESULT:      -7.1      3.633      6.224
REMARK  Name = 
REMARK  4 active torsions:
REMARK  status: ('A' for Active; 'I' for Inactive)
REMARK    1  A    between atoms: C_1  and  C_2
REMARK    2  A    between atoms: C_2  and  C_3
REMARK    3  A    between atoms: C_2  and  N_16
REMARK    4  A    between atoms: C_2  and  N_21
REMARK                            x       y       z     vdW  Elec       q    Type
REMARK                         _______ _______ _______ _____ _____    ______ ____
ROOT
ATOM      1  C   UNL     1       4.622   5.232  17.397  0.00  0.00    +0.000 A 
ATOM      2  C   UNL     1       3.861   5.850  18.438  0.00  0.00    +0.000 A 
ATOM      3  C   UNL     1       3.091   5.087  19.322  0.00  0.00    +0.000 A 
ATOM      4  C   UNL     1       3.067   3.725  19.118  0.00  0.00    +0.000 A 
ATOM      5  C   UNL     1       3.771   3.079  18.125  0.00  0.00    +0.000 A 
ATOM      6  C   UNL     1       4.597   3.813  17.295  0.00  0.00    +0.000 A 
ATOM      7  C   UNL     1       3.478   1.608  18.150  0.00  0.00    +0.000 C 
ATOM      8  C   UNL     1       2.416   1.501  19.273  0.00  0.00    +0.000 C 
ATOM      9  N   UNL     1       2.318   2.834  19.866  0.00  0.00    +0.000 N 
ATOM     10  C   UNL     1       1.611   3.199  20.982  0.00  0.00    +0.000 C 
ATOM     11  O   UNL     1       0.868   2.437  21.593  0.00  0.00    +0.000 OA
ATOM     12  C   UNL     1       1.953   4.593  21.505  0.00  0.00    +0.000 C 
ATOM     13  C   UNL     1       2.205   5.633  20.403  0.00  0.00    +0.000 C 
ENDROOT
BRANCH   1  15
ATOM     14  C   UNL     1       4.606   7.237  15.955  0.00  0.00    +0.000 C 
ATOM     15  C   UNL     1       5.533   6.084  16.445  0.00  0.00    +0.000 C 
BRANCH  15  16
ATOM     16  N   UNL     1       6.028   5.280  15.290  0.00  0.00    +0.000 N 
ATOM     17  C   UNL     1       7.331   5.132  14.870  0.00  0.00    +0.000 A 
ATOM     18  C   UNL     1       7.280   4.313  13.769  0.00  0.00    +0.000 A 
ATOM     19  N   UNL     1       5.996   3.934  13.512  0.00  0.00    +0.000 NA
ATOM     20  C   UNL     1       5.267   4.529  14.428  0.00  0.00    +0.000 A 
ENDBRANCH  15  16
BRANCH  15  21
ATOM     21  N   UNL     1       6.701   6.639  17.187  0.00  0.00    +0.000 N 
ATOM     22  C   UNL     1       7.197   7.924  17.144  0.00  0.00    +0.000 A 
ATOM     23  C   UNL     1       8.168   7.983  18.115  0.00  0.00    +0.000 A 
ATOM     24  N   UNL     1       8.300   6.779  18.741  0.00  0.00    +0.000 NA
ATOM     25  C   UNL     1       7.424   5.989  18.162  0.00  0.00    +0.000 A 
ENDBRANCH  15  21
ENDBRANCH   1  15
TORSDOF 3
ENDMDL
