MODEL 1
REMARK VINA RESULT:      -8.0      0.000      0.000
REMARK  Name = 
REMARK  3 active torsions:
REMARK  status: ('A' for Active; 'I' for Inactive)
REMARK    1  A    between atoms: C_4  and  C_5
REMARK    2  A    between atoms: N_13  and  C_14
REMARK    3  A    between atoms: C_14  and  C_15
REMARK                            x       y       z     vdW  Elec       q    Type
REMARK                         _______ _______ _______ _____ _____    ______ ____
ROOT
ATOM      1  C   UNL     1      -5.152  11.440  18.520  0.00  0.00    +0.000 A 
ATOM      2  C   UNL     1      -6.524  11.219  18.423  0.00  0.00    +0.000 A 
ATOM      3  S   UNL     1      -7.410  11.860  19.717  0.00  0.00    +0.000 S 
ATOM      4  C   UNL     1      -5.991  12.389  20.490  0.00  0.00    +0.000 A 
ATOM      5  N   UNL     1      -6.094  12.977  21.691  0.00  0.00    +0.000 NA
ATOM      6  C   UNL     1      -4.912  13.299  22.203  0.00  0.00    +0.000 A 
ATOM      7  N   UNL     1      -3.714  13.106  21.645  0.00  0.00    +0.000 NA
ATOM      8  C   UNL     1      -3.630  12.563  20.413  0.00  0.00    +0.000 A 
ATOM      9  N   UNL     1      -2.372  12.420  19.863  0.00  0.00    +0.000 N 
ATOM     10  C   UNL     1      -4.824  12.137  19.771  0.00  0.00    +0.000 A 
ATOM     11  H   UNL     1      -2.194  13.019  19.069  0.00  0.00    +0.000 HD
ENDROOT
BRANCH   1  15
ATOM     12  C   UNL     1      -2.590   9.995  15.392  0.00  0.00    +0.000 A 
ATOM     13  C   UNL     1      -3.614  10.889  15.098  0.00  0.00    +0.000 A 
ATOM     14  C   UNL     1      -4.439  11.367  16.122  0.00  0.00    +0.000 A 
ATOM     15  C   UNL     1      -4.275  10.936  17.451  0.00  0.00    +0.000 A 
ATOM     16  C   UNL     1      -3.283   9.984  17.709  0.00  0.00    +0.000 A 
ATOM     17  C   UNL     1      -2.423   9.545  16.697  0.00  0.00    +0.000 A 
ENDBRANCH   1  15
BRANCH   9  18
ATOM     18  C   UNL     1      -1.235  12.194  20.756  0.00  0.00    +0.000 C 
BRANCH  18  19
ATOM     19  C   UNL     1      -0.423  10.910  20.567  0.00  0.00    +0.000 C 
ATOM     20  C   UNL     1       0.720  10.705  21.550  0.00  0.00    +0.000 C 
ATOM     21  O   UNL     1       0.960   9.280  21.580  0.00  0.00    +0.000 OA
ATOM     22  C   UNL     1       1.223   8.854  20.297  0.00  0.00    +0.000 A 
ATOM     23  C   UNL     1       1.895   7.644  20.168  0.00  0.00    +0.000 A 
ATOM     24  C   UNL     1       2.452   7.309  18.938  0.00  0.00    +0.000 A 
ATOM     25  C   UNL     1       2.313   8.178  17.851  0.00  0.00    +0.000 A 
ATOM     26  C   UNL     1       1.510   9.321  17.953  0.00  0.00    +0.000 A 
ATOM     27  C   UNL     1       0.923   9.639  19.170  0.00  0.00    +0.000 A 
ATOM     28  O   UNL     1       0.107  10.755  19.231  0.00  0.00    +0.000 OA
ENDBRANCH  18  19
ENDBRANCH   9  18
TORSDOF 3
ENDMDL
MODEL 2
REMARK VINA RESULT:      -7.7      4.988      9.050
REMARK  Name = 
REMARK  3 active torsions:
REMARK  status: ('A' for Active; 'I' for Inactive)
REMARK    1  A    between atoms: C_4  and  C_5
REMARK    2  A    between atoms: N_13  and  C_14
REMARK    3  A    between atoms: C_14  and  C_15
REMARK                            x       y       z     vdW  Elec       q    Type
REMARK                         _______ _______ _______ _____ _____    ______ ____
ROOT
ATOM      1  C   UNL     1       4.187   4.205  18.325  0.00  0.00    +0.000 A 
ATOM      2  C   UNL     1       4.465   2.912  17.888  0.00  0.00    +0.000 A 
ATOM      3  S   UNL     1       3.247   1.792  18.254  0.00  0.00    +0.000 S 
ATOM      4  C   UNL     1       2.341   2.974  19.074  0.00  0.00    +0.000 A 
ATOM      5  N   UNL     1       1.195   2.608  19.668  0.00  0.00    +0.000 NA
ATOM      6  C   UNL     1       0.612   3.612  20.311  0.00  0.00    +0.000 A 
ATOM      7  N   UNL     1       1.043   4.873  20.392  0.00  0.00    +0.000 NA
ATOM      8  C   UNL     1       2.168   5.239  19.744  0.00  0.00    +0.000 A 
ATOM      9  N   UNL     1       2.551   6.563  19.827  0.00  0.00    +0.000 N 
ATOM     10  C   UNL     1       2.910   4.245  19.051  0.00  0.00    +0.000 A 
ATOM     11  H   UNL     1       2.479   7.073  18.958  0.00  0.00    +0.000 HD
ENDROOT
BRANCH   1  15
ATOM     12  C   UNL     1       7.067   7.291  17.543  0.00  0.00    +0.000 A 
ATOM     13  C   UNL     1       7.359   6.279  18.452  0.00  0.00    +0.000 A 
ATOM     14  C   UNL     1       6.422   5.268  18.694  0.00  0.00    +0.000 A 
ATOM     15  C   UNL     1       5.168   5.269  18.059  0.00  0.00    +0.000 A 
ATOM     16  C   UNL     1       4.873   6.334  17.203  0.00  0.00    +0.000 A 
ATOM     17  C   UNL     1       5.826   7.317  16.917  0.00  0.00    +0.000 A 
ENDBRANCH   1  15
BRANCH   9  18
ATOM     18  C   UNL     1       2.219   7.317  21.036  0.00  0.00    +0.000 C 
BRANCH  18  19
ATOM     19  C   UNL     1       1.321   8.547  20.885  0.00  0.00    +0.000 C 
ATOM     20  C   UNL     1       0.026   8.517  21.684  0.00  0.00    +0.000 C 
ATOM     21  O   UNL     1      -0.358   9.900  21.859  0.00  0.00    +0.000 OA
ATOM     22  C   UNL     1      -0.464  10.485  20.617  0.00  0.00    +0.000 A 
ATOM     23  C   UNL     1      -1.227  11.645  20.538  0.00  0.00    +0.000 A 
ATOM     24  C   UNL     1      -1.621  12.108  19.287  0.00  0.00    +0.000 A 
ATOM     25  C   UNL     1      -1.231  11.420  18.134  0.00  0.00    +0.000 A 
ATOM     26  C   UNL     1      -0.342  10.341  18.217  0.00  0.00    +0.000 A 
ATOM     27  C   UNL     1       0.081   9.897  19.463  0.00  0.00    +0.000 A 
ATOM     28  O   UNL     1       0.987   8.852  19.511  0.00  0.00    +0.000 OA
ENDBRANCH  18  19
ENDBRANCH   9  18
TORSDOF 3
ENDMDL
MODEL 3
REMARK VINA RESULT:      -7.6      5.489      9.427
REMARK  Name = 
REMARK  3 active torsions:
REMARK  status: ('A' for Active; 'I' for Inactive)
REMARK    1  A    between atoms: C_4  and  C_5
REMARK    2  A    between atoms: N_13  and  C_14
REMARK    3  A    between atoms: C_14  and  C_15
REMARK                            x       y       z     vdW  Elec       q    Type
REMARK                         _______ _______ _______ _____ _____    ______ ____
ROOT
ATOM      1  C   UNL     1       3.797   3.873  18.025  0.00  0.00    +0.000 A 
ATOM      2  C   UNL     1       4.379   2.831  17.307  0.00  0.00    +0.000 A 
ATOM      3  S   UNL     1       5.371   3.352  16.034  0.00  0.00    +0.000 S 
ATOM      4  C   UNL     1       5.000   4.981  16.349  0.00  0.00    +0.000 A 
ATOM      5  N   UNL     1       5.514   5.923  15.544  0.00  0.00    +0.000 NA
ATOM      6  C   UNL     1       5.110   7.145  15.870  0.00  0.00    +0.000 A 
ATOM      7  N   UNL     1       4.299   7.483  16.876  0.00  0.00    +0.000 NA
ATOM      8  C   UNL     1       3.833   6.529  17.709  0.00  0.00    +0.000 A 
ATOM      9  N   UNL     1       3.029   6.933  18.756  0.00  0.00    +0.000 N 
ATOM     10  C   UNL     1       4.161   5.172  17.444  0.00  0.00    +0.000 A 
ATOM     11  H   UNL     1       3.449   6.826  19.669  0.00  0.00    +0.000 HD
ENDROOT
BRANCH   1  15
ATOM     12  C   UNL     1       1.253   2.936  21.354  0.00  0.00    +0.000 A 
ATOM     13  C   UNL     1       2.618   2.676  21.424  0.00  0.00    +0.000 A 
ATOM     14  C   UNL     1       3.445   2.995  20.342  0.00  0.00    +0.000 A 
ATOM     15  C   UNL     1       2.919   3.547  19.160  0.00  0.00    +0.000 A 
ATOM     16  C   UNL     1       1.535   3.734  19.089  0.00  0.00    +0.000 A 
ATOM     17  C   UNL     1       0.712   3.466  20.188  0.00  0.00    +0.000 A 
ENDBRANCH   1  15
BRANCH   9  18
ATOM     18  C   UNL     1       2.186   8.116  18.580  0.00  0.00    +0.000 C 
BRANCH  18  19
ATOM     19  C   UNL     1       1.552   8.733  19.829  0.00  0.00    +0.000 C 
ATOM     20  C   UNL     1       0.906   7.748  20.792  0.00  0.00    +0.000 C 
ATOM     21  O   UNL     1       0.896   8.407  22.079  0.00  0.00    +0.000 OA
ATOM     22  C   UNL     1       0.230   9.605  21.952  0.00  0.00    +0.000 A 
ATOM     23  C   UNL     1      -0.264  10.171  23.122  0.00  0.00    +0.000 A 
ATOM     24  C   UNL     1      -1.192  11.203  23.032  0.00  0.00    +0.000 A 
ATOM     25  C   UNL     1      -1.597  11.669  21.777  0.00  0.00    +0.000 A 
ATOM     26  C   UNL     1      -0.984  11.195  20.611  0.00  0.00    +0.000 A 
ATOM     27  C   UNL     1      -0.031  10.188  20.700  0.00  0.00    +0.000 A 
ATOM     28  O   UNL     1       0.583   9.765  19.533  0.00  0.00    +0.000 OA
ENDBRANCH  18  19
ENDBRANCH   9  18
TORSDOF 3
ENDMDL
MODEL 4
REMARK VINA RESULT:      -7.6      5.077      9.275
REMARK  Name = 
REMARK  3 active torsions:
REMARK  status: ('A' for Active; 'I' for Inactive)
REMARK    1  A    between atoms: C_4  and  C_5
REMARK    2  A    between atoms: N_13  and  C_14
REMARK    3  A    between atoms: C_14  and  C_15
REMARK                            x       y       z     vdW  Elec       q    Type
REMARK                         _______ _______ _______ _____ _____    ______ ____
ROOT
ATOM      1  C   UNL     1       4.292   4.095  18.461  0.00  0.00    +0.000 A 
ATOM      2  C   UNL     1       4.624   2.781  18.140  0.00  0.00    +0.000 A 
ATOM      3  S   UNL     1       3.424   1.657  18.552  0.00  0.00    +0.000 S 
ATOM      4  C   UNL     1       2.454   2.872  19.239  0.00  0.00    +0.000 A 
ATOM      5  N   UNL     1       1.297   2.519  19.819  0.00  0.00    +0.000 NA
ATOM      6  C   UNL     1       0.660   3.554  20.356  0.00  0.00    +0.000 A 
ATOM      7  N   UNL     1       1.052   4.830  20.350  0.00  0.00    +0.000 NA
ATOM      8  C   UNL     1       2.191   5.177  19.716  0.00  0.00    +0.000 A 
ATOM      9  N   UNL     1       2.534   6.515  19.704  0.00  0.00    +0.000 N 
ATOM     10  C   UNL     1       2.987   4.154  19.133  0.00  0.00    +0.000 A 
ATOM     11  H   UNL     1       2.480   6.951  18.794  0.00  0.00    +0.000 HD
ENDROOT
BRANCH   1  15
ATOM     12  C   UNL     1       7.113   7.197  17.535  0.00  0.00    +0.000 A 
ATOM     13  C   UNL     1       7.396   6.272  18.535  0.00  0.00    +0.000 A 
ATOM     14  C   UNL     1       6.480   5.255  18.824  0.00  0.00    +0.000 A 
ATOM     15  C   UNL     1       5.252   5.165  18.144  0.00  0.00    +0.000 A 
ATOM     16  C   UNL     1       4.961   6.147  17.192  0.00  0.00    +0.000 A 
ATOM     17  C   UNL     1       5.897   7.133  16.862  0.00  0.00    +0.000 A 
ENDBRANCH   1  15
BRANCH   9  18
ATOM     18  C   UNL     1       2.133   7.353  20.835  0.00  0.00    +0.000 C 
BRANCH  18  19
ATOM     19  C   UNL     1       1.090   8.444  20.580  0.00  0.00    +0.000 C 
ATOM     20  C   UNL     1       1.407   9.404  19.444  0.00  0.00    +0.000 C 
ATOM     21  O   UNL     1       0.134   9.938  19.015  0.00  0.00    +0.000 OA
ATOM     22  C   UNL     1      -0.486  10.517  20.099  0.00  0.00    +0.000 A 
ATOM     23  C   UNL     1      -1.482  11.447  19.824  0.00  0.00    +0.000 A 
ATOM     24  C   UNL     1      -1.929  12.279  20.846  0.00  0.00    +0.000 A 
ATOM     25  C   UNL     1      -1.389  12.156  22.130  0.00  0.00    +0.000 A 
ATOM     26  C   UNL     1      -0.495  11.121  22.430  0.00  0.00    +0.000 A 
ATOM     27  C   UNL     1      -0.074  10.266  21.420  0.00  0.00    +0.000 A 
ATOM     28  O   UNL     1       0.782   9.230  21.754  0.00  0.00    +0.000 OA
ENDBRANCH  18  19
ENDBRANCH   9  18
TORSDOF 3
ENDMDL
MODEL 5
REMARK VINA RESULT:      -7.6      7.016      9.919
REMARK  Name = 
REMARK  3 active torsions:
REMARK  status: ('A' for Active; 'I' for Inactive)
REMARK    1  A    between atoms: C_4  and  C_5
REMARK    2  A    between atoms: N_13  and  C_14
REMARK    3  A    between atoms: C_14  and  C_15
REMARK                            x       y       z     vdW  Elec       q    Type
REMARK                         _______ _______ _______ _____ _____    ______ ____
ROOT
ATOM      1  C   UNL     1       2.147   5.492  19.767  0.00  0.00    +0.000 A 
ATOM      2  C   UNL     1       0.993   4.821  20.165  0.00  0.00    +0.000 A 
ATOM      3  S   UNL     1       1.269   3.219  20.645  0.00  0.00    +0.000 S 
ATOM      4  C   UNL     1       2.923   3.341  20.268  0.00  0.00    +0.000 A 
ATOM      5  N   UNL     1       3.697   2.255  20.416  0.00  0.00    +0.000 NA
ATOM      6  C   UNL     1       4.953   2.471  20.044  0.00  0.00    +0.000 A 
ATOM      7  N   UNL     1       5.469   3.612  19.579  0.00  0.00    +0.000 NA
ATOM      8  C   UNL     1       4.690   4.710  19.487  0.00  0.00    +0.000 A 
ATOM      9  N   UNL     1       5.279   5.875  19.038  0.00  0.00    +0.000 N 
ATOM     10  C   UNL     1       3.313   4.599  19.818  0.00  0.00    +0.000 A 
ATOM     11  H   UNL     1       5.360   6.598  19.738  0.00  0.00    +0.000 HD
ENDROOT
BRANCH   1  15
ATOM     12  C   UNL     1       1.811   9.575  18.483  0.00  0.00    +0.000 A 
ATOM     13  C   UNL     1       2.307   8.609  17.614  0.00  0.00    +0.000 A 
ATOM     14  C   UNL     1       2.403   7.278  18.032  0.00  0.00    +0.000 A 
ATOM     15  C   UNL     1       2.036   6.894  19.335  0.00  0.00    +0.000 A 
ATOM     16  C   UNL     1       1.606   7.896  20.211  0.00  0.00    +0.000 A 
ATOM     17  C   UNL     1       1.458   9.219  19.780  0.00  0.00    +0.000 A 
ENDBRANCH   1  15
BRANCH   9  18
ATOM     18  C   UNL     1       6.392   5.781  18.091  0.00  0.00    +0.000 C 
BRANCH  18  19
ATOM     19  C   UNL     1       6.085   5.279  16.678  0.00  0.00    +0.000 C 
ATOM     20  C   UNL     1       5.727   3.805  16.567  0.00  0.00    +0.000 C 
ATOM     21  O   UNL     1       4.958   3.679  15.350  0.00  0.00    +0.000 OA
ATOM     22  C   UNL     1       5.710   4.166  14.304  0.00  0.00    +0.000 A 
ATOM     23  C   UNL     1       5.350   3.746  13.029  0.00  0.00    +0.000 A 
ATOM     24  C   UNL     1       6.237   3.952  11.976  0.00  0.00    +0.000 A 
ATOM     25  C   UNL     1       7.459   4.590  12.209  0.00  0.00    +0.000 A 
ATOM     26  C   UNL     1       7.746   5.140  13.465  0.00  0.00    +0.000 A 
ATOM     27  C   UNL     1       6.847   4.968  14.509  0.00  0.00    +0.000 A 
ATOM     28  O   UNL     1       7.142   5.552  15.729  0.00  0.00    +0.000 OA
ENDBRANCH  18  19
ENDBRANCH   9  18
TORSDOF 3
ENDMDL
MODEL 6
REMARK VINA RESULT:      -7.5      5.705      9.349
REMARK  Name = 
REMARK  3 active torsions:
REMARK  status: ('A' for Active; 'I' for Inactive)
REMARK    1  A    between atoms: C_4  and  C_5
REMARK    2  A    between atoms: N_13  and  C_14
REMARK    3  A    between atoms: C_14  and  C_15
REMARK                            x       y       z     vdW  Elec       q    Type
REMARK                         _______ _______ _______ _____ _____    ______ ____
ROOT
ATOM      1  C   UNL     1       3.847   4.113  17.790  0.00  0.00    +0.000 A 
ATOM      2  C   UNL     1       4.496   2.998  17.265  0.00  0.00    +0.000 A 
ATOM      3  S   UNL     1       5.618   3.373  16.051  0.00  0.00    +0.000 S 
ATOM      4  C   UNL     1       5.223   5.025  16.130  0.00  0.00    +0.000 A 
ATOM      5  N   UNL     1       5.823   5.870  15.278  0.00  0.00    +0.000 NA
ATOM      6  C   UNL     1       5.392   7.119  15.413  0.00  0.00    +0.000 A 
ATOM      7  N   UNL     1       4.482   7.566  16.281  0.00  0.00    +0.000 NA
ATOM      8  C   UNL     1       3.927   6.714  17.168  0.00  0.00    +0.000 A 
ATOM      9  N   UNL     1       3.020   7.232  18.070  0.00  0.00    +0.000 N 
ATOM     10  C   UNL     1       4.275   5.338  17.101  0.00  0.00    +0.000 A 
ATOM     11  H   UNL     1       3.341   7.236  19.028  0.00  0.00    +0.000 HD
ENDROOT
BRANCH   1  15
ATOM     12  C   UNL     1       0.947   3.511  20.898  0.00  0.00    +0.000 A 
ATOM     13  C   UNL     1       0.680   3.081  19.603  0.00  0.00    +0.000 A 
ATOM     14  C   UNL     1       1.633   3.267  18.596  0.00  0.00    +0.000 A 
ATOM     15  C   UNL     1       2.853   3.916  18.857  0.00  0.00    +0.000 A 
ATOM     16  C   UNL     1       3.068   4.400  20.152  0.00  0.00    +0.000 A 
ATOM     17  C   UNL     1       2.142   4.169  21.173  0.00  0.00    +0.000 A 
ENDBRANCH   1  15
BRANCH   9  18
ATOM     18  C   UNL     1       2.204   8.379  17.668  0.00  0.00    +0.000 C 
BRANCH  18  19
ATOM     19  C   UNL     1       1.313   9.028  18.730  0.00  0.00    +0.000 C 
ATOM     20  C   UNL     1       1.365  10.547  18.791  0.00  0.00    +0.000 C 
ATOM     21  O   UNL     1       0.118  10.958  19.396  0.00  0.00    +0.000 OA
ATOM     22  C   UNL     1      -0.000  10.338  20.620  0.00  0.00    +0.000 A 
ATOM     23  C   UNL     1      -0.878  10.917  21.529  0.00  0.00    +0.000 A 
ATOM     24  C   UNL     1      -0.819  10.529  22.864  0.00  0.00    +0.000 A 
ATOM     25  C   UNL     1       0.102   9.557  23.267  0.00  0.00    +0.000 A 
ATOM     26  C   UNL     1       0.878   8.876  22.320  0.00  0.00    +0.000 A 
ATOM     27  C   UNL     1       0.794   9.236  20.981  0.00  0.00    +0.000 A 
ATOM     28  O   UNL     1       1.547   8.522  20.064  0.00  0.00    +0.000 OA
ENDBRANCH  18  19
ENDBRANCH   9  18
TORSDOF 3
ENDMDL
MODEL 7
REMARK VINA RESULT:      -7.3      0.785      1.734
REMARK  Name = 
REMARK  3 active torsions:
REMARK  status: ('A' for Active; 'I' for Inactive)
REMARK    1  A    between atoms: C_4  and  C_5
REMARK    2  A    between atoms: N_13  and  C_14
REMARK    3  A    between atoms: C_14  and  C_15
REMARK                            x       y       z     vdW  Elec       q    Type
REMARK                         _______ _______ _______ _____ _____    ______ ____
ROOT
ATOM      1  C   UNL     1      -5.128  11.413  18.689  0.00  0.00    +0.000 A 
ATOM      2  C   UNL     1      -6.472  11.075  18.828  0.00  0.00    +0.000 A 
ATOM      3  S   UNL     1      -7.193  11.708  20.225  0.00  0.00    +0.000 S 
ATOM      4  C   UNL     1      -5.722  12.392  20.732  0.00  0.00    +0.000 A 
ATOM      5  N   UNL     1      -5.683  13.032  21.910  0.00  0.00    +0.000 NA
ATOM      6  C   UNL     1      -4.468  13.476  22.208  0.00  0.00    +0.000 A 
ATOM      7  N   UNL     1      -3.363  13.354  21.468  0.00  0.00    +0.000 NA
ATOM      8  C   UNL     1      -3.429  12.756  20.261  0.00  0.00    +0.000 A 
ATOM      9  N   UNL     1      -2.268  12.688  19.517  0.00  0.00    +0.000 N 
ATOM     10  C   UNL     1      -4.668  12.200  19.842  0.00  0.00    +0.000 A 
ATOM     11  H   UNL     1      -2.274  13.257  18.682  0.00  0.00    +0.000 HD
ENDROOT
BRANCH   1  15
ATOM     12  C   UNL     1      -2.994   9.970  15.255  0.00  0.00    +0.000 A 
ATOM     13  C   UNL     1      -2.825   9.353  16.491  0.00  0.00    +0.000 A 
ATOM     14  C   UNL     1      -3.533   9.818  17.605  0.00  0.00    +0.000 A 
ATOM     15  C   UNL     1      -4.393  10.927  17.511  0.00  0.00    +0.000 A 
ATOM     16  C   UNL     1      -4.492  11.572  16.273  0.00  0.00    +0.000 A 
ATOM     17  C   UNL     1      -3.828  11.077  15.146  0.00  0.00    +0.000 A 
ENDBRANCH   1  15
BRANCH   9  18
ATOM     18  C   UNL     1      -0.987  12.604  20.219  0.00  0.00    +0.000 C 
BRANCH  18  19
ATOM     19  C   UNL     1      -0.057  11.439  19.871  0.00  0.00    +0.000 C 
ATOM     20  C   UNL     1      -0.263  10.824  18.494  0.00  0.00    +0.000 C 
ATOM     21  O   UNL     1       0.993  10.194  18.155  0.00  0.00    +0.000 OA
ATOM     22  C   UNL     1       1.311   9.291  19.145  0.00  0.00    +0.000 A 
ATOM     23  C   UNL     1       2.218   8.292  18.810  0.00  0.00    +0.000 A 
ATOM     24  C   UNL     1       2.348   7.190  19.649  0.00  0.00    +0.000 A 
ATOM     25  C   UNL     1       1.586   7.111  20.818  0.00  0.00    +0.000 A 
ATOM     26  C   UNL     1       0.787   8.188  21.221  0.00  0.00    +0.000 A 
ATOM     27  C   UNL     1       0.683   9.306  20.403  0.00  0.00    +0.000 A 
ATOM     28  O   UNL     1      -0.086  10.369  20.843  0.00  0.00    +0.000 OA
ENDBRANCH  18  19
ENDBRANCH   9  18
TORSDOF 3
ENDMDL
MODEL 8
REMARK VINA RESULT:      -7.3      1.151      1.944
REMARK  Name = 
REMARK  3 active torsions:
REMARK  status: ('A' for Active; 'I' for Inactive)
REMARK    1  A    between atoms: C_4  and  C_5
REMARK    2  A    between atoms: N_13  and  C_14
REMARK    3  A    between atoms: C_14  and  C_15
REMARK                            x       y       z     vdW  Elec       q    Type
REMARK                         _______ _______ _______ _____ _____    ______ ____
ROOT
ATOM      1  C   UNL     1      -4.303  11.900  18.789  0.00  0.00    +0.000 A 
ATOM      2  C   UNL     1      -5.663  12.192  18.869  0.00  0.00    +0.000 A 
ATOM      3  S   UNL     1      -6.093  13.056  20.263  0.00  0.00    +0.000 S 
ATOM      4  C   UNL     1      -4.496  13.006  20.845  0.00  0.00    +0.000 A 
ATOM      5  N   UNL     1      -4.233  13.541  22.046  0.00  0.00    +0.000 NA
ATOM      6  C   UNL     1      -2.963  13.394  22.402  0.00  0.00    +0.000 A 
ATOM      7  N   UNL     1      -1.993  12.806  21.696  0.00  0.00    +0.000 NA
ATOM      8  C   UNL     1      -2.261  12.321  20.466  0.00  0.00    +0.000 A 
ATOM      9  N   UNL     1      -1.216  11.757  19.761  0.00  0.00    +0.000 N 
ATOM     10  C   UNL     1      -3.597  12.381  19.985  0.00  0.00    +0.000 A 
ATOM     11  H   UNL     1      -0.931  12.284  18.948  0.00  0.00    +0.000 HD
ENDROOT
BRANCH   1  15
ATOM     12  C   UNL     1      -2.841   9.762  15.366  0.00  0.00    +0.000 A 
ATOM     13  C   UNL     1      -3.639  10.888  15.196  0.00  0.00    +0.000 A 
ATOM     14  C   UNL     1      -4.103  11.590  16.314  0.00  0.00    +0.000 A 
ATOM     15  C   UNL     1      -3.806  11.159  17.620  0.00  0.00    +0.000 A 
ATOM     16  C   UNL     1      -3.059   9.985  17.764  0.00  0.00    +0.000 A 
ATOM     17  C   UNL     1      -2.549   9.311  16.649  0.00  0.00    +0.000 A 
ENDBRANCH   1  15
BRANCH   9  18
ATOM     18  C   UNL     1      -0.140  11.100  20.503  0.00  0.00    +0.000 C 
BRANCH  18  19
ATOM     19  C   UNL     1       0.830  10.214  19.717  0.00  0.00    +0.000 C 
ATOM     20  C   UNL     1       0.463   9.967  18.262  0.00  0.00    +0.000 C 
ATOM     21  O   UNL     1       1.702   9.634  17.596  0.00  0.00    +0.000 OA
ATOM     22  C   UNL     1       2.266   8.553  18.236  0.00  0.00    +0.000 A 
ATOM     23  C   UNL     1       3.200   7.819  17.514  0.00  0.00    +0.000 A 
ATOM     24  C   UNL     1       3.574   6.562  17.978  0.00  0.00    +0.000 A 
ATOM     25  C   UNL     1       3.027   6.066  19.166  0.00  0.00    +0.000 A 
ATOM     26  C   UNL     1       2.202   6.873  19.960  0.00  0.00    +0.000 A 
ATOM     27  C   UNL     1       1.855   8.142  19.516  0.00  0.00    +0.000 A 
ATOM     28  O   UNL     1       1.068   8.930  20.339  0.00  0.00    +0.000 OA
ENDBRANCH  18  19
ENDBRANCH   9  18
TORSDOF 3
ENDMDL
MODEL 9
REMARK VINA RESULT:      -7.3      7.287     10.029
REMARK  Name = 
REMARK  3 active torsions:
REMARK  status: ('A' for Active; 'I' for Inactive)
REMARK    1  A    between atoms: C_4  and  C_5
REMARK    2  A    between atoms: N_13  and  C_14
REMARK    3  A    between atoms: C_14  and  C_15
REMARK                            x       y       z     vdW  Elec       q    Type
REMARK                         _______ _______ _______ _____ _____    ______ ____
ROOT
ATOM      1  C   UNL     1       2.027   4.731  19.021  0.00  0.00    +0.000 A 
ATOM      2  C   UNL     1       0.844   4.049  18.744  0.00  0.00    +0.000 A 
ATOM      3  S   UNL     1       0.997   2.362  18.823  0.00  0.00    +0.000 S 
ATOM      4  C   UNL     1       2.660   2.480  19.156  0.00  0.00    +0.000 A 
ATOM      5  N   UNL     1       3.372   1.350  19.277  0.00  0.00    +0.000 NA
ATOM      6  C   UNL     1       4.662   1.582  19.489  0.00  0.00    +0.000 A 
ATOM      7  N   UNL     1       5.258   2.772  19.596  0.00  0.00    +0.000 NA
ATOM      8  C   UNL     1       4.520   3.899  19.525  0.00  0.00    +0.000 A 
ATOM      9  N   UNL     1       5.176   5.104  19.680  0.00  0.00    +0.000 N 
ATOM     10  C   UNL     1       3.128   3.787  19.260  0.00  0.00    +0.000 A 
ATOM     11  H   UNL     1       4.945   5.598  20.530  0.00  0.00    +0.000 HD
ENDROOT
BRANCH   1  15
ATOM     12  C   UNL     1       1.989   9.022  18.910  0.00  0.00    +0.000 A 
ATOM     13  C   UNL     1       2.309   8.298  17.766  0.00  0.00    +0.000 A 
ATOM     14  C   UNL     1       2.307   6.899  17.803  0.00  0.00    +0.000 A 
ATOM     15  C   UNL     1       2.020   6.202  18.990  0.00  0.00    +0.000 A 
ATOM     16  C   UNL     1       1.770   6.954  20.142  0.00  0.00    +0.000 A 
ATOM     17  C   UNL     1       1.717   8.351  20.097  0.00  0.00    +0.000 A 
ENDBRANCH   1  15
BRANCH   9  18
ATOM     18  C   UNL     1       6.569   5.207  19.244  0.00  0.00    +0.000 C 
BRANCH  18  19
ATOM     19  C   UNL     1       6.855   5.122  17.742  0.00  0.00    +0.000 C 
ATOM     20  C   UNL     1       6.966   6.456  17.019  0.00  0.00    +0.000 C 
ATOM     21  O   UNL     1       7.760   6.197  15.839  0.00  0.00    +0.000 OA
ATOM     22  C   UNL     1       7.152   5.199  15.112  0.00  0.00    +0.000 A 
ATOM     23  C   UNL     1       7.497   5.108  13.768  0.00  0.00    +0.000 A 
ATOM     24  C   UNL     1       6.709   4.336  12.920  0.00  0.00    +0.000 A 
ATOM     25  C   UNL     1       5.602   3.650  13.430  0.00  0.00    +0.000 A 
ATOM     26  C   UNL     1       5.351   3.630  14.808  0.00  0.00    +0.000 A 
ATOM     27  C   UNL     1       6.157   4.371  15.661  0.00  0.00    +0.000 A 
ATOM     28  O   UNL     1       5.906   4.303  17.021  0.00  0.00    +0.000 OA
ENDBRANCH  18  19
ENDBRANCH   9  18
TORSDOF 3
ENDMDL
