MODEL 1
REMARK VINA RESULT:      -7.5      0.000      0.000
REMARK  Name = 
REMARK  7 active torsions:
REMARK  status: ('A' for Active; 'I' for Inactive)
REMARK    1  A    between atoms: C_2  and  C_4
REMARK    2  A    between atoms: C_4  and  C_5
REMARK    3  A    between atoms: C_5  and  S_6
REMARK    4  A    between atoms: S_6  and  C_9
REMARK    5  A    between atoms: C_9  and  C_10
REMARK    6  A    between atoms: C_10  and  N_11
REMARK    7  A    between atoms: C_13  and  C_14
REMARK                            x       y       z     vdW  Elec       q    Type
REMARK                         _______ _______ _______ _____ _____    ______ ____
ROOT
ATOM      1  C   UNL     1       5.097   4.235  19.271  0.00  0.00    +0.000 C 
ENDROOT
BRANCH   1   2
ATOM      2  N   UNL     1       5.907   4.375  18.081  0.00  0.00    +0.000 N 
ATOM      3  C   UNL     1       5.513   4.244  16.784  0.00  0.00    +0.000 A 
ATOM      4  C   UNL     1       6.669   4.456  16.066  0.00  0.00    +0.000 A 
ATOM      5  N   UNL     1       7.703   4.680  16.937  0.00  0.00    +0.000 NA
ATOM      6  N   UNL     1       7.222   4.629  18.174  0.00  0.00    +0.000 NA
BRANCH   4   7
ATOM      7  C   UNL     1       6.803   4.422  14.622  0.00  0.00    +0.000 A 
ATOM      8  C   UNL     1       7.683   5.306  13.982  0.00  0.00    +0.000 A 
ATOM      9  C   UNL     1       7.829   5.281  12.592  0.00  0.00    +0.000 A 
ATOM     10  C   UNL     1       7.087   4.380  11.829  0.00  0.00    +0.000 A 
ATOM     11  C   UNL     1       6.205   3.506  12.461  0.00  0.00    +0.000 A 
ATOM     12 CL   UNL     1       5.278   2.400  11.524  0.00  0.00    +0.000 Cl
ATOM     13  C   UNL     1       6.062   3.522  13.849  0.00  0.00    +0.000 A 
ENDBRANCH   4   7
ENDBRANCH   1   2
BRANCH   1  14
ATOM     14  C   UNL     1       4.083   5.356  19.386  0.00  0.00    +0.000 C 
BRANCH  14  15
ATOM     15  S   UNL     1       2.573   4.733  20.081  0.00  0.00    +0.000 S 
ATOM     16  O   UNL     1       1.979   5.821  20.837  0.00  0.00    +0.000 OA
ATOM     17  O   UNL     1       2.872   3.467  20.719  0.00  0.00    +0.000 OA
BRANCH  15  18
ATOM     18  C   UNL     1       1.530   4.418  18.674  0.00  0.00    +0.000 C 
BRANCH  18  19
ATOM     19  C   UNL     1       2.243   3.613  17.600  0.00  0.00    +0.000 C 
BRANCH  19  21
ATOM     20  N   UNL     1       1.271   1.636  18.569  0.00  0.00    +0.000 N 
ATOM     21  C   UNL     1       2.390   2.172  18.006  0.00  0.00    +0.000 C 
ATOM     22  O   UNL     1       3.416   1.519  17.878  0.00  0.00    +0.000 OA
ATOM     23  H   UNL     1       1.301   0.662  18.846  0.00  0.00    +0.000 HD
ATOM     24  H   UNL     1       0.394   2.131  18.652  0.00  0.00    +0.000 HD
ENDBRANCH  19  21
ENDBRANCH  18  19
ENDBRANCH  15  18
ENDBRANCH  14  15
ENDBRANCH   1  14
TORSDOF 7
ENDMDL
MODEL 2
REMARK VINA RESULT:      -7.4      1.715      2.016
REMARK  Name = 
REMARK  7 active torsions:
REMARK  status: ('A' for Active; 'I' for Inactive)
REMARK    1  A    between atoms: C_2  and  C_4
REMARK    2  A    between atoms: C_4  and  C_5
REMARK    3  A    between atoms: C_5  and  S_6
REMARK    4  A    between atoms: S_6  and  C_9
REMARK    5  A    between atoms: C_9  and  C_10
REMARK    6  A    between atoms: C_10  and  N_11
REMARK    7  A    between atoms: C_13  and  C_14
REMARK                            x       y       z     vdW  Elec       q    Type
REMARK                         _______ _______ _______ _____ _____    ______ ____
ROOT
ATOM      1  C   UNL     1       4.924   4.136  19.088  0.00  0.00    +0.000 C 
ENDROOT
BRANCH   1   2
ATOM      2  N   UNL     1       5.767   4.284  17.922  0.00  0.00    +0.000 N 
ATOM      3  C   UNL     1       5.408   4.163  16.613  0.00  0.00    +0.000 A 
ATOM      4  C   UNL     1       6.583   4.378  15.929  0.00  0.00    +0.000 A 
ATOM      5  N   UNL     1       7.593   4.594  16.829  0.00  0.00    +0.000 NA
ATOM      6  N   UNL     1       7.078   4.534  18.051  0.00  0.00    +0.000 NA
BRANCH   4   7
ATOM      7  C   UNL     1       6.757   4.355  14.489  0.00  0.00    +0.000 A 
ATOM      8  C   UNL     1       7.633   5.261  13.876  0.00  0.00    +0.000 A 
ATOM      9  C   UNL     1       7.816   5.246  12.490  0.00  0.00    +0.000 A 
ATOM     10  C   UNL     1       7.116   4.332  11.704  0.00  0.00    +0.000 A 
ATOM     11  C   UNL     1       6.237   3.436  12.308  0.00  0.00    +0.000 A 
ATOM     12 CL   UNL     1       5.360   2.314  11.341  0.00  0.00    +0.000 Cl
ATOM     13  C   UNL     1       6.056   3.441  13.691  0.00  0.00    +0.000 A 
ENDBRANCH   4   7
ENDBRANCH   1   2
BRANCH   1  14
ATOM     14  C   UNL     1       4.385   5.475  19.555  0.00  0.00    +0.000 C 
BRANCH  14  15
ATOM     15  S   UNL     1       2.748   5.721  18.914  0.00  0.00    +0.000 S 
ATOM     16  O   UNL     1       2.467   4.597  18.040  0.00  0.00    +0.000 OA
ATOM     17  O   UNL     1       2.669   7.081  18.419  0.00  0.00    +0.000 OA
BRANCH  15  18
ATOM     18  C   UNL     1       1.686   5.582  20.336  0.00  0.00    +0.000 C 
BRANCH  18  19
ATOM     19  C   UNL     1       2.191   4.551  21.331  0.00  0.00    +0.000 C 
BRANCH  19  21
ATOM     20  N   UNL     1       1.814   2.296  22.085  0.00  0.00    +0.000 N 
ATOM     21  C   UNL     1       1.501   3.227  21.141  0.00  0.00    +0.000 C 
ATOM     22  O   UNL     1       0.739   2.971  20.218  0.00  0.00    +0.000 OA
ATOM     23  H   UNL     1       1.366   1.390  22.022  0.00  0.00    +0.000 HD
ATOM     24  H   UNL     1       2.404   2.485  22.884  0.00  0.00    +0.000 HD
ENDBRANCH  19  21
ENDBRANCH  18  19
ENDBRANCH  15  18
ENDBRANCH  14  15
ENDBRANCH   1  14
TORSDOF 7
ENDMDL
MODEL 3
REMARK VINA RESULT:      -7.4      1.496      1.769
REMARK  Name = 
REMARK  7 active torsions:
REMARK  status: ('A' for Active; 'I' for Inactive)
REMARK    1  A    between atoms: C_2  and  C_4
REMARK    2  A    between atoms: C_4  and  C_5
REMARK    3  A    between atoms: C_5  and  S_6
REMARK    4  A    between atoms: S_6  and  C_9
REMARK    5  A    between atoms: C_9  and  C_10
REMARK    6  A    between atoms: C_10  and  N_11
REMARK    7  A    between atoms: C_13  and  C_14
REMARK                            x       y       z     vdW  Elec       q    Type
REMARK                         _______ _______ _______ _____ _____    ______ ____
ROOT
ATOM      1  C   UNL     1       4.952   4.518  19.542  0.00  0.00    +0.000 C 
ENDROOT
BRANCH   1   2
ATOM      2  N   UNL     1       5.063   4.861  18.141  0.00  0.00    +0.000 N 
ATOM      3  C   UNL     1       5.727   4.179  17.166  0.00  0.00    +0.000 A 
ATOM      4  C   UNL     1       5.530   4.944  16.038  0.00  0.00    +0.000 A 
ATOM      5  N   UNL     1       4.790   6.048  16.369  0.00  0.00    +0.000 NA
ATOM      6  N   UNL     1       4.508   5.985  17.665  0.00  0.00    +0.000 NA
BRANCH   4   7
ATOM      7  C   UNL     1       6.039   4.664  14.709  0.00  0.00    +0.000 A 
ATOM      8  C   UNL     1       7.241   5.247  14.283  0.00  0.00    +0.000 A 
ATOM      9  C   UNL     1       7.747   4.981  13.008  0.00  0.00    +0.000 A 
ATOM     10  C   UNL     1       7.051   4.138  12.143  0.00  0.00    +0.000 A 
ATOM     11  C   UNL     1       5.852   3.564  12.558  0.00  0.00    +0.000 A 
ATOM     12 CL   UNL     1       4.982   2.532  11.490  0.00  0.00    +0.000 Cl
ATOM     13  C   UNL     1       5.346   3.820  13.833  0.00  0.00    +0.000 A 
ENDBRANCH   4   7
ENDBRANCH   1   2
BRANCH   1  14
ATOM     14  C   UNL     1       4.439   3.102  19.727  0.00  0.00    +0.000 C 
BRANCH  14  15
ATOM     15  S   UNL     1       2.909   3.129  20.624  0.00  0.00    +0.000 S 
ATOM     16  O   UNL     1       2.470   4.512  20.663  0.00  0.00    +0.000 OA
ATOM     17  O   UNL     1       3.104   2.381  21.850  0.00  0.00    +0.000 OA
BRANCH  15  18
ATOM     18  C   UNL     1       1.771   2.227  19.594  0.00  0.00    +0.000 C 
BRANCH  18  19
ATOM     19  C   UNL     1       0.908   3.148  18.749  0.00  0.00    +0.000 C 
BRANCH  19  21
ATOM     20  N   UNL     1       1.725   5.155  17.702  0.00  0.00    +0.000 N 
ATOM     21  C   UNL     1       1.711   3.794  17.653  0.00  0.00    +0.000 C 
ATOM     22  O   UNL     1       2.292   3.180  16.769  0.00  0.00    +0.000 OA
ATOM     23  H   UNL     1       2.266   5.648  17.001  0.00  0.00    +0.000 HD
ATOM     24  H   UNL     1       1.294   5.693  18.441  0.00  0.00    +0.000 HD
ENDBRANCH  19  21
ENDBRANCH  18  19
ENDBRANCH  15  18
ENDBRANCH  14  15
ENDBRANCH   1  14
TORSDOF 7
ENDMDL
MODEL 4
REMARK VINA RESULT:      -7.4      1.624      2.309
REMARK  Name = 
REMARK  7 active torsions:
REMARK  status: ('A' for Active; 'I' for Inactive)
REMARK    1  A    between atoms: C_2  and  C_4
REMARK    2  A    between atoms: C_4  and  C_5
REMARK    3  A    between atoms: C_5  and  S_6
REMARK    4  A    between atoms: S_6  and  C_9
REMARK    5  A    between atoms: C_9  and  C_10
REMARK    6  A    between atoms: C_10  and  N_11
REMARK    7  A    between atoms: C_13  and  C_14
REMARK                            x       y       z     vdW  Elec       q    Type
REMARK                         _______ _______ _______ _____ _____    ______ ____
ROOT
ATOM      1  C   UNL     1       4.800   3.740  19.121  0.00  0.00    +0.000 C 
ENDROOT
BRANCH   1   2
ATOM      2  N   UNL     1       5.620   4.084  17.981  0.00  0.00    +0.000 N 
ATOM      3  C   UNL     1       5.343   3.878  16.663  0.00  0.00    +0.000 A 
ATOM      4  C   UNL     1       6.454   4.368  16.013  0.00  0.00    +0.000 A 
ATOM      5  N   UNL     1       7.353   4.822  16.943  0.00  0.00    +0.000 NA
ATOM      6  N   UNL     1       6.828   4.643  18.149  0.00  0.00    +0.000 NA
BRANCH   4   7
ATOM      7  C   UNL     1       6.675   4.385  14.580  0.00  0.00    +0.000 A 
ATOM      8  C   UNL     1       7.582   5.298  14.023  0.00  0.00    +0.000 A 
ATOM      9  C   UNL     1       7.811   5.321  12.644  0.00  0.00    +0.000 A 
ATOM     10  C   UNL     1       7.126   4.440  11.809  0.00  0.00    +0.000 A 
ATOM     11  C   UNL     1       6.217   3.538  12.357  0.00  0.00    +0.000 A 
ATOM     12 CL   UNL     1       5.361   2.456  11.329  0.00  0.00    +0.000 Cl
ATOM     13  C   UNL     1       5.991   3.505  13.733  0.00  0.00    +0.000 A 
ENDBRANCH   4   7
ENDBRANCH   1   2
BRANCH   1  14
ATOM     14  C   UNL     1       3.358   4.164  18.916  0.00  0.00    +0.000 C 
BRANCH  14  15
ATOM     15  S   UNL     1       2.449   2.850  18.144  0.00  0.00    +0.000 S 
ATOM     16  O   UNL     1       3.358   1.725  18.024  0.00  0.00    +0.000 OA
ATOM     17  O   UNL     1       1.792   3.397  16.974  0.00  0.00    +0.000 OA
BRANCH  15  18
ATOM     18  C   UNL     1       1.199   2.413  19.333  0.00  0.00    +0.000 C 
BRANCH  18  19
ATOM     19  C   UNL     1       1.168   3.371  20.512  0.00  0.00    +0.000 C 
BRANCH  19  21
ATOM     20  N   UNL     1       0.739   2.370  22.658  0.00  0.00    +0.000 N 
ATOM     21  C   UNL     1       1.700   2.719  21.759  0.00  0.00    +0.000 C 
ATOM     22  O   UNL     1       2.887   2.527  21.985  0.00  0.00    +0.000 OA
ATOM     23  H   UNL     1       1.034   1.909  23.510  0.00  0.00    +0.000 HD
ATOM     24  H   UNL     1      -0.252   2.474  22.487  0.00  0.00    +0.000 HD
ENDBRANCH  19  21
ENDBRANCH  18  19
ENDBRANCH  15  18
ENDBRANCH  14  15
ENDBRANCH   1  14
TORSDOF 7
ENDMDL
MODEL 5
REMARK VINA RESULT:      -7.3      1.936      2.823
REMARK  Name = 
REMARK  7 active torsions:
REMARK  status: ('A' for Active; 'I' for Inactive)
REMARK    1  A    between atoms: C_2  and  C_4
REMARK    2  A    between atoms: C_4  and  C_5
REMARK    3  A    between atoms: C_5  and  S_6
REMARK    4  A    between atoms: S_6  and  C_9
REMARK    5  A    between atoms: C_9  and  C_10
REMARK    6  A    between atoms: C_10  and  N_11
REMARK    7  A    between atoms: C_13  and  C_14
REMARK                            x       y       z     vdW  Elec       q    Type
REMARK                         _______ _______ _______ _____ _____    ______ ____
ROOT
ATOM      1  C   UNL     1       5.277   4.488  19.273  0.00  0.00    +0.000 C 
ENDROOT
BRANCH   1   2
ATOM      2  N   UNL     1       6.062   4.509  18.058  0.00  0.00    +0.000 N 
ATOM      3  C   UNL     1       5.612   4.446  16.774  0.00  0.00    +0.000 A 
ATOM      4  C   UNL     1       6.764   4.482  16.020  0.00  0.00    +0.000 A 
ATOM      5  N   UNL     1       7.846   4.541  16.858  0.00  0.00    +0.000 NA
ATOM      6  N   UNL     1       7.401   4.558  18.109  0.00  0.00    +0.000 NA
BRANCH   4   7
ATOM      7  C   UNL     1       6.847   4.436  14.573  0.00  0.00    +0.000 A 
ATOM      8  C   UNL     1       7.725   5.293  13.895  0.00  0.00    +0.000 A 
ATOM      9  C   UNL     1       7.820   5.255  12.501  0.00  0.00    +0.000 A 
ATOM     10  C   UNL     1       7.032   4.367  11.772  0.00  0.00    +0.000 A 
ATOM     11  C   UNL     1       6.152   3.519  12.441  0.00  0.00    +0.000 A 
ATOM     12 CL   UNL     1       5.167   2.429  11.545  0.00  0.00    +0.000 Cl
ATOM     13  C   UNL     1       6.057   3.548  13.832  0.00  0.00    +0.000 A 
ENDBRANCH   4   7
ENDBRANCH   1   2
BRANCH   1  14
ATOM     14  C   UNL     1       4.408   3.248  19.350  0.00  0.00    +0.000 C 
BRANCH  14  15
ATOM     15  S   UNL     1       2.725   3.711  19.672  0.00  0.00    +0.000 S 
ATOM     16  O   UNL     1       2.454   3.370  21.057  0.00  0.00    +0.000 OA
ATOM     17  O   UNL     1       1.907   3.172  18.604  0.00  0.00    +0.000 OA
BRANCH  15  18
ATOM     18  C   UNL     1       2.718   5.487  19.540  0.00  0.00    +0.000 C 
BRANCH  18  19
ATOM     19  C   UNL     1       1.749   6.131  20.517  0.00  0.00    +0.000 C 
BRANCH  19  21
ATOM     20  N   UNL     1       1.646   8.284  21.589  0.00  0.00    +0.000 N 
ATOM     21  C   UNL     1       1.775   7.631  20.400  0.00  0.00    +0.000 C 
ATOM     22  O   UNL     1       1.878   8.240  19.344  0.00  0.00    +0.000 OA
ATOM     23  H   UNL     1       1.675   9.296  21.578  0.00  0.00    +0.000 HD
ATOM     24  H   UNL     1       1.602   7.815  22.483  0.00  0.00    +0.000 HD
ENDBRANCH  19  21
ENDBRANCH  18  19
ENDBRANCH  15  18
ENDBRANCH  14  15
ENDBRANCH   1  14
TORSDOF 7
ENDMDL
MODEL 6
REMARK VINA RESULT:      -7.2      0.942      1.066
REMARK  Name = 
REMARK  7 active torsions:
REMARK  status: ('A' for Active; 'I' for Inactive)
REMARK    1  A    between atoms: C_2  and  C_4
REMARK    2  A    between atoms: C_4  and  C_5
REMARK    3  A    between atoms: C_5  and  S_6
REMARK    4  A    between atoms: S_6  and  C_9
REMARK    5  A    between atoms: C_9  and  C_10
REMARK    6  A    between atoms: C_10  and  N_11
REMARK    7  A    between atoms: C_13  and  C_14
REMARK                            x       y       z     vdW  Elec       q    Type
REMARK                         _______ _______ _______ _____ _____    ______ ____
ROOT
ATOM      1  C   UNL     1       4.049   5.790  18.801  0.00  0.00    +0.000 C 
ENDROOT
BRANCH   1   2
ATOM      2  N   UNL     1       5.005   5.337  17.815  0.00  0.00    +0.000 N 
ATOM      3  C   UNL     1       4.889   5.383  16.459  0.00  0.00    +0.000 A 
ATOM      4  C   UNL     1       6.059   4.812  16.009  0.00  0.00    +0.000 A 
ATOM      5  N   UNL     1       6.815   4.430  17.087  0.00  0.00    +0.000 NA
ATOM      6  N   UNL     1       6.156   4.760  18.192  0.00  0.00    +0.000 NA
BRANCH   4   7
ATOM      7  C   UNL     1       6.441   4.609  14.625  0.00  0.00    +0.000 A 
ATOM      8  C   UNL     1       7.466   5.382  14.062  0.00  0.00    +0.000 A 
ATOM      9  C   UNL     1       7.850   5.193  12.731  0.00  0.00    +0.000 A 
ATOM     10  C   UNL     1       7.205   4.236  11.949  0.00  0.00    +0.000 A 
ATOM     11  C   UNL     1       6.180   3.472  12.502  0.00  0.00    +0.000 A 
ATOM     12 CL   UNL     1       5.372   2.298  11.537  0.00  0.00    +0.000 Cl
ATOM     13  C   UNL     1       5.798   3.651  13.831  0.00  0.00    +0.000 A 
ENDBRANCH   4   7
ENDBRANCH   1   2
BRANCH   1  14
ATOM     14  C   UNL     1       3.911   4.794  19.937  0.00  0.00    +0.000 C 
BRANCH  14  15
ATOM     15  S   UNL     1       2.246   4.810  20.552  0.00  0.00    +0.000 S 
ATOM     16  O   UNL     1       1.888   6.202  20.756  0.00  0.00    +0.000 OA
ATOM     17  O   UNL     1       2.170   3.860  21.644  0.00  0.00    +0.000 OA
BRANCH  15  18
ATOM     18  C   UNL     1       1.265   4.190  19.202  0.00  0.00    +0.000 C 
BRANCH  18  19
ATOM     19  C   UNL     1       1.378   2.682  19.056  0.00  0.00    +0.000 C 
BRANCH  19  21
ATOM     20  N   UNL     1       3.326   1.418  18.420  0.00  0.00    +0.000 N 
ATOM     21  C   UNL     1       2.385   2.311  18.002  0.00  0.00    +0.000 C 
ATOM     22  O   UNL     1       2.400   2.771  16.868  0.00  0.00    +0.000 OA
ATOM     23  H   UNL     1       4.021   1.114  17.748  0.00  0.00    +0.000 HD
ATOM     24  H   UNL     1       3.319   0.985  19.333  0.00  0.00    +0.000 HD
ENDBRANCH  19  21
ENDBRANCH  18  19
ENDBRANCH  15  18
ENDBRANCH  14  15
ENDBRANCH   1  14
TORSDOF 7
ENDMDL
MODEL 7
REMARK VINA RESULT:      -7.2      1.954      2.575
REMARK  Name = 
REMARK  7 active torsions:
REMARK  status: ('A' for Active; 'I' for Inactive)
REMARK    1  A    between atoms: C_2  and  C_4
REMARK    2  A    between atoms: C_4  and  C_5
REMARK    3  A    between atoms: C_5  and  S_6
REMARK    4  A    between atoms: S_6  and  C_9
REMARK    5  A    between atoms: C_9  and  C_10
REMARK    6  A    between atoms: C_10  and  N_11
REMARK    7  A    between atoms: C_13  and  C_14
REMARK                            x       y       z     vdW  Elec       q    Type
REMARK                         _______ _______ _______ _____ _____    ______ ____
ROOT
ATOM      1  C   UNL     1       4.276   5.131  18.600  0.00  0.00    +0.000 C 
ENDROOT
BRANCH   1   2
ATOM      2  N   UNL     1       4.855   5.401  17.303  0.00  0.00    +0.000 N 
ATOM      3  C   UNL     1       5.232   4.498  16.354  0.00  0.00    +0.000 A 
ATOM      4  C   UNL     1       5.733   5.280  15.337  0.00  0.00    +0.000 A 
ATOM      5  N   UNL     1       5.663   6.597  15.709  0.00  0.00    +0.000 NA
ATOM      6  N   UNL     1       5.121   6.658  16.919  0.00  0.00    +0.000 NA
BRANCH   4   7
ATOM      7  C   UNL     1       6.279   4.809  14.079  0.00  0.00    +0.000 A 
ATOM      8  C   UNL     1       7.369   5.474  13.497  0.00  0.00    +0.000 A 
ATOM      9  C   UNL     1       7.910   5.027  12.289  0.00  0.00    +0.000 A 
ATOM     10  C   UNL     1       7.361   3.919  11.645  0.00  0.00    +0.000 A 
ATOM     11  C   UNL     1       6.273   3.262  12.215  0.00  0.00    +0.000 A 
ATOM     12 CL   UNL     1       5.584   1.901  11.419  0.00  0.00    +0.000 Cl
ATOM     13  C   UNL     1       5.733   3.698  13.425  0.00  0.00    +0.000 A 
ENDBRANCH   4   7
ENDBRANCH   1   2
BRANCH   1  14
ATOM     14  C   UNL     1       3.898   3.669  18.745  0.00  0.00    +0.000 C 
BRANCH  14  15
ATOM     15  S   UNL     1       2.239   3.416  18.167  0.00  0.00    +0.000 S 
ATOM     16  O   UNL     1       2.335   2.636  16.947  0.00  0.00    +0.000 OA
ATOM     17  O   UNL     1       1.570   4.701  18.173  0.00  0.00    +0.000 OA
BRANCH  15  18
ATOM     18  C   UNL     1       1.485   2.388  19.410  0.00  0.00    +0.000 C 
BRANCH  18  19
ATOM     19  C   UNL     1       0.851   3.204  20.523  0.00  0.00    +0.000 C 
BRANCH  19  21
ATOM     20  N   UNL     1       2.171   5.033  21.365  0.00  0.00    +0.000 N 
ATOM     21  C   UNL     1       1.889   3.706  21.490  0.00  0.00    +0.000 C 
ATOM     22  O   UNL     1       2.464   3.005  22.311  0.00  0.00    +0.000 OA
ATOM     23  H   UNL     1       2.849   5.434  22.002  0.00  0.00    +0.000 HD
ATOM     24  H   UNL     1       1.686   5.651  20.729  0.00  0.00    +0.000 HD
ENDBRANCH  19  21
ENDBRANCH  18  19
ENDBRANCH  15  18
ENDBRANCH  14  15
ENDBRANCH   1  14
TORSDOF 7
ENDMDL
MODEL 8
REMARK VINA RESULT:      -7.2      5.272      7.922
REMARK  Name = 
REMARK  7 active torsions:
REMARK  status: ('A' for Active; 'I' for Inactive)
REMARK    1  A    between atoms: C_2  and  C_4
REMARK    2  A    between atoms: C_4  and  C_5
REMARK    3  A    between atoms: C_5  and  S_6
REMARK    4  A    between atoms: S_6  and  C_9
REMARK    5  A    between atoms: C_9  and  C_10
REMARK    6  A    between atoms: C_10  and  N_11
REMARK    7  A    between atoms: C_13  and  C_14
REMARK                            x       y       z     vdW  Elec       q    Type
REMARK                         _______ _______ _______ _____ _____    ______ ____
ROOT
ATOM      1  C   UNL     1       4.722   4.606  18.331  0.00  0.00    +0.000 C 
ENDROOT
BRANCH   1   2
ATOM      2  N   UNL     1       3.700   5.322  19.062  0.00  0.00    +0.000 N 
ATOM      3  C   UNL     1       3.328   6.624  18.917  0.00  0.00    +0.000 A 
ATOM      4  C   UNL     1       2.339   6.791  19.860  0.00  0.00    +0.000 A 
ATOM      5  N   UNL     1       2.168   5.615  20.543  0.00  0.00    +0.000 NA
ATOM      6  N   UNL     1       3.010   4.719  20.042  0.00  0.00    +0.000 NA
BRANCH   4   7
ATOM      7  C   UNL     1       1.603   8.012  20.129  0.00  0.00    +0.000 A 
ATOM      8  C   UNL     1       1.442   8.968  19.117  0.00  0.00    +0.000 A 
ATOM      9  C   UNL     1       0.730  10.146  19.359  0.00  0.00    +0.000 A 
ATOM     10  C   UNL     1       0.182  10.383  20.619  0.00  0.00    +0.000 A 
ATOM     11  C   UNL     1       0.348   9.440  21.630  0.00  0.00    +0.000 A 
ATOM     12 CL   UNL     1      -0.316   9.733  23.191  0.00  0.00    +0.000 Cl
ATOM     13  C   UNL     1       1.051   8.259  21.392  0.00  0.00    +0.000 A 
ENDBRANCH   4   7
ENDBRANCH   1   2
BRANCH   1  14
ATOM     14  C   UNL     1       6.109   5.114  18.678  0.00  0.00    +0.000 C 
BRANCH  14  15
ATOM     15  S   UNL     1       7.175   4.962  17.267  0.00  0.00    +0.000 S 
ATOM     16  O   UNL     1       8.280   4.110  17.666  0.00  0.00    +0.000 OA
ATOM     17  O   UNL     1       7.418   6.295  16.754  0.00  0.00    +0.000 OA
BRANCH  15  18
ATOM     18  C   UNL     1       6.206   4.070  16.069  0.00  0.00    +0.000 C 
BRANCH  18  19
ATOM     19  C   UNL     1       5.879   4.916  14.851  0.00  0.00    +0.000 C 
BRANCH  19  21
ATOM     20  N   UNL     1       6.611   3.632  12.950  0.00  0.00    +0.000 N 
ATOM     21  C   UNL     1       6.883   4.700  13.752  0.00  0.00    +0.000 C 
ATOM     22  O   UNL     1       7.879   5.390  13.581  0.00  0.00    +0.000 OA
ATOM     23  H   UNL     1       7.242   3.447  12.180  0.00  0.00    +0.000 HD
ATOM     24  H   UNL     1       5.777   3.068  13.035  0.00  0.00    +0.000 HD
ENDBRANCH  19  21
ENDBRANCH  18  19
ENDBRANCH  15  18
ENDBRANCH  14  15
ENDBRANCH   1  14
TORSDOF 7
ENDMDL
MODEL 9
REMARK VINA RESULT:      -7.2      1.120      1.359
REMARK  Name = 
REMARK  7 active torsions:
REMARK  status: ('A' for Active; 'I' for Inactive)
REMARK    1  A    between atoms: C_2  and  C_4
REMARK    2  A    between atoms: C_4  and  C_5
REMARK    3  A    between atoms: C_5  and  S_6
REMARK    4  A    between atoms: S_6  and  C_9
REMARK    5  A    between atoms: C_9  and  C_10
REMARK    6  A    between atoms: C_10  and  N_11
REMARK    7  A    between atoms: C_13  and  C_14
REMARK                            x       y       z     vdW  Elec       q    Type
REMARK                         _______ _______ _______ _____ _____    ______ ____
ROOT
ATOM      1  C   UNL     1       4.979   5.819  18.999  0.00  0.00    +0.000 C 
ENDROOT
BRANCH   1   2
ATOM      2  N   UNL     1       5.804   5.402  17.887  0.00  0.00    +0.000 N 
ATOM      3  C   UNL     1       5.482   5.403  16.563  0.00  0.00    +0.000 A 
ATOM      4  C   UNL     1       6.606   4.896  15.950  0.00  0.00    +0.000 A 
ATOM      5  N   UNL     1       7.539   4.592  16.907  0.00  0.00    +0.000 NA
ATOM      6  N   UNL     1       7.034   4.908  18.094  0.00  0.00    +0.000 NA
BRANCH   4   7
ATOM      7  C   UNL     1       6.788   4.681  14.527  0.00  0.00    +0.000 A 
ATOM      8  C   UNL     1       7.721   5.449  13.818  0.00  0.00    +0.000 A 
ATOM      9  C   UNL     1       7.912   5.248  12.448  0.00  0.00    +0.000 A 
ATOM     10  C   UNL     1       7.163   4.285  11.773  0.00  0.00    +0.000 A 
ATOM     11  C   UNL     1       6.228   3.526  12.473  0.00  0.00    +0.000 A 
ATOM     12 CL   UNL     1       5.291   2.344  11.643  0.00  0.00    +0.000 Cl
ATOM     13  C   UNL     1       6.038   3.717  13.842  0.00  0.00    +0.000 A 
ENDBRANCH   4   7
ENDBRANCH   1   2
BRANCH   1  14
ATOM     14  C   UNL     1       4.052   4.705  19.449  0.00  0.00    +0.000 C 
BRANCH  14  15
ATOM     15  S   UNL     1       2.365   5.242  19.326  0.00  0.00    +0.000 S 
ATOM     16  O   UNL     1       1.962   5.045  17.946  0.00  0.00    +0.000 OA
ATOM     17  O   UNL     1       2.272   6.549  19.944  0.00  0.00    +0.000 OA
BRANCH  15  18
ATOM     18  C   UNL     1       1.455   4.084  20.327  0.00  0.00    +0.000 C 
BRANCH  18  19
ATOM     19  C   UNL     1       2.169   2.750  20.456  0.00  0.00    +0.000 C 
BRANCH  19  21
ATOM     20  N   UNL     1       0.896   1.957  18.573  0.00  0.00    +0.000 N 
ATOM     21  C   UNL     1       2.124   1.981  19.164  0.00  0.00    +0.000 C 
ATOM     22  O   UNL     1       3.081   1.397  18.673  0.00  0.00    +0.000 OA
ATOM     23  H   UNL     1       0.806   1.470  17.690  0.00  0.00    +0.000 HD
ATOM     24  H   UNL     1       0.096   2.462  18.927  0.00  0.00    +0.000 HD
ENDBRANCH  19  21
ENDBRANCH  18  19
ENDBRANCH  15  18
ENDBRANCH  14  15
ENDBRANCH   1  14
TORSDOF 7
ENDMDL
