MODEL 1
REMARK VINA RESULT:      -8.5      0.000      0.000
REMARK  Name = 
REMARK  5 active torsions:
REMARK  status: ('A' for Active; 'I' for Inactive)
REMARK    1  A    between atoms: C_1  and  C_2
REMARK    2  A    between atoms: C_2  and  C_5
REMARK    3  A    between atoms: C_9  and  C_10
REMARK    4  A    between atoms: C_14  and  C_16
REMARK    5  A    between atoms: N_23  and  C_24
REMARK                            x       y       z     vdW  Elec       q    Type
REMARK                         _______ _______ _______ _____ _____    ______ ____
ROOT
ATOM      1  C   UNL     1       3.897   6.820  17.808  0.00  0.00    +0.000 A 
ATOM      2  C   UNL     1       3.837   8.207  17.761  0.00  0.00    +0.000 A 
ATOM      3  C   UNL     1       2.524   8.568  18.124  0.00  0.00    +0.000 A 
ATOM      4  N   UNL     1       2.065   9.872  18.167  0.00  0.00    +0.000 N 
ATOM      5  C   UNL     1       0.781  10.250  18.505  0.00  0.00    +0.000 C 
ATOM      6  O   UNL     1      -0.125   9.507  18.880  0.00  0.00    +0.000 OA
ATOM      7  N   UNL     1       1.795   7.487  18.370  0.00  0.00    +0.000 NA
ATOM      8  N   UNL     1       2.655   6.441  18.330  0.00  0.00    +0.000 N 
ATOM      9  H   UNL     1       2.750  10.583  17.947  0.00  0.00    +0.000 HD
ENDROOT
BRANCH   5  10
ATOM     10  C   UNL     1       0.495  11.747  18.398  0.00  0.00    +0.000 C 
ATOM     11  C   UNL     1      -0.868  12.126  18.942  0.00  0.00    +0.000 C 
ATOM     12  N   UNL     1      -0.590  12.521  20.293  0.00  0.00    +0.000 N 
ATOM     13  C   UNL     1       0.719  12.922  20.455  0.00  0.00    +0.000 C 
ATOM     14  O   UNL     1       1.167  13.437  21.463  0.00  0.00    +0.000 OA
ATOM     15  C   UNL     1       1.482  12.601  19.195  0.00  0.00    +0.000 C 
ATOM     16  H   UNL     1      -1.289  12.818  20.967  0.00  0.00    +0.000 HD
ENDBRANCH   5  10
BRANCH   1  21
ATOM     17  C   UNL     1       6.079   4.719  15.524  0.00  0.00    +0.000 A 
ATOM     18  C   UNL     1       7.097   4.322  16.399  0.00  0.00    +0.000 A 
ATOM     19  C   UNL     1       7.042   4.680  17.741  0.00  0.00    +0.000 A 
ATOM     20  C   UNL     1       5.967   5.434  18.216  0.00  0.00    +0.000 A 
ATOM     21  C   UNL     1       4.986   5.938  17.348  0.00  0.00    +0.000 A 
ATOM     22  C   UNL     1       5.046   5.546  16.003  0.00  0.00    +0.000 A 
BRANCH  17  24
ATOM     23  C   UNL     1       7.128   4.932  13.271  0.00  0.00    +0.000 C 
ATOM     24  C   UNL     1       6.058   4.230  14.095  0.00  0.00    +0.000 C 
ATOM     25  F   UNL     1       4.855   4.443  13.486  0.00  0.00    +0.000 F 
ATOM     26  F   UNL     1       6.278   2.886  14.004  0.00  0.00    +0.000 F 
ENDBRANCH  17  24
ENDBRANCH   1  21
BRANCH   8  27
ATOM     27  C   UNL     1       2.210   5.157  18.759  0.00  0.00    +0.000 A 
ATOM     28  C   UNL     1       1.932   4.949  20.117  0.00  0.00    +0.000 A 
ATOM     29  C   UNL     1       1.319   3.761  20.524  0.00  0.00    +0.000 A 
ATOM     30  C   UNL     1       1.015   2.771  19.589  0.00  0.00    +0.000 A 
ATOM     31  C   UNL     1       1.367   2.944  18.252  0.00  0.00    +0.000 A 
ATOM     32  C   UNL     1       1.987   4.123  17.841  0.00  0.00    +0.000 A 
ENDBRANCH   8  27
TORSDOF 4
ENDMDL
MODEL 2
REMARK VINA RESULT:      -8.3      0.699      1.134
REMARK  Name = 
REMARK  5 active torsions:
REMARK  status: ('A' for Active; 'I' for Inactive)
REMARK    1  A    between atoms: C_1  and  C_2
REMARK    2  A    between atoms: C_2  and  C_5
REMARK    3  A    between atoms: C_9  and  C_10
REMARK    4  A    between atoms: C_14  and  C_16
REMARK    5  A    between atoms: N_23  and  C_24
REMARK                            x       y       z     vdW  Elec       q    Type
REMARK                         _______ _______ _______ _____ _____    ______ ____
ROOT
ATOM      1  C   UNL     1       3.688   6.910  17.976  0.00  0.00    +0.000 A 
ATOM      2  C   UNL     1       3.581   8.290  17.861  0.00  0.00    +0.000 A 
ATOM      3  C   UNL     1       2.252   8.622  18.196  0.00  0.00    +0.000 A 
ATOM      4  N   UNL     1       1.748   9.911  18.171  0.00  0.00    +0.000 N 
ATOM      5  C   UNL     1       0.449  10.259  18.480  0.00  0.00    +0.000 C 
ATOM      6  O   UNL     1      -0.435   9.505  18.884  0.00  0.00    +0.000 OA
ATOM      7  N   UNL     1       1.558   7.530  18.488  0.00  0.00    +0.000 NA
ATOM      8  N   UNL     1       2.455   6.514  18.507  0.00  0.00    +0.000 N 
ATOM      9  H   UNL     1       2.411  10.633  17.922  0.00  0.00    +0.000 HD
ENDROOT
BRANCH   5  10
ATOM     10  C   UNL     1       0.113  11.739  18.298  0.00  0.00    +0.000 C 
ATOM     11  C   UNL     1      -1.366  11.982  18.071  0.00  0.00    +0.000 C 
ATOM     12  N   UNL     1      -1.861  12.280  19.383  0.00  0.00    +0.000 N 
ATOM     13  C   UNL     1      -0.867  12.749  20.216  0.00  0.00    +0.000 C 
ATOM     14  O   UNL     1      -1.054  13.206  21.329  0.00  0.00    +0.000 OA
ATOM     15  C   UNL     1       0.461  12.584  19.523  0.00  0.00    +0.000 C 
ATOM     16  H   UNL     1      -2.832  12.474  19.609  0.00  0.00    +0.000 HD
ENDBRANCH   5  10
BRANCH   1  21
ATOM     17  C   UNL     1       6.005   4.841  15.799  0.00  0.00    +0.000 A 
ATOM     18  C   UNL     1       6.988   4.461  16.720  0.00  0.00    +0.000 A 
ATOM     19  C   UNL     1       6.866   4.821  18.057  0.00  0.00    +0.000 A 
ATOM     20  C   UNL     1       5.759   5.558  18.481  0.00  0.00    +0.000 A 
ATOM     21  C   UNL     1       4.810   6.044  17.568  0.00  0.00    +0.000 A 
ATOM     22  C   UNL     1       4.938   5.651  16.228  0.00  0.00    +0.000 A 
BRANCH  17  24
ATOM     23  C   UNL     1       7.196   5.017  13.614  0.00  0.00    +0.000 C 
ATOM     24  C   UNL     1       6.057   4.349  14.371  0.00  0.00    +0.000 C 
ATOM     25  F   UNL     1       4.900   4.596  13.689  0.00  0.00    +0.000 F 
ATOM     26  F   UNL     1       6.242   2.999  14.294  0.00  0.00    +0.000 F 
ENDBRANCH  17  24
ENDBRANCH   1  21
BRANCH   8  27
ATOM     27  C   UNL     1       2.050   5.238  18.994  0.00  0.00    +0.000 A 
ATOM     28  C   UNL     1       1.767   4.214  18.079  0.00  0.00    +0.000 A 
ATOM     29  C   UNL     1       1.552   2.913  18.540  0.00  0.00    +0.000 A 
ATOM     30  C   UNL     1       1.585   2.638  19.907  0.00  0.00    +0.000 A 
ATOM     31  C   UNL     1       1.782   3.670  20.821  0.00  0.00    +0.000 A 
ATOM     32  C   UNL     1       1.989   4.973  20.369  0.00  0.00    +0.000 A 
ENDBRANCH   8  27
TORSDOF 4
ENDMDL
MODEL 3
REMARK VINA RESULT:      -8.2      5.224      9.210
REMARK  Name = 
REMARK  5 active torsions:
REMARK  status: ('A' for Active; 'I' for Inactive)
REMARK    1  A    between atoms: C_1  and  C_2
REMARK    2  A    between atoms: C_2  and  C_5
REMARK    3  A    between atoms: C_9  and  C_10
REMARK    4  A    between atoms: C_14  and  C_16
REMARK    5  A    between atoms: N_23  and  C_24
REMARK                            x       y       z     vdW  Elec       q    Type
REMARK                         _______ _______ _______ _____ _____    ______ ____
ROOT
ATOM      1  C   UNL     1       4.626   4.803  16.740  0.00  0.00    +0.000 A 
ATOM      2  C   UNL     1       4.417   3.996  15.629  0.00  0.00    +0.000 A 
ATOM      3  C   UNL     1       5.460   4.276  14.723  0.00  0.00    +0.000 A 
ATOM      4  N   UNL     1       5.581   3.685  13.478  0.00  0.00    +0.000 N 
ATOM      5  C   UNL     1       6.584   3.953  12.568  0.00  0.00    +0.000 C 
ATOM      6  O   UNL     1       7.549   4.696  12.741  0.00  0.00    +0.000 OA
ATOM      7  N   UNL     1       6.267   5.207  15.215  0.00  0.00    +0.000 NA
ATOM      8  N   UNL     1       5.858   5.417  16.490  0.00  0.00    +0.000 N 
ATOM      9  H   UNL     1       4.877   2.995  13.253  0.00  0.00    +0.000 HD
ENDROOT
BRANCH   5  10
ATOM     10  C   UNL     1       6.453   3.233  11.226  0.00  0.00    +0.000 C 
ATOM     11  C   UNL     1       7.732   2.537  10.806  0.00  0.00    +0.000 C 
ATOM     12  N   UNL     1       7.550   1.193  11.271  0.00  0.00    +0.000 N 
ATOM     13  C   UNL     1       6.217   0.873  11.418  0.00  0.00    +0.000 C 
ATOM     14  O   UNL     1       5.794  -0.243  11.659  0.00  0.00    +0.000 OA
ATOM     15  C   UNL     1       5.398   2.126  11.245  0.00  0.00    +0.000 C 
ATOM     16  H   UNL     1       8.234   0.448  11.178  0.00  0.00    +0.000 HD
ENDBRANCH   5  10
BRANCH   1  21
ATOM     17  C   UNL     1       2.248   4.108  19.613  0.00  0.00    +0.000 A 
ATOM     18  C   UNL     1       2.070   5.391  20.144  0.00  0.00    +0.000 A 
ATOM     19  C   UNL     1       2.667   6.487  19.532  0.00  0.00    +0.000 A 
ATOM     20  C   UNL     1       3.443   6.307  18.385  0.00  0.00    +0.000 A 
ATOM     21  C   UNL     1       3.727   5.026  17.889  0.00  0.00    +0.000 A 
ATOM     22  C   UNL     1       3.097   3.936  18.504  0.00  0.00    +0.000 A 
BRANCH  17  24
ATOM     23  C   UNL     1       1.670   2.870  21.699  0.00  0.00    +0.000 C 
ATOM     24  C   UNL     1       1.502   2.927  20.187  0.00  0.00    +0.000 C 
ATOM     25  F   UNL     1       1.929   1.737  19.674  0.00  0.00    +0.000 F 
ATOM     26  F   UNL     1       0.164   2.978  19.919  0.00  0.00    +0.000 F 
ENDBRANCH  17  24
ENDBRANCH   1  21
BRANCH   8  27
ATOM     27  C   UNL     1       6.660   6.218  17.354  0.00  0.00    +0.000 A 
ATOM     28  C   UNL     1       7.259   5.627  18.474  0.00  0.00    +0.000 A 
ATOM     29  C   UNL     1       8.194   6.347  19.222  0.00  0.00    +0.000 A 
ATOM     30  C   UNL     1       8.506   7.663  18.876  0.00  0.00    +0.000 A 
ATOM     31  C   UNL     1       7.849   8.278  17.813  0.00  0.00    +0.000 A 
ATOM     32  C   UNL     1       6.908   7.567  17.068  0.00  0.00    +0.000 A 
ENDBRANCH   8  27
TORSDOF 4
ENDMDL
MODEL 4
REMARK VINA RESULT:      -8.0      4.323      8.270
REMARK  Name = 
REMARK  5 active torsions:
REMARK  status: ('A' for Active; 'I' for Inactive)
REMARK    1  A    between atoms: C_1  and  C_2
REMARK    2  A    between atoms: C_2  and  C_5
REMARK    3  A    between atoms: C_9  and  C_10
REMARK    4  A    between atoms: C_14  and  C_16
REMARK    5  A    between atoms: N_23  and  C_24
REMARK                            x       y       z     vdW  Elec       q    Type
REMARK                         _______ _______ _______ _____ _____    ______ ____
ROOT
ATOM      1  C   UNL     1       1.222   8.888  18.625  0.00  0.00    +0.000 A 
ATOM      2  C   UNL     1       1.893   8.106  17.694  0.00  0.00    +0.000 A 
ATOM      3  C   UNL     1       2.684   7.196  18.424  0.00  0.00    +0.000 A 
ATOM      4  N   UNL     1       3.524   6.263  17.843  0.00  0.00    +0.000 N 
ATOM      5  C   UNL     1       4.318   5.372  18.535  0.00  0.00    +0.000 C 
ATOM      6  O   UNL     1       4.356   5.220  19.756  0.00  0.00    +0.000 OA
ATOM      7  N   UNL     1       2.538   7.394  19.728  0.00  0.00    +0.000 NA
ATOM      8  N   UNL     1       1.545   8.307  19.857  0.00  0.00    +0.000 N 
ATOM      9  H   UNL     1       3.521   6.244  16.831  0.00  0.00    +0.000 HD
ENDROOT
BRANCH   5  10
ATOM     10  C   UNL     1       5.222   4.497  17.667  0.00  0.00    +0.000 C 
ATOM     11  C   UNL     1       4.834   4.522  16.203  0.00  0.00    +0.000 C 
ATOM     12  N   UNL     1       5.686   5.533  15.648  0.00  0.00    +0.000 N 
ATOM     13  C   UNL     1       6.824   5.721  16.403  0.00  0.00    +0.000 C 
ATOM     14  O   UNL     1       7.769   6.414  16.073  0.00  0.00    +0.000 OA
ATOM     15  C   UNL     1       6.684   4.947  17.688  0.00  0.00    +0.000 C 
ATOM     16  H   UNL     1       5.678   5.833  14.678  0.00  0.00    +0.000 HD
ENDBRANCH   5  10
BRANCH   1  21
ATOM     17  C   UNL     1      -1.693  11.111  17.647  0.00  0.00    +0.000 A 
ATOM     18  C   UNL     1      -1.209  12.376  17.998  0.00  0.00    +0.000 A 
ATOM     19  C   UNL     1       0.084  12.516  18.489  0.00  0.00    +0.000 A 
ATOM     20  C   UNL     1       0.900  11.391  18.630  0.00  0.00    +0.000 A 
ATOM     21  C   UNL     1       0.412  10.098  18.387  0.00  0.00    +0.000 A 
ATOM     22  C   UNL     1      -0.886   9.980  17.870  0.00  0.00    +0.000 A 
BRANCH  17  24
ATOM     23  C   UNL     1      -2.903  10.885  15.478  0.00  0.00    +0.000 C 
ATOM     24  C   UNL     1      -3.046  10.958  16.991  0.00  0.00    +0.000 C 
ATOM     25  F   UNL     1      -3.889  11.991  17.282  0.00  0.00    +0.000 F 
ATOM     26  F   UNL     1      -3.697   9.831  17.403  0.00  0.00    +0.000 F 
ENDBRANCH  17  24
ENDBRANCH   1  21
BRANCH   8  27
ATOM     27  C   UNL     1       1.013   8.578  21.150  0.00  0.00    +0.000 A 
ATOM     28  C   UNL     1       1.883   8.956  22.182  0.00  0.00    +0.000 A 
ATOM     29  C   UNL     1       1.362   9.404  23.399  0.00  0.00    +0.000 A 
ATOM     30  C   UNL     1      -0.018   9.443  23.600  0.00  0.00    +0.000 A 
ATOM     31  C   UNL     1      -0.880   8.988  22.605  0.00  0.00    +0.000 A 
ATOM     32  C   UNL     1      -0.366   8.531  21.391  0.00  0.00    +0.000 A 
ENDBRANCH   8  27
TORSDOF 4
ENDMDL
MODEL 5
REMARK VINA RESULT:      -8.0      1.813      2.431
REMARK  Name = 
REMARK  5 active torsions:
REMARK  status: ('A' for Active; 'I' for Inactive)
REMARK    1  A    between atoms: C_1  and  C_2
REMARK    2  A    between atoms: C_2  and  C_5
REMARK    3  A    between atoms: C_9  and  C_10
REMARK    4  A    between atoms: C_14  and  C_16
REMARK    5  A    between atoms: N_23  and  C_24
REMARK                            x       y       z     vdW  Elec       q    Type
REMARK                         _______ _______ _______ _____ _____    ______ ____
ROOT
ATOM      1  C   UNL     1       2.797   6.556  18.665  0.00  0.00    +0.000 A 
ATOM      2  C   UNL     1       2.693   7.932  18.509  0.00  0.00    +0.000 A 
ATOM      3  C   UNL     1       1.645   8.357  19.352  0.00  0.00    +0.000 A 
ATOM      4  N   UNL     1       1.219   9.669  19.453  0.00  0.00    +0.000 N 
ATOM      5  C   UNL     1       0.187  10.107  20.260  0.00  0.00    +0.000 C 
ATOM      6  O   UNL     1      -0.461   9.425  21.053  0.00  0.00    +0.000 OA
ATOM      7  N   UNL     1       1.111   7.322  19.988  0.00  0.00    +0.000 NA
ATOM      8  N   UNL     1       1.898   6.259  19.696  0.00  0.00    +0.000 N 
ATOM      9  H   UNL     1       1.732  10.339  18.896  0.00  0.00    +0.000 HD
ENDROOT
BRANCH   5  10
ATOM     10  C   UNL     1      -0.150  11.592  20.134  0.00  0.00    +0.000 C 
ATOM     11  C   UNL     1      -1.633  11.871  20.269  0.00  0.00    +0.000 C 
ATOM     12  N   UNL     1      -1.787  12.202  21.656  0.00  0.00    +0.000 N 
ATOM     13  C   UNL     1      -0.610  12.656  22.211  0.00  0.00    +0.000 C 
ATOM     14  O   UNL     1      -0.509  13.135  23.326  0.00  0.00    +0.000 OA
ATOM     15  C   UNL     1       0.506  12.445  21.220  0.00  0.00    +0.000 C 
ATOM     16  H   UNL     1      -2.669  12.425  22.106  0.00  0.00    +0.000 HD
ENDBRANCH   5  10
BRANCH   1  21
ATOM     17  C   UNL     1       5.785   4.966  16.952  0.00  0.00    +0.000 A 
ATOM     18  C   UNL     1       5.227   3.779  16.461  0.00  0.00    +0.000 A 
ATOM     19  C   UNL     1       3.870   3.527  16.629  0.00  0.00    +0.000 A 
ATOM     20  C   UNL     1       3.064   4.460  17.285  0.00  0.00    +0.000 A 
ATOM     21  C   UNL     1       3.610   5.608  17.880  0.00  0.00    +0.000 A 
ATOM     22  C   UNL     1       4.975   5.856  17.680  0.00  0.00    +0.000 A 
BRANCH  17  24
ATOM     23  C   UNL     1       7.562   6.698  17.204  0.00  0.00    +0.000 C 
ATOM     24  C   UNL     1       7.227   5.314  16.665  0.00  0.00    +0.000 C 
ATOM     25  F   UNL     1       7.514   5.304  15.331  0.00  0.00    +0.000 F 
ATOM     26  F   UNL     1       8.097   4.426  17.229  0.00  0.00    +0.000 F 
ENDBRANCH  17  24
ENDBRANCH   1  21
BRANCH   8  27
ATOM     27  C   UNL     1       1.702   5.034  20.398  0.00  0.00    +0.000 A 
ATOM     28  C   UNL     1       0.711   4.146  19.960  0.00  0.00    +0.000 A 
ATOM     29  C   UNL     1       0.631   2.867  20.516  0.00  0.00    +0.000 A 
ATOM     30  C   UNL     1       1.512   2.486  21.529  0.00  0.00    +0.000 A 
ATOM     31  C   UNL     1       2.443   3.397  22.022  0.00  0.00    +0.000 A 
ATOM     32  C   UNL     1       2.522   4.678  21.477  0.00  0.00    +0.000 A 
ENDBRANCH   8  27
TORSDOF 4
ENDMDL
MODEL 6
REMARK VINA RESULT:      -8.0      1.905      2.670
REMARK  Name = 
REMARK  5 active torsions:
REMARK  status: ('A' for Active; 'I' for Inactive)
REMARK    1  A    between atoms: C_1  and  C_2
REMARK    2  A    between atoms: C_2  and  C_5
REMARK    3  A    between atoms: C_9  and  C_10
REMARK    4  A    between atoms: C_14  and  C_16
REMARK    5  A    between atoms: N_23  and  C_24
REMARK                            x       y       z     vdW  Elec       q    Type
REMARK                         _______ _______ _______ _____ _____    ______ ____
ROOT
ATOM      1  C   UNL     1       2.808   6.555  18.719  0.00  0.00    +0.000 A 
ATOM      2  C   UNL     1       2.711   7.936  18.595  0.00  0.00    +0.000 A 
ATOM      3  C   UNL     1       1.677   8.347  19.460  0.00  0.00    +0.000 A 
ATOM      4  N   UNL     1       1.260   9.660  19.596  0.00  0.00    +0.000 N 
ATOM      5  C   UNL     1       0.241  10.086  20.424  0.00  0.00    +0.000 C 
ATOM      6  O   UNL     1      -0.402   9.391  21.210  0.00  0.00    +0.000 OA
ATOM      7  N   UNL     1       1.143   7.302  20.079  0.00  0.00    +0.000 NA
ATOM      8  N   UNL     1       1.919   6.240  19.753  0.00  0.00    +0.000 N 
ATOM      9  H   UNL     1       1.772  10.338  19.048  0.00  0.00    +0.000 HD
ENDROOT
BRANCH   5  10
ATOM     10  C   UNL     1      -0.087  11.576  20.336  0.00  0.00    +0.000 C 
ATOM     11  C   UNL     1       0.081  12.132  18.936  0.00  0.00    +0.000 C 
ATOM     12  N   UNL     1      -1.240  12.056  18.384  0.00  0.00    +0.000 N 
ATOM     13  C   UNL     1      -2.209  12.040  19.365  0.00  0.00    +0.000 C 
ATOM     14  O   UNL     1      -3.406  12.123  19.158  0.00  0.00    +0.000 OA
ATOM     15  C   UNL     1      -1.538  11.889  20.705  0.00  0.00    +0.000 C 
ATOM     16  H   UNL     1      -1.492  12.328  17.439  0.00  0.00    +0.000 HD
ENDBRANCH   5  10
BRANCH   1  21
ATOM     17  C   UNL     1       5.767   4.981  16.941  0.00  0.00    +0.000 A 
ATOM     18  C   UNL     1       5.192   3.813  16.425  0.00  0.00    +0.000 A 
ATOM     19  C   UNL     1       3.835   3.569  16.597  0.00  0.00    +0.000 A 
ATOM     20  C   UNL     1       3.043   4.493  17.283  0.00  0.00    +0.000 A 
ATOM     21  C   UNL     1       3.606   5.620  17.904  0.00  0.00    +0.000 A 
ATOM     22  C   UNL     1       4.971   5.860  17.698  0.00  0.00    +0.000 A 
BRANCH  17  24
ATOM     23  C   UNL     1       7.566   6.684  17.232  0.00  0.00    +0.000 C 
ATOM     24  C   UNL     1       7.210   5.322  16.652  0.00  0.00    +0.000 C 
ATOM     25  F   UNL     1       7.483   5.353  15.315  0.00  0.00    +0.000 F 
ATOM     26  F   UNL     1       8.075   4.406  17.178  0.00  0.00    +0.000 F 
ENDBRANCH  17  24
ENDBRANCH   1  21
BRANCH   8  27
ATOM     27  C   UNL     1       1.724   5.002  20.430  0.00  0.00    +0.000 A 
ATOM     28  C   UNL     1       0.727   4.126  19.979  0.00  0.00    +0.000 A 
ATOM     29  C   UNL     1       0.646   2.836  20.508  0.00  0.00    +0.000 A 
ATOM     30  C   UNL     1       1.532   2.430  21.507  0.00  0.00    +0.000 A 
ATOM     31  C   UNL     1       2.468   3.328  22.015  0.00  0.00    +0.000 A 
ATOM     32  C   UNL     1       2.548   4.621  21.497  0.00  0.00    +0.000 A 
ENDBRANCH   8  27
TORSDOF 4
ENDMDL
MODEL 7
REMARK VINA RESULT:      -8.0      4.295      8.699
REMARK  Name = 
REMARK  5 active torsions:
REMARK  status: ('A' for Active; 'I' for Inactive)
REMARK    1  A    between atoms: C_1  and  C_2
REMARK    2  A    between atoms: C_2  and  C_5
REMARK    3  A    between atoms: C_9  and  C_10
REMARK    4  A    between atoms: C_14  and  C_16
REMARK    5  A    between atoms: N_23  and  C_24
REMARK                            x       y       z     vdW  Elec       q    Type
REMARK                         _______ _______ _______ _____ _____    ______ ____
ROOT
ATOM      1  C   UNL     1       1.432  10.316  18.711  0.00  0.00    +0.000 A 
ATOM      2  C   UNL     1       2.038   9.500  17.765  0.00  0.00    +0.000 A 
ATOM      3  C   UNL     1       2.221   8.242  18.375  0.00  0.00    +0.000 A 
ATOM      4  N   UNL     1       2.825   7.163  17.754  0.00  0.00    +0.000 N 
ATOM      5  C   UNL     1       3.028   5.927  18.333  0.00  0.00    +0.000 C 
ATOM      6  O   UNL     1       2.653   5.571  19.449  0.00  0.00    +0.000 OA
ATOM      7  N   UNL     1       1.777   8.260  19.625  0.00  0.00    +0.000 NA
ATOM      8  N   UNL     1       1.163   9.458  19.783  0.00  0.00    +0.000 N 
ATOM      9  H   UNL     1       3.112   7.316  16.796  0.00  0.00    +0.000 HD
ENDROOT
BRANCH   5  10
ATOM     10  C   UNL     1       3.793   4.923  17.471  0.00  0.00    +0.000 C 
ATOM     11  C   UNL     1       5.104   4.490  18.095  0.00  0.00    +0.000 C 
ATOM     12  N   UNL     1       4.764   3.277  18.779  0.00  0.00    +0.000 N 
ATOM     13  C   UNL     1       3.644   2.678  18.243  0.00  0.00    +0.000 C 
ATOM     14  O   UNL     1       3.236   1.572  18.547  0.00  0.00    +0.000 OA
ATOM     15  C   UNL     1       3.022   3.622  17.247  0.00  0.00    +0.000 C 
ATOM     16  H   UNL     1       5.409   2.721  19.333  0.00  0.00    +0.000 HD
ENDBRANCH   5  10
BRANCH   1  21
ATOM     17  C   UNL     1       2.079  14.053  18.605  0.00  0.00    +0.000 A 
ATOM     18  C   UNL     1       0.785  14.555  18.423  0.00  0.00    +0.000 A 
ATOM     19  C   UNL     1      -0.302  13.689  18.401  0.00  0.00    +0.000 A 
ATOM     20  C   UNL     1      -0.101  12.316  18.563  0.00  0.00    +0.000 A 
ATOM     21  C   UNL     1       1.190  11.770  18.642  0.00  0.00    +0.000 A 
ATOM     22  C   UNL     1       2.270  12.662  18.687  0.00  0.00    +0.000 A 
BRANCH  17  24
ATOM     23  C   UNL     1       3.539  15.716  17.454  0.00  0.00    +0.000 C 
ATOM     24  C   UNL     1       3.254  14.990  18.761  0.00  0.00    +0.000 C 
ATOM     25  F   UNL     1       4.395  14.343  19.138  0.00  0.00    +0.000 F 
ATOM     26  F   UNL     1       3.039  15.935  19.724  0.00  0.00    +0.000 F 
ENDBRANCH  17  24
ENDBRANCH   1  21
BRANCH   8  27
ATOM     27  C   UNL     1       0.400   9.697  20.963  0.00  0.00    +0.000 A 
ATOM     28  C   UNL     1       0.753   9.041  22.150  0.00  0.00    +0.000 A 
ATOM     29  C   UNL     1       0.139   9.403  23.352  0.00  0.00    +0.000 A 
ATOM     30  C   UNL     1      -0.846  10.392  23.366  0.00  0.00    +0.000 A 
ATOM     31  C   UNL     1      -1.256  10.985  22.174  0.00  0.00    +0.000 A 
ATOM     32  C   UNL     1      -0.653  10.621  20.970  0.00  0.00    +0.000 A 
ENDBRANCH   8  27
TORSDOF 4
ENDMDL
MODEL 8
REMARK VINA RESULT:      -8.0      5.261      9.286
REMARK  Name = 
REMARK  5 active torsions:
REMARK  status: ('A' for Active; 'I' for Inactive)
REMARK    1  A    between atoms: C_1  and  C_2
REMARK    2  A    between atoms: C_2  and  C_5
REMARK    3  A    between atoms: C_9  and  C_10
REMARK    4  A    between atoms: C_14  and  C_16
REMARK    5  A    between atoms: N_23  and  C_24
REMARK                            x       y       z     vdW  Elec       q    Type
REMARK                         _______ _______ _______ _____ _____    ______ ____
ROOT
ATOM      1  C   UNL     1       4.801   4.946  16.686  0.00  0.00    +0.000 A 
ATOM      2  C   UNL     1       4.493   4.142  15.596  0.00  0.00    +0.000 A 
ATOM      3  C   UNL     1       5.543   4.301  14.667  0.00  0.00    +0.000 A 
ATOM      4  N   UNL     1       5.582   3.678  13.433  0.00  0.00    +0.000 N 
ATOM      5  C   UNL     1       6.591   3.827  12.502  0.00  0.00    +0.000 C 
ATOM      6  O   UNL     1       7.628   4.473  12.645  0.00  0.00    +0.000 OA
ATOM      7  N   UNL     1       6.447   5.155  15.128  0.00  0.00    +0.000 NA
ATOM      8  N   UNL     1       6.084   5.429  16.405  0.00  0.00    +0.000 N 
ATOM      9  H   UNL     1       4.810   3.057  13.233  0.00  0.00    +0.000 HD
ENDROOT
BRANCH   5  10
ATOM     10  C   UNL     1       6.365   3.099  11.178  0.00  0.00    +0.000 C 
ATOM     11  C   UNL     1       7.620   2.430  10.654  0.00  0.00    +0.000 C 
ATOM     12  N   UNL     1       7.508   1.084  11.135  0.00  0.00    +0.000 N 
ATOM     13  C   UNL     1       6.199   0.735  11.393  0.00  0.00    +0.000 C 
ATOM     14  O   UNL     1       5.823  -0.389  11.671  0.00  0.00    +0.000 OA
ATOM     15  C   UNL     1       5.340   1.969  11.287  0.00  0.00    +0.000 C 
ATOM     16  H   UNL     1       8.198   0.353  10.987  0.00  0.00    +0.000 HD
ENDBRANCH   5  10
BRANCH   1  21
ATOM     17  C   UNL     1       2.868   4.584  19.931  0.00  0.00    +0.000 A 
ATOM     18  C   UNL     1       2.399   5.889  20.123  0.00  0.00    +0.000 A 
ATOM     19  C   UNL     1       2.654   6.868  19.170  0.00  0.00    +0.000 A 
ATOM     20  C   UNL     1       3.376   6.547  18.018  0.00  0.00    +0.000 A 
ATOM     21  C   UNL     1       3.950   5.278  17.844  0.00  0.00    +0.000 A 
ATOM     22  C   UNL     1       3.661   4.298  18.804  0.00  0.00    +0.000 A 
BRANCH  17  24
ATOM     23  C   UNL     1       1.170   2.842  20.481  0.00  0.00    +0.000 C 
ATOM     24  C   UNL     1       2.490   3.480  20.891  0.00  0.00    +0.000 C 
ATOM     25  F   UNL     1       2.360   3.924  22.175  0.00  0.00    +0.000 F 
ATOM     26  F   UNL     1       3.432   2.493  20.942  0.00  0.00    +0.000 F 
ENDBRANCH  17  24
ENDBRANCH   1  21
BRANCH   8  27
ATOM     27  C   UNL     1       6.977   6.162  17.239  0.00  0.00    +0.000 A 
ATOM     28  C   UNL     1       7.248   7.503  16.938  0.00  0.00    +0.000 A 
ATOM     29  C   UNL     1       7.968   8.286  17.845  0.00  0.00    +0.000 A 
ATOM     30  C   UNL     1       8.444   7.726  19.031  0.00  0.00    +0.000 A 
ATOM     31  C   UNL     1       8.246   6.372  19.292  0.00  0.00    +0.000 A 
ATOM     32  C   UNL     1       7.537   5.583  18.386  0.00  0.00    +0.000 A 
ENDBRANCH   8  27
TORSDOF 4
ENDMDL
MODEL 9
REMARK VINA RESULT:      -7.7      1.895      2.571
REMARK  Name = 
REMARK  5 active torsions:
REMARK  status: ('A' for Active; 'I' for Inactive)
REMARK    1  A    between atoms: C_1  and  C_2
REMARK    2  A    between atoms: C_2  and  C_5
REMARK    3  A    between atoms: C_9  and  C_10
REMARK    4  A    between atoms: C_14  and  C_16
REMARK    5  A    between atoms: N_23  and  C_24
REMARK                            x       y       z     vdW  Elec       q    Type
REMARK                         _______ _______ _______ _____ _____    ______ ____
ROOT
ATOM      1  C   UNL     1       3.300   7.574  17.647  0.00  0.00    +0.000 A 
ATOM      2  C   UNL     1       3.046   8.938  17.580  0.00  0.00    +0.000 A 
ATOM      3  C   UNL     1       1.751   9.135  18.101  0.00  0.00    +0.000 A 
ATOM      4  N   UNL     1       1.128  10.368  18.175  0.00  0.00    +0.000 N 
ATOM      5  C   UNL     1      -0.144  10.585  18.668  0.00  0.00    +0.000 C 
ATOM      6  O   UNL     1      -0.886   9.744  19.172  0.00  0.00    +0.000 OA
ATOM      7  N   UNL     1       1.212   7.978  18.461  0.00  0.00    +0.000 NA
ATOM      8  N   UNL     1       2.196   7.054  18.333  0.00  0.00    +0.000 N 
ATOM      9  H   UNL     1       1.677  11.155  17.855  0.00  0.00    +0.000 HD
ENDROOT
BRANCH   5  10
ATOM     10  C   UNL     1      -0.642  12.027  18.568  0.00  0.00    +0.000 C 
ATOM     11  C   UNL     1      -2.003  12.133  17.910  0.00  0.00    +0.000 C 
ATOM     12  N   UNL     1      -2.910  12.153  19.021  0.00  0.00    +0.000 N 
ATOM     13  C   UNL     1      -2.300  12.588  20.178  0.00  0.00    +0.000 C 
ATOM     14  O   UNL     1      -2.882  12.832  21.219  0.00  0.00    +0.000 OA
ATOM     15  C   UNL     1      -0.817  12.692  19.933  0.00  0.00    +0.000 C 
ATOM     16  H   UNL     1      -3.922  12.195  18.945  0.00  0.00    +0.000 HD
ENDBRANCH   5  10
BRANCH   1  21
ATOM     17  C   UNL     1       6.422   5.434  17.395  0.00  0.00    +0.000 A 
ATOM     18  C   UNL     1       6.563   5.310  16.008  0.00  0.00    +0.000 A 
ATOM     19  C   UNL     1       5.688   5.973  15.156  0.00  0.00    +0.000 A 
ATOM     20  C   UNL     1       4.667   6.765  15.686  0.00  0.00    +0.000 A 
ATOM     21  C   UNL     1       4.432   6.827  17.069  0.00  0.00    +0.000 A 
ATOM     22  C   UNL     1       5.340   6.171  17.911  0.00  0.00    +0.000 A 
BRANCH  17  24
ATOM     23  C   UNL     1       8.140   5.911  19.139  0.00  0.00    +0.000 C 
ATOM     24  C   UNL     1       7.441   4.827  18.331  0.00  0.00    +0.000 C 
ATOM     25  F   UNL     1       8.399   4.113  17.670  0.00  0.00    +0.000 F 
ATOM     26  F   UNL     1       6.878   3.949  19.212  0.00  0.00    +0.000 F 
ENDBRANCH  17  24
ENDBRANCH   1  21
BRANCH   8  27
ATOM     27  C   UNL     1       1.986   5.740  18.842  0.00  0.00    +0.000 A 
ATOM     28  C   UNL     1       1.924   5.546  20.228  0.00  0.00    +0.000 A 
ATOM     29  C   UNL     1       1.535   4.305  20.738  0.00  0.00    +0.000 A 
ATOM     30  C   UNL     1       1.240   3.251  19.871  0.00  0.00    +0.000 A 
ATOM     31  C   UNL     1       1.383   3.420  18.496  0.00  0.00    +0.000 A 
ATOM     32  C   UNL     1       1.780   4.654  17.982  0.00  0.00    +0.000 A 
ENDBRANCH   8  27
TORSDOF 4
ENDMDL
