MODEL 1
REMARK VINA RESULT:      -7.3      0.000      0.000
REMARK  Name = 
REMARK  1 active torsions:
REMARK  status: ('A' for Active; 'I' for Inactive)
REMARK    1  A    between atoms: C_1  and  N_2
REMARK                            x       y       z     vdW  Elec       q    Type
REMARK                         _______ _______ _______ _____ _____    ______ ____
ROOT
ATOM      1  C   UNL     1       6.156   3.920  13.616  0.00  0.00    +0.000 C 
ATOM      2  N   UNL     1       5.780   4.196  14.993  0.00  0.00    +0.000 N 
ATOM      3  C   UNL     1       4.598   3.683  15.491  0.00  0.00    +0.000 A 
ATOM      4  C   UNL     1       4.222   3.918  16.757  0.00  0.00    +0.000 A 
ATOM      5  C   UNL     1       5.054   4.714  17.619  0.00  0.00    +0.000 A 
ATOM      6  C   UNL     1       6.210   5.227  17.167  0.00  0.00    +0.000 A 
ATOM      7  C   UNL     1       6.641   4.977  15.765  0.00  0.00    +0.000 A 
ATOM      8  O   UNL     1       7.699   5.450  15.361  0.00  0.00    +0.000 OA
ATOM      9  C   UNL     1       4.647   4.979  19.024  0.00  0.00    +0.000 C 
ATOM     10  O   UNL     1       5.330   5.652  19.784  0.00  0.00    +0.000 OA
ATOM     11  C   UNL     1       3.362   4.391  19.478  0.00  0.00    +0.000 A 
ATOM     12  C   UNL     1       2.942   4.620  20.798  0.00  0.00    +0.000 A 
ATOM     13  C   UNL     1       1.738   4.081  21.261  0.00  0.00    +0.000 A 
ATOM     14  C   UNL     1       0.944   3.314  20.414  0.00  0.00    +0.000 A 
ATOM     15  C   UNL     1       1.353   3.082  19.101  0.00  0.00    +0.000 A 
ATOM     16  C   UNL     1       2.561   3.619  18.630  0.00  0.00    +0.000 A 
ATOM     17  C   UNL     1       2.944   3.341  17.230  0.00  0.00    +0.000 C 
ATOM     18  O   UNL     1       2.226   2.662  16.506  0.00  0.00    +0.000 OA
ENDROOT
TORSDOF 0
ENDMDL
MODEL 2
REMARK VINA RESULT:      -7.2      1.488      1.519
REMARK  Name = 
REMARK  1 active torsions:
REMARK  status: ('A' for Active; 'I' for Inactive)
REMARK    1  A    between atoms: C_1  and  N_2
REMARK                            x       y       z     vdW  Elec       q    Type
REMARK                         _______ _______ _______ _____ _____    ______ ____
ROOT
ATOM      1  C   UNL     1       6.209   4.294  14.217  0.00  0.00    +0.000 C 
ATOM      2  N   UNL     1       5.434   4.640  15.398  0.00  0.00    +0.000 N 
ATOM      3  C   UNL     1       4.912   3.632  16.188  0.00  0.00    +0.000 A 
ATOM      4  C   UNL     1       4.194   3.917  17.284  0.00  0.00    +0.000 A 
ATOM      5  C   UNL     1       3.956   5.286  17.654  0.00  0.00    +0.000 A 
ATOM      6  C   UNL     1       4.449   6.290  16.909  0.00  0.00    +0.000 A 
ATOM      7  C   UNL     1       5.248   5.991  15.689  0.00  0.00    +0.000 A 
ATOM      8  O   UNL     1       5.694   6.915  15.015  0.00  0.00    +0.000 OA
ATOM      9  C   UNL     1       3.162   5.612  18.867  0.00  0.00    +0.000 C 
ATOM     10  O   UNL     1       2.940   6.765  19.211  0.00  0.00    +0.000 OA
ATOM     11  C   UNL     1       2.637   4.470  19.658  0.00  0.00    +0.000 A 
ATOM     12  C   UNL     1       1.882   4.736  20.811  0.00  0.00    +0.000 A 
ATOM     13  C   UNL     1       1.373   3.686  21.581  0.00  0.00    +0.000 A 
ATOM     14  C   UNL     1       1.611   2.367  21.209  0.00  0.00    +0.000 A 
ATOM     15  C   UNL     1       2.361   2.093  20.065  0.00  0.00    +0.000 A 
ATOM     16  C   UNL     1       2.875   3.142  19.288  0.00  0.00    +0.000 A 
ATOM     17  C   UNL     1       3.662   2.794  18.087  0.00  0.00    +0.000 C 
ATOM     18  O   UNL     1       3.856   1.622  17.782  0.00  0.00    +0.000 OA
ENDROOT
TORSDOF 0
ENDMDL
MODEL 3
REMARK VINA RESULT:      -6.9      1.545      2.918
REMARK  Name = 
REMARK  1 active torsions:
REMARK  status: ('A' for Active; 'I' for Inactive)
REMARK    1  A    between atoms: C_1  and  N_2
REMARK                            x       y       z     vdW  Elec       q    Type
REMARK                         _______ _______ _______ _____ _____    ______ ____
ROOT
ATOM      1  C   UNL     1       7.322   7.727  17.097  0.00  0.00    +0.000 C 
ATOM      2  N   UNL     1       6.445   6.570  17.188  0.00  0.00    +0.000 N 
ATOM      3  C   UNL     1       5.368   6.601  18.054  0.00  0.00    +0.000 A 
ATOM      4  C   UNL     1       4.539   5.553  18.161  0.00  0.00    +0.000 A 
ATOM      5  C   UNL     1       4.764   4.373  17.370  0.00  0.00    +0.000 A 
ATOM      6  C   UNL     1       5.800   4.310  16.518  0.00  0.00    +0.000 A 
ATOM      7  C   UNL     1       6.730   5.465  16.387  0.00  0.00    +0.000 A 
ATOM      8  O   UNL     1       7.674   5.398  15.606  0.00  0.00    +0.000 OA
ATOM      9  C   UNL     1       3.850   3.205  17.481  0.00  0.00    +0.000 C 
ATOM     10  O   UNL     1       4.011   2.186  16.823  0.00  0.00    +0.000 OA
ATOM     11  C   UNL     1       2.719   3.321  18.436  0.00  0.00    +0.000 A 
ATOM     12  C   UNL     1       1.834   2.239  18.571  0.00  0.00    +0.000 A 
ATOM     13  C   UNL     1       0.757   2.312  19.458  0.00  0.00    +0.000 A 
ATOM     14  C   UNL     1       0.554   3.461  20.218  0.00  0.00    +0.000 A 
ATOM     15  C   UNL     1       1.428   4.540  20.091  0.00  0.00    +0.000 A 
ATOM     16  C   UNL     1       2.511   4.473  19.201  0.00  0.00    +0.000 A 
ATOM     17  C   UNL     1       3.404   5.646  19.107  0.00  0.00    +0.000 C 
ATOM     18  O   UNL     1       3.202   6.645  19.788  0.00  0.00    +0.000 OA
ENDROOT
TORSDOF 0
ENDMDL
MODEL 4
REMARK VINA RESULT:      -6.7      2.362      5.482
REMARK  Name = 
REMARK  1 active torsions:
REMARK  status: ('A' for Active; 'I' for Inactive)
REMARK    1  A    between atoms: C_1  and  N_2
REMARK                            x       y       z     vdW  Elec       q    Type
REMARK                         _______ _______ _______ _____ _____    ______ ____
ROOT
ATOM      1  C   UNL     1       1.203   3.242  21.303  0.00  0.00    +0.000 C 
ATOM      2  N   UNL     1       1.946   4.004  20.313  0.00  0.00    +0.000 N 
ATOM      3  C   UNL     1       2.684   3.336  19.353  0.00  0.00    +0.000 A 
ATOM      4  C   UNL     1       3.379   4.008  18.425  0.00  0.00    +0.000 A 
ATOM      5  C   UNL     1       3.365   5.447  18.416  0.00  0.00    +0.000 A 
ATOM      6  C   UNL     1       2.658   6.128  19.333  0.00  0.00    +0.000 A 
ATOM      7  C   UNL     1       1.882   5.396  20.371  0.00  0.00    +0.000 A 
ATOM      8  O   UNL     1       1.239   6.027  21.205  0.00  0.00    +0.000 OA
ATOM      9  C   UNL     1       4.132   6.201  17.391  0.00  0.00    +0.000 C 
ATOM     10  O   UNL     1       4.143   7.425  17.354  0.00  0.00    +0.000 OA
ATOM     11  C   UNL     1       4.898   5.406  16.398  0.00  0.00    +0.000 A 
ATOM     12  C   UNL     1       5.636   6.082  15.414  0.00  0.00    +0.000 A 
ATOM     13  C   UNL     1       6.368   5.367  14.462  0.00  0.00    +0.000 A 
ATOM     14  C   UNL     1       6.372   3.975  14.485  0.00  0.00    +0.000 A 
ATOM     15  C   UNL     1       5.642   3.295  15.459  0.00  0.00    +0.000 A 
ATOM     16  C   UNL     1       4.904   4.008  16.417  0.00  0.00    +0.000 A 
ATOM     17  C   UNL     1       4.150   3.235  17.426  0.00  0.00    +0.000 C 
ATOM     18  O   UNL     1       4.171   2.009  17.422  0.00  0.00    +0.000 OA
ENDROOT
TORSDOF 0
ENDMDL
MODEL 5
REMARK VINA RESULT:      -6.5      3.845      4.590
REMARK  Name = 
REMARK  1 active torsions:
REMARK  status: ('A' for Active; 'I' for Inactive)
REMARK    1  A    between atoms: C_1  and  N_2
REMARK                            x       y       z     vdW  Elec       q    Type
REMARK                         _______ _______ _______ _____ _____    ______ ____
ROOT
ATOM      1  C   UNL     1       5.394   5.781  15.663  0.00  0.00    +0.000 C 
ATOM      2  N   UNL     1       4.559   5.967  16.839  0.00  0.00    +0.000 N 
ATOM      3  C   UNL     1       3.840   7.138  16.984  0.00  0.00    +0.000 A 
ATOM      4  C   UNL     1       3.060   7.341  18.055  0.00  0.00    +0.000 A 
ATOM      5  C   UNL     1       2.962   6.332  19.076  0.00  0.00    +0.000 A 
ATOM      6  C   UNL     1       3.646   5.182  18.966  0.00  0.00    +0.000 A 
ATOM      7  C   UNL     1       4.517   4.942  17.783  0.00  0.00    +0.000 A 
ATOM      8  O   UNL     1       5.138   3.887  17.692  0.00  0.00    +0.000 OA
ATOM      9  C   UNL     1       2.099   6.547  20.267  0.00  0.00    +0.000 C 
ATOM     10  O   UNL     1       1.992   5.711  21.154  0.00  0.00    +0.000 OA
ATOM     11  C   UNL     1       1.362   7.834  20.345  0.00  0.00    +0.000 A 
ATOM     12  C   UNL     1       0.537   8.075  21.455  0.00  0.00    +0.000 A 
ATOM     13  C   UNL     1      -0.173   9.274  21.562  0.00  0.00    +0.000 A 
ATOM     14  C   UNL     1      -0.066  10.241  20.566  0.00  0.00    +0.000 A 
ATOM     15  C   UNL     1       0.751  10.010  19.459  0.00  0.00    +0.000 A 
ATOM     16  C   UNL     1       1.466   8.807  19.346  0.00  0.00    +0.000 A 
ATOM     17  C   UNL     1       2.316   8.617  18.153  0.00  0.00    +0.000 C 
ATOM     18  O   UNL     1       2.391   9.485  17.291  0.00  0.00    +0.000 OA
ENDROOT
TORSDOF 0
ENDMDL
MODEL 6
REMARK VINA RESULT:      -6.4      2.505      5.860
REMARK  Name = 
REMARK  1 active torsions:
REMARK  status: ('A' for Active; 'I' for Inactive)
REMARK    1  A    between atoms: C_1  and  N_2
REMARK                            x       y       z     vdW  Elec       q    Type
REMARK                         _______ _______ _______ _____ _____    ______ ____
ROOT
ATOM      1  C   UNL     1       1.191   6.697  21.149  0.00  0.00    +0.000 C 
ATOM      2  N   UNL     1       1.908   5.836  20.223  0.00  0.00    +0.000 N 
ATOM      3  C   UNL     1       2.696   6.403  19.238  0.00  0.00    +0.000 A 
ATOM      4  C   UNL     1       3.372   5.638  18.369  0.00  0.00    +0.000 A 
ATOM      5  C   UNL     1       3.284   4.205  18.451  0.00  0.00    +0.000 A 
ATOM      6  C   UNL     1       2.528   3.621  19.396  0.00  0.00    +0.000 A 
ATOM      7  C   UNL     1       1.771   4.456  20.368  0.00  0.00    +0.000 A 
ATOM      8  O   UNL     1       1.084   3.913  21.228  0.00  0.00    +0.000 OA
ATOM      9  C   UNL     1       4.030   3.348  17.493  0.00  0.00    +0.000 C 
ATOM     10  O   UNL     1       3.978   2.125  17.534  0.00  0.00    +0.000 OA
ATOM     11  C   UNL     1       4.851   4.038  16.466  0.00  0.00    +0.000 A 
ATOM     12  C   UNL     1       5.570   3.263  15.542  0.00  0.00    +0.000 A 
ATOM     13  C   UNL     1       6.355   3.878  14.563  0.00  0.00    +0.000 A 
ATOM     14  C   UNL     1       6.428   5.266  14.496  0.00  0.00    +0.000 A 
ATOM     15  C   UNL     1       5.717   6.044  15.410  0.00  0.00    +0.000 A 
ATOM     16  C   UNL     1       4.928   5.432  16.396  0.00  0.00    +0.000 A 
ATOM     17  C   UNL     1       4.197   6.305  17.337  0.00  0.00    +0.000 C 
ATOM     18  O   UNL     1       4.279   7.526  17.255  0.00  0.00    +0.000 OA
ENDROOT
TORSDOF 0
ENDMDL
MODEL 7
REMARK VINA RESULT:      -6.4      4.109      6.188
REMARK  Name = 
REMARK  1 active torsions:
REMARK  status: ('A' for Active; 'I' for Inactive)
REMARK    1  A    between atoms: C_1  and  N_2
REMARK                            x       y       z     vdW  Elec       q    Type
REMARK                         _______ _______ _______ _____ _____    ______ ____
ROOT
ATOM      1  C   UNL     1       0.419  10.953  19.966  0.00  0.00    +0.000 C 
ATOM      2  N   UNL     1       0.919   9.589  20.046  0.00  0.00    +0.000 N 
ATOM      3  C   UNL     1       1.691   9.087  19.016  0.00  0.00    +0.000 A 
ATOM      4  C   UNL     1       2.168   7.835  19.058  0.00  0.00    +0.000 A 
ATOM      5  C   UNL     1       1.880   6.992  20.188  0.00  0.00    +0.000 A 
ATOM      6  C   UNL     1       1.133   7.449  21.207  0.00  0.00    +0.000 A 
ATOM      7  C   UNL     1       0.595   8.836  21.175  0.00  0.00    +0.000 A 
ATOM      8  O   UNL     1      -0.086   9.244  22.110  0.00  0.00    +0.000 OA
ATOM      9  C   UNL     1       2.405   5.603  20.244  0.00  0.00    +0.000 C 
ATOM     10  O   UNL     1       2.179   4.858  21.190  0.00  0.00    +0.000 OA
ATOM     11  C   UNL     1       3.225   5.142  19.095  0.00  0.00    +0.000 A 
ATOM     12  C   UNL     1       3.738   3.835  19.111  0.00  0.00    +0.000 A 
ATOM     13  C   UNL     1       4.515   3.368  18.047  0.00  0.00    +0.000 A 
ATOM     14  C   UNL     1       4.784   4.196  16.962  0.00  0.00    +0.000 A 
ATOM     15  C   UNL     1       4.278   5.495  16.937  0.00  0.00    +0.000 A 
ATOM     16  C   UNL     1       3.497   5.971  18.002  0.00  0.00    +0.000 A 
ATOM     17  C   UNL     1       2.988   7.355  17.923  0.00  0.00    +0.000 C 
ATOM     18  O   UNL     1       3.240   8.063  16.954  0.00  0.00    +0.000 OA
ENDROOT
TORSDOF 0
ENDMDL
MODEL 8
REMARK VINA RESULT:      -6.4      3.859      5.521
REMARK  Name = 
REMARK  1 active torsions:
REMARK  status: ('A' for Active; 'I' for Inactive)
REMARK    1  A    between atoms: C_1  and  N_2
REMARK                            x       y       z     vdW  Elec       q    Type
REMARK                         _______ _______ _______ _____ _____    ______ ____
ROOT
ATOM      1  C   UNL     1       4.153   2.103  19.603  0.00  0.00    +0.000 C 
ATOM      2  N   UNL     1       3.458   3.351  19.875  0.00  0.00    +0.000 N 
ATOM      3  C   UNL     1       3.590   4.409  18.995  0.00  0.00    +0.000 A 
ATOM      4  C   UNL     1       2.962   5.573  19.215  0.00  0.00    +0.000 A 
ATOM      5  C   UNL     1       2.136   5.736  20.382  0.00  0.00    +0.000 A 
ATOM      6  C   UNL     1       1.985   4.728  21.257  0.00  0.00    +0.000 A 
ATOM      7  C   UNL     1       2.676   3.430  21.027  0.00  0.00    +0.000 A 
ATOM      8  O   UNL     1       2.533   2.515  21.833  0.00  0.00    +0.000 OA
ATOM      9  C   UNL     1       1.435   7.022  20.635  0.00  0.00    +0.000 C 
ATOM     10  O   UNL     1       0.724   7.195  21.617  0.00  0.00    +0.000 OA
ATOM     11  C   UNL     1       1.631   8.106  19.640  0.00  0.00    +0.000 A 
ATOM     12  C   UNL     1       0.986   9.336  19.844  0.00  0.00    +0.000 A 
ATOM     13  C   UNL     1       1.147  10.380  18.928  0.00  0.00    +0.000 A 
ATOM     14  C   UNL     1       1.950  10.206  17.805  0.00  0.00    +0.000 A 
ATOM     15  C   UNL     1       2.595   8.987  17.594  0.00  0.00    +0.000 A 
ATOM     16  C   UNL     1       2.438   7.936  18.510  0.00  0.00    +0.000 A 
ATOM     17  C   UNL     1       3.143   6.667  18.236  0.00  0.00    +0.000 C 
ATOM     18  O   UNL     1       3.845   6.542  17.239  0.00  0.00    +0.000 OA
ENDROOT
TORSDOF 0
ENDMDL
MODEL 9
REMARK VINA RESULT:      -6.4      4.008      4.772
REMARK  Name = 
REMARK  1 active torsions:
REMARK  status: ('A' for Active; 'I' for Inactive)
REMARK    1  A    between atoms: C_1  and  N_2
REMARK                            x       y       z     vdW  Elec       q    Type
REMARK                         _______ _______ _______ _____ _____    ______ ____
ROOT
ATOM      1  C   UNL     1       5.027   3.807  17.895  0.00  0.00    +0.000 C 
ATOM      2  N   UNL     1       4.319   5.075  17.961  0.00  0.00    +0.000 N 
ATOM      3  C   UNL     1       3.501   5.341  19.044  0.00  0.00    +0.000 A 
ATOM      4  C   UNL     1       2.835   6.501  19.137  0.00  0.00    +0.000 A 
ATOM      5  C   UNL     1       2.965   7.491  18.101  0.00  0.00    +0.000 A 
ATOM      6  C   UNL     1       3.752   7.265  17.036  0.00  0.00    +0.000 A 
ATOM      7  C   UNL     1       4.497   5.983  16.917  0.00  0.00    +0.000 A 
ATOM      8  O   UNL     1       5.214   5.786  15.941  0.00  0.00    +0.000 OA
ATOM      9  C   UNL     1       2.231   8.780  18.195  0.00  0.00    +0.000 C 
ATOM     10  O   UNL     1       2.318   9.645  17.333  0.00  0.00    +0.000 OA
ATOM     11  C   UNL     1       1.374   8.985  19.391  0.00  0.00    +0.000 A 
ATOM     12  C   UNL     1       0.664  10.189  19.516  0.00  0.00    +0.000 A 
ATOM     13  C   UNL     1      -0.152  10.417  20.627  0.00  0.00    +0.000 A 
ATOM     14  C   UNL     1      -0.268   9.449  21.620  0.00  0.00    +0.000 A 
ATOM     15  C   UNL     1       0.434   8.249  21.504  0.00  0.00    +0.000 A 
ATOM     16  C   UNL     1       1.255   8.014  20.390  0.00  0.00    +0.000 A 
ATOM     17  C   UNL     1       1.975   6.726  20.319  0.00  0.00    +0.000 C 
ATOM     18  O   UNL     1       1.855   5.890  21.208  0.00  0.00    +0.000 OA
ENDROOT
TORSDOF 0
ENDMDL
