MODEL 1
REMARK VINA RESULT:      -6.6      0.000      0.000
REMARK  Name = 
REMARK  8 active torsions:
REMARK  status: ('A' for Active; 'I' for Inactive)
REMARK    1  A    between atoms: C_1  and  O_2
REMARK    2  A    between atoms: O_2  and  C_3
REMARK    3  A    between atoms: C_5  and  N_6
REMARK    4  A    between atoms: C_7  and  C_9
REMARK    5  A    between atoms: C_9  and  O_10
REMARK    6  A    between atoms: O_10  and  C_11
REMARK    7  A    between atoms: C_11  and  C_12
REMARK    8  A    between atoms: C_20  and  C_21
REMARK                            x       y       z     vdW  Elec       q    Type
REMARK                         _______ _______ _______ _____ _____    ______ ____
ROOT
ATOM      1  N   UNL     1       3.681   5.768  18.964  0.00  0.00    +0.000 N 
ATOM      2  C   UNL     1       2.641   6.667  19.135  0.00  0.00    +0.000 C 
ATOM      3  O   UNL     1       2.259   7.504  18.320  0.00  0.00    +0.000 OA
ATOM      4  H   UNL     1       3.871   5.139  19.741  0.00  0.00    +0.000 HD
ENDROOT
BRANCH   1   7
ATOM      5  C   UNL     1       6.555   6.268  16.583  0.00  0.00    +0.000 A 
ATOM      6  C   UNL     1       5.713   6.407  17.705  0.00  0.00    +0.000 A 
ATOM      7  C   UNL     1       4.542   5.667  17.848  0.00  0.00    +0.000 A 
ATOM      8  C   UNL     1       4.218   4.757  16.838  0.00  0.00    +0.000 A 
ATOM      9  F   UNL     1       3.117   3.999  16.949  0.00  0.00    +0.000 F 
ATOM     10  C   UNL     1       5.021   4.617  15.707  0.00  0.00    +0.000 A 
ATOM     11  C   UNL     1       6.198   5.374  15.567  0.00  0.00    +0.000 A 
BRANCH   5  13
ATOM     12  C   UNL     1       7.783   7.999  17.722  0.00  0.00    +0.000 C 
ATOM     13  O   UNL     1       7.702   6.999  16.720  0.00  0.00    +0.000 OA
ENDBRANCH   5  13
BRANCH  11  14
ATOM     14  C   UNL     1       6.975   5.152  14.389  0.00  0.00    +0.000 C 
ATOM     15  N   UNL     1       7.620   4.936  13.445  0.00  0.00    +0.000 NA
ENDBRANCH  11  14
ENDBRANCH   1   7
BRANCH   2  16
ATOM     16  C   UNL     1       1.920   6.503  20.470  0.00  0.00    +0.000 C 
BRANCH  16  17
ATOM     17  O   UNL     1       2.071   5.168  20.934  0.00  0.00    +0.000 OA
BRANCH  17  18
ATOM     18  C   UNL     1       1.014   4.325  20.477  0.00  0.00    +0.000 C 
BRANCH  18  19
ATOM     19  C   UNL     1       1.374   2.865  20.763  0.00  0.00    +0.000 C 
ATOM     20  C   UNL     1       1.707   2.076  19.500  0.00  0.00    +0.000 C 
ATOM     21  C   UNL     1       3.205   2.224  19.404  0.00  0.00    +0.000 C 
ATOM     22  C   UNL     1       3.613   2.206  20.861  0.00  0.00    +0.000 C 
ATOM     23  O   UNL     1       2.547   2.823  21.597  0.00  0.00    +0.000 OA
ENDBRANCH  18  19
ENDBRANCH  17  18
ENDBRANCH  16  17
ENDBRANCH   2  16
TORSDOF 7
ENDMDL
MODEL 2
REMARK VINA RESULT:      -6.5      2.923      6.311
REMARK  Name = 
REMARK  8 active torsions:
REMARK  status: ('A' for Active; 'I' for Inactive)
REMARK    1  A    between atoms: C_1  and  O_2
REMARK    2  A    between atoms: O_2  and  C_3
REMARK    3  A    between atoms: C_5  and  N_6
REMARK    4  A    between atoms: C_7  and  C_9
REMARK    5  A    between atoms: C_9  and  O_10
REMARK    6  A    between atoms: O_10  and  C_11
REMARK    7  A    between atoms: C_11  and  C_12
REMARK    8  A    between atoms: C_20  and  C_21
REMARK                            x       y       z     vdW  Elec       q    Type
REMARK                         _______ _______ _______ _____ _____    ______ ____
ROOT
ATOM      1  N   UNL     1       3.345   5.915  19.670  0.00  0.00    +0.000 N 
ATOM      2  C   UNL     1       3.018   4.654  19.197  0.00  0.00    +0.000 C 
ATOM      3  O   UNL     1       2.039   4.362  18.515  0.00  0.00    +0.000 OA
ATOM      4  H   UNL     1       4.195   5.987  20.224  0.00  0.00    +0.000 HD
ENDROOT
BRANCH   1   7
ATOM      5  C   UNL     1       1.108   8.871  20.326  0.00  0.00    +0.000 A 
ATOM      6  C   UNL     1       1.830   7.676  20.519  0.00  0.00    +0.000 A 
ATOM      7  C   UNL     1       2.597   7.103  19.508  0.00  0.00    +0.000 A 
ATOM      8  C   UNL     1       2.645   7.757  18.275  0.00  0.00    +0.000 A 
ATOM      9  F   UNL     1       3.397   7.258  17.282  0.00  0.00    +0.000 F 
ATOM     10  C   UNL     1       1.921   8.927  18.050  0.00  0.00    +0.000 A 
ATOM     11  C   UNL     1       1.143   9.495  19.073  0.00  0.00    +0.000 A 
BRANCH   5  13
ATOM     12  C   UNL     1      -0.578   8.612  22.026  0.00  0.00    +0.000 C 
ATOM     13  O   UNL     1       0.534   9.308  21.487  0.00  0.00    +0.000 OA
ENDBRANCH   5  13
BRANCH  11  14
ATOM     14  C   UNL     1       0.452  10.708  18.766  0.00  0.00    +0.000 C 
ATOM     15  N   UNL     1      -0.098  11.710  18.551  0.00  0.00    +0.000 NA
ENDBRANCH  11  14
ENDBRANCH   1   7
BRANCH   2  16
ATOM     16  C   UNL     1       4.051   3.591  19.562  0.00  0.00    +0.000 C 
BRANCH  16  17
ATOM     17  O   UNL     1       5.355   4.065  19.252  0.00  0.00    +0.000 OA
BRANCH  17  18
ATOM     18  C   UNL     1       5.555   4.184  17.844  0.00  0.00    +0.000 C 
BRANCH  18  19
ATOM     19  C   UNL     1       7.000   4.612  17.574  0.00  0.00    +0.000 C 
ATOM     20  C   UNL     1       7.101   5.810  16.636  0.00  0.00    +0.000 C 
ATOM     21  C   UNL     1       7.139   6.976  17.592  0.00  0.00    +0.000 C 
ATOM     22  C   UNL     1       7.932   6.404  18.748  0.00  0.00    +0.000 C 
ATOM     23  O   UNL     1       7.614   5.007  18.816  0.00  0.00    +0.000 OA
ENDBRANCH  18  19
ENDBRANCH  17  18
ENDBRANCH  16  17
ENDBRANCH   2  16
TORSDOF 7
ENDMDL
MODEL 3
REMARK VINA RESULT:      -6.4      3.286      7.795
REMARK  Name = 
REMARK  8 active torsions:
REMARK  status: ('A' for Active; 'I' for Inactive)
REMARK    1  A    between atoms: C_1  and  O_2
REMARK    2  A    between atoms: O_2  and  C_3
REMARK    3  A    between atoms: C_5  and  N_6
REMARK    4  A    between atoms: C_7  and  C_9
REMARK    5  A    between atoms: C_9  and  O_10
REMARK    6  A    between atoms: O_10  and  C_11
REMARK    7  A    between atoms: C_11  and  C_12
REMARK    8  A    between atoms: C_20  and  C_21
REMARK                            x       y       z     vdW  Elec       q    Type
REMARK                         _______ _______ _______ _____ _____    ______ ____
ROOT
ATOM      1  N   UNL     1       6.449   7.469  17.108  0.00  0.00    +0.000 N 
ATOM      2  C   UNL     1       7.619   7.630  17.832  0.00  0.00    +0.000 C 
ATOM      3  O   UNL     1       8.062   6.863  18.682  0.00  0.00    +0.000 OA
ATOM      4  H   UNL     1       6.223   8.201  16.439  0.00  0.00    +0.000 HD
ENDROOT
BRANCH   1   7
ATOM      5  C   UNL     1       3.417   5.462  18.087  0.00  0.00    +0.000 A 
ATOM      6  C   UNL     1       4.341   6.522  17.993  0.00  0.00    +0.000 A 
ATOM      7  C   UNL     1       5.507   6.423  17.238  0.00  0.00    +0.000 A 
ATOM      8  C   UNL     1       5.741   5.229  16.552  0.00  0.00    +0.000 A 
ATOM      9  F   UNL     1       6.835   5.100  15.787  0.00  0.00    +0.000 F 
ATOM     10  C   UNL     1       4.855   4.156  16.647  0.00  0.00    +0.000 A 
ATOM     11  C   UNL     1       3.684   4.261  17.418  0.00  0.00    +0.000 A 
BRANCH   5  13
ATOM     12  C   UNL     1       2.177   5.504  20.151  0.00  0.00    +0.000 C 
ATOM     13  O   UNL     1       2.295   5.830  18.776  0.00  0.00    +0.000 OA
ENDBRANCH   5  13
BRANCH  11  14
ATOM     14  C   UNL     1       2.819   3.124  17.442  0.00  0.00    +0.000 C 
ATOM     15  N   UNL     1       2.084   2.223  17.452  0.00  0.00    +0.000 NA
ENDBRANCH  11  14
ENDBRANCH   1   7
BRANCH   2  16
ATOM     16  C   UNL     1       8.398   8.882  17.440  0.00  0.00    +0.000 C 
BRANCH  16  17
ATOM     17  O   UNL     1       8.182   9.903  18.405  0.00  0.00    +0.000 OA
BRANCH  17  18
ATOM     18  C   UNL     1       9.316  10.080  19.253  0.00  0.00    +0.000 C 
BRANCH  18  19
ATOM     19  C   UNL     1       9.727  11.555  19.245  0.00  0.00    +0.000 C 
ATOM     20  C   UNL     1      10.820  11.874  20.259  0.00  0.00    +0.000 C 
ATOM     21  C   UNL     1      12.081  11.719  19.444  0.00  0.00    +0.000 C 
ATOM     22  C   UNL     1      11.641  12.233  18.091  0.00  0.00    +0.000 C 
ATOM     23  O   UNL     1      10.256  11.889  17.948  0.00  0.00    +0.000 OA
ENDBRANCH  18  19
ENDBRANCH  17  18
ENDBRANCH  16  17
ENDBRANCH   2  16
TORSDOF 7
ENDMDL
MODEL 4
REMARK VINA RESULT:      -6.4      3.151      5.577
REMARK  Name = 
REMARK  8 active torsions:
REMARK  status: ('A' for Active; 'I' for Inactive)
REMARK    1  A    between atoms: C_1  and  O_2
REMARK    2  A    between atoms: O_2  and  C_3
REMARK    3  A    between atoms: C_5  and  N_6
REMARK    4  A    between atoms: C_7  and  C_9
REMARK    5  A    between atoms: C_9  and  O_10
REMARK    6  A    between atoms: O_10  and  C_11
REMARK    7  A    between atoms: C_11  and  C_12
REMARK    8  A    between atoms: C_20  and  C_21
REMARK                            x       y       z     vdW  Elec       q    Type
REMARK                         _______ _______ _______ _____ _____    ______ ____
ROOT
ATOM      1  N   UNL     1       3.586   6.066  18.629  0.00  0.00    +0.000 N 
ATOM      2  C   UNL     1       3.235   4.900  17.965  0.00  0.00    +0.000 C 
ATOM      3  O   UNL     1       2.165   4.673  17.407  0.00  0.00    +0.000 OA
ATOM      4  H   UNL     1       4.515   6.093  19.040  0.00  0.00    +0.000 HD
ENDROOT
BRANCH   1   7
ATOM      5  C   UNL     1       1.316   8.615  20.218  0.00  0.00    +0.000 A 
ATOM      6  C   UNL     1       2.110   7.465  20.039  0.00  0.00    +0.000 A 
ATOM      7  C   UNL     1       2.770   7.200  18.841  0.00  0.00    +0.000 A 
ATOM      8  C   UNL     1       2.634   8.126  17.803  0.00  0.00    +0.000 A 
ATOM      9  F   UNL     1       3.278   7.928  16.643  0.00  0.00    +0.000 F 
ATOM     10  C   UNL     1       1.836   9.260  17.947  0.00  0.00    +0.000 A 
ATOM     11  C   UNL     1       1.167   9.515  19.156  0.00  0.00    +0.000 A 
BRANCH   5  13
ATOM     12  C   UNL     1      -0.482   8.437  21.810  0.00  0.00    +0.000 C 
ATOM     13  O   UNL     1       0.872   8.726  21.507  0.00  0.00    +0.000 OA
ENDBRANCH   5  13
BRANCH  11  14
ATOM     14  C   UNL     1       0.389  10.712  19.227  0.00  0.00    +0.000 C 
ATOM     15  N   UNL     1      -0.276  11.664  19.290  0.00  0.00    +0.000 NA
ENDBRANCH  11  14
ENDBRANCH   1   7
BRANCH   2  16
ATOM     16  C   UNL     1       4.360   3.871  17.929  0.00  0.00    +0.000 C 
BRANCH  16  17
ATOM     17  O   UNL     1       3.962   2.701  18.632  0.00  0.00    +0.000 OA
BRANCH  17  18
ATOM     18  C   UNL     1       4.060   2.872  20.045  0.00  0.00    +0.000 C 
BRANCH  18  19
ATOM     19  C   UNL     1       2.787   2.339  20.708  0.00  0.00    +0.000 C 
ATOM     20  C   UNL     1       2.118   3.362  21.620  0.00  0.00    +0.000 C 
ATOM     21  C   UNL     1       1.127   4.028  20.698  0.00  0.00    +0.000 C 
ATOM     22  C   UNL     1       0.692   2.872  19.823  0.00  0.00    +0.000 C 
ATOM     23  O   UNL     1       1.828   2.007  19.687  0.00  0.00    +0.000 OA
ENDBRANCH  18  19
ENDBRANCH  17  18
ENDBRANCH  16  17
ENDBRANCH   2  16
TORSDOF 7
ENDMDL
MODEL 5
REMARK VINA RESULT:      -6.3      3.926      6.778
REMARK  Name = 
REMARK  8 active torsions:
REMARK  status: ('A' for Active; 'I' for Inactive)
REMARK    1  A    between atoms: C_1  and  O_2
REMARK    2  A    between atoms: O_2  and  C_3
REMARK    3  A    between atoms: C_5  and  N_6
REMARK    4  A    between atoms: C_7  and  C_9
REMARK    5  A    between atoms: C_9  and  O_10
REMARK    6  A    between atoms: O_10  and  C_11
REMARK    7  A    between atoms: C_11  and  C_12
REMARK    8  A    between atoms: C_20  and  C_21
REMARK                            x       y       z     vdW  Elec       q    Type
REMARK                         _______ _______ _______ _____ _____    ______ ____
ROOT
ATOM      1  N   UNL     1       1.651   8.034  21.196  0.00  0.00    +0.000 N 
ATOM      2  C   UNL     1       0.473   8.540  21.722  0.00  0.00    +0.000 C 
ATOM      3  O   UNL     1      -0.645   8.042  21.619  0.00  0.00    +0.000 OA
ATOM      4  H   UNL     1       2.496   8.571  21.372  0.00  0.00    +0.000 HD
ENDROOT
BRANCH   1   7
ATOM      5  C   UNL     1       1.574   4.471  19.978  0.00  0.00    +0.000 A 
ATOM      6  C   UNL     1       1.428   5.599  20.810  0.00  0.00    +0.000 A 
ATOM      7  C   UNL     1       1.796   6.878  20.395  0.00  0.00    +0.000 A 
ATOM      8  C   UNL     1       2.313   7.021  19.106  0.00  0.00    +0.000 A 
ATOM      9  F   UNL     1       2.650   8.238  18.653  0.00  0.00    +0.000 F 
ATOM     10  C   UNL     1       2.489   5.919  18.271  0.00  0.00    +0.000 A 
ATOM     11  C   UNL     1       2.124   4.631  18.700  0.00  0.00    +0.000 A 
BRANCH   5  13
ATOM     12  C   UNL     1       1.753   2.659  21.554  0.00  0.00    +0.000 C 
ATOM     13  O   UNL     1       1.034   3.351  20.547  0.00  0.00    +0.000 OA
ENDBRANCH   5  13
BRANCH  11  14
ATOM     14  C   UNL     1       2.315   3.560  17.774  0.00  0.00    +0.000 C 
ATOM     15  N   UNL     1       2.435   2.696  17.004  0.00  0.00    +0.000 NA
ENDBRANCH  11  14
ENDBRANCH   1   7
BRANCH   2  16
ATOM     16  C   UNL     1       0.679   9.814  22.534  0.00  0.00    +0.000 C 
BRANCH  16  17
ATOM     17  O   UNL     1       1.050  10.879  21.669  0.00  0.00    +0.000 OA
BRANCH  17  18
ATOM     18  C   UNL     1      -0.077  11.661  21.275  0.00  0.00    +0.000 C 
BRANCH  18  19
ATOM     19  C   UNL     1       0.075  12.061  19.805  0.00  0.00    +0.000 C 
ATOM     20  C   UNL     1       0.864  11.043  18.989  0.00  0.00    +0.000 C 
ATOM     21  C   UNL     1      -0.221  10.154  18.434  0.00  0.00    +0.000 C 
ATOM     22  C   UNL     1      -1.338  11.145  18.188  0.00  0.00    +0.000 C 
ATOM     23  O   UNL     1      -1.230  12.150  19.204  0.00  0.00    +0.000 OA
ENDBRANCH  18  19
ENDBRANCH  17  18
ENDBRANCH  16  17
ENDBRANCH   2  16
TORSDOF 7
ENDMDL
MODEL 6
REMARK VINA RESULT:      -6.2      3.273      6.942
REMARK  Name = 
REMARK  8 active torsions:
REMARK  status: ('A' for Active; 'I' for Inactive)
REMARK    1  A    between atoms: C_1  and  O_2
REMARK    2  A    between atoms: O_2  and  C_3
REMARK    3  A    between atoms: C_5  and  N_6
REMARK    4  A    between atoms: C_7  and  C_9
REMARK    5  A    between atoms: C_9  and  O_10
REMARK    6  A    between atoms: O_10  and  C_11
REMARK    7  A    between atoms: C_11  and  C_12
REMARK    8  A    between atoms: C_20  and  C_21
REMARK                            x       y       z     vdW  Elec       q    Type
REMARK                         _______ _______ _______ _____ _____    ______ ____
ROOT
ATOM      1  N   UNL     1       2.963   6.646  19.914  0.00  0.00    +0.000 N 
ATOM      2  C   UNL     1       2.934   5.513  19.116  0.00  0.00    +0.000 C 
ATOM      3  O   UNL     1       2.076   5.229  18.284  0.00  0.00    +0.000 OA
ATOM      4  H   UNL     1       3.747   6.731  20.556  0.00  0.00    +0.000 HD
ENDROOT
BRANCH   1   7
ATOM      5  C   UNL     1       0.140   8.867  21.046  0.00  0.00    +0.000 A 
ATOM      6  C   UNL     1       1.086   7.823  21.018  0.00  0.00    +0.000 A 
ATOM      7  C   UNL     1       1.991   7.671  19.969  0.00  0.00    +0.000 A 
ATOM      8  C   UNL     1       1.945   8.602  18.929  0.00  0.00    +0.000 A 
ATOM      9  F   UNL     1       2.818   8.514  17.914  0.00  0.00    +0.000 F 
ATOM     10  C   UNL     1       1.004   9.630  18.921  0.00  0.00    +0.000 A 
ATOM     11  C   UNL     1       0.089   9.771  19.979  0.00  0.00    +0.000 A 
BRANCH   5  13
ATOM     12  C   UNL     1      -0.025   9.594  23.336  0.00  0.00    +0.000 C 
ATOM     13  O   UNL     1      -0.552   8.889  22.225  0.00  0.00    +0.000 OA
ENDBRANCH   5  13
BRANCH  11  14
ATOM     14  C   UNL     1      -0.826  10.866  19.904  0.00  0.00    +0.000 C 
ATOM     15  N   UNL     1      -1.553  11.769  19.808  0.00  0.00    +0.000 NA
ENDBRANCH  11  14
ENDBRANCH   1   7
BRANCH   2  16
ATOM     16  C   UNL     1       4.146   4.609  19.317  0.00  0.00    +0.000 C 
BRANCH  16  17
ATOM     17  O   UNL     1       5.339   5.354  19.113  0.00  0.00    +0.000 OA
BRANCH  17  18
ATOM     18  C   UNL     1       5.518   5.703  17.741  0.00  0.00    +0.000 C 
BRANCH  18  19
ATOM     19  C   UNL     1       6.287   4.585  17.032  0.00  0.00    +0.000 C 
ATOM     20  C   UNL     1       5.419   3.786  16.066  0.00  0.00    +0.000 C 
ATOM     21  C   UNL     1       5.637   4.503  14.756  0.00  0.00    +0.000 C 
ATOM     22  C   UNL     1       7.091   4.908  14.863  0.00  0.00    +0.000 C 
ATOM     23  O   UNL     1       7.348   5.166  16.250  0.00  0.00    +0.000 OA
ENDBRANCH  18  19
ENDBRANCH  17  18
ENDBRANCH  16  17
ENDBRANCH   2  16
TORSDOF 7
ENDMDL
MODEL 7
REMARK VINA RESULT:      -6.2      3.747      5.501
REMARK  Name = 
REMARK  8 active torsions:
REMARK  status: ('A' for Active; 'I' for Inactive)
REMARK    1  A    between atoms: C_1  and  O_2
REMARK    2  A    between atoms: O_2  and  C_3
REMARK    3  A    between atoms: C_5  and  N_6
REMARK    4  A    between atoms: C_7  and  C_9
REMARK    5  A    between atoms: C_9  and  O_10
REMARK    6  A    between atoms: O_10  and  C_11
REMARK    7  A    between atoms: C_11  and  C_12
REMARK    8  A    between atoms: C_20  and  C_21
REMARK                            x       y       z     vdW  Elec       q    Type
REMARK                         _______ _______ _______ _____ _____    ______ ____
ROOT
ATOM      1  N   UNL     1       2.497   7.583  18.896  0.00  0.00    +0.000 N 
ATOM      2  C   UNL     1       1.817   8.731  18.522  0.00  0.00    +0.000 C 
ATOM      3  O   UNL     1       1.793   9.232  17.401  0.00  0.00    +0.000 OA
ATOM      4  H   UNL     1       2.414   7.301  19.870  0.00  0.00    +0.000 HD
ENDROOT
BRANCH   1   7
ATOM      5  C   UNL     1       5.368   6.412  16.759  0.00  0.00    +0.000 A 
ATOM      6  C   UNL     1       4.549   7.236  17.557  0.00  0.00    +0.000 A 
ATOM      7  C   UNL     1       3.337   6.791  18.081  0.00  0.00    +0.000 A 
ATOM      8  C   UNL     1       2.950   5.478  17.803  0.00  0.00    +0.000 A 
ATOM      9  F   UNL     1       1.807   4.996  18.314  0.00  0.00    +0.000 F 
ATOM     10  C   UNL     1       3.731   4.650  16.998  0.00  0.00    +0.000 A 
ATOM     11  C   UNL     1       4.948   5.110  16.465  0.00  0.00    +0.000 A 
BRANCH   5  13
ATOM     12  C   UNL     1       7.430   7.402  17.514  0.00  0.00    +0.000 C 
ATOM     13  O   UNL     1       6.558   7.018  16.464  0.00  0.00    +0.000 OA
ENDBRANCH   5  13
BRANCH  11  14
ATOM     14  C   UNL     1       5.697   4.189  15.671  0.00  0.00    +0.000 C 
ATOM     15  N   UNL     1       6.290   3.454  14.991  0.00  0.00    +0.000 NA
ENDBRANCH  11  14
ENDBRANCH   1   7
BRANCH   2  16
ATOM     16  C   UNL     1       1.005   9.342  19.660  0.00  0.00    +0.000 C 
BRANCH  16  17
ATOM     17  O   UNL     1       0.555  10.638  19.285  0.00  0.00    +0.000 OA
BRANCH  17  18
ATOM     18  C   UNL     1      -0.859  10.769  19.421  0.00  0.00    +0.000 C 
BRANCH  18  19
ATOM     19  C   UNL     1      -1.462  11.163  18.070  0.00  0.00    +0.000 C 
ATOM     20  C   UNL     1      -1.810   9.960  17.199  0.00  0.00    +0.000 C 
ATOM     21  C   UNL     1      -3.255   9.705  17.551  0.00  0.00    +0.000 C 
ATOM     22  C   UNL     1      -3.776  11.110  17.758  0.00  0.00    +0.000 C 
ATOM     23  O   UNL     1      -2.691  11.880  18.294  0.00  0.00    +0.000 OA
ENDBRANCH  18  19
ENDBRANCH  17  18
ENDBRANCH  16  17
ENDBRANCH   2  16
TORSDOF 7
ENDMDL
MODEL 8
REMARK VINA RESULT:      -6.2      2.912      6.220
REMARK  Name = 
REMARK  8 active torsions:
REMARK  status: ('A' for Active; 'I' for Inactive)
REMARK    1  A    between atoms: C_1  and  O_2
REMARK    2  A    between atoms: O_2  and  C_3
REMARK    3  A    between atoms: C_5  and  N_6
REMARK    4  A    between atoms: C_7  and  C_9
REMARK    5  A    between atoms: C_9  and  O_10
REMARK    6  A    between atoms: O_10  and  C_11
REMARK    7  A    between atoms: C_11  and  C_12
REMARK    8  A    between atoms: C_20  and  C_21
REMARK                            x       y       z     vdW  Elec       q    Type
REMARK                         _______ _______ _______ _____ _____    ______ ____
ROOT
ATOM      1  N   UNL     1       3.142   5.580  18.176  0.00  0.00    +0.000 N 
ATOM      2  C   UNL     1       2.507   4.473  17.635  0.00  0.00    +0.000 C 
ATOM      3  O   UNL     1       1.295   4.285  17.575  0.00  0.00    +0.000 OA
ATOM      4  H   UNL     1       4.159   5.581  18.148  0.00  0.00    +0.000 HD
ENDROOT
BRANCH   1   7
ATOM      5  C   UNL     1       1.654   8.975  18.840  0.00  0.00    +0.000 A 
ATOM      6  C   UNL     1       2.281   7.900  18.179  0.00  0.00    +0.000 A 
ATOM      7  C   UNL     1       2.529   6.684  18.811  0.00  0.00    +0.000 A 
ATOM      8  C   UNL     1       2.124   6.547  20.141  0.00  0.00    +0.000 A 
ATOM      9  F   UNL     1       2.313   5.382  20.780  0.00  0.00    +0.000 F 
ATOM     10  C   UNL     1       1.523   7.602  20.826  0.00  0.00    +0.000 A 
ATOM     11  C   UNL     1       1.284   8.829  20.182  0.00  0.00    +0.000 A 
BRANCH   5  13
ATOM     12  C   UNL     1       2.236  11.163  18.020  0.00  0.00    +0.000 C 
ATOM     13  O   UNL     1       1.405  10.015  17.989  0.00  0.00    +0.000 OA
ENDBRANCH   5  13
BRANCH  11  14
ATOM     14  C   UNL     1       0.642   9.849  20.949  0.00  0.00    +0.000 C 
ATOM     15  N   UNL     1       0.104  10.695  21.540  0.00  0.00    +0.000 NA
ENDBRANCH  11  14
ENDBRANCH   1   7
BRANCH   2  16
ATOM     16  C   UNL     1       3.478   3.462  17.033  0.00  0.00    +0.000 C 
BRANCH  16  17
ATOM     17  O   UNL     1       4.800   3.750  17.468  0.00  0.00    +0.000 OA
BRANCH  17  18
ATOM     18  C   UNL     1       5.670   4.031  16.373  0.00  0.00    +0.000 C 
BRANCH  18  19
ATOM     19  C   UNL     1       7.013   4.533  16.911  0.00  0.00    +0.000 C 
ATOM     20  C   UNL     1       7.244   6.016  16.643  0.00  0.00    +0.000 C 
ATOM     21  C   UNL     1       6.719   6.664  17.900  0.00  0.00    +0.000 C 
ATOM     22  C   UNL     1       7.111   5.655  18.957  0.00  0.00    +0.000 C 
ATOM     23  O   UNL     1       7.041   4.362  18.340  0.00  0.00    +0.000 OA
ENDBRANCH  18  19
ENDBRANCH  17  18
ENDBRANCH  16  17
ENDBRANCH   2  16
TORSDOF 7
ENDMDL
MODEL 9
REMARK VINA RESULT:      -6.2      3.087      6.420
REMARK  Name = 
REMARK  8 active torsions:
REMARK  status: ('A' for Active; 'I' for Inactive)
REMARK    1  A    between atoms: C_1  and  O_2
REMARK    2  A    between atoms: O_2  and  C_3
REMARK    3  A    between atoms: C_5  and  N_6
REMARK    4  A    between atoms: C_7  and  C_9
REMARK    5  A    between atoms: C_9  and  O_10
REMARK    6  A    between atoms: O_10  and  C_11
REMARK    7  A    between atoms: C_11  and  C_12
REMARK    8  A    between atoms: C_20  and  C_21
REMARK                            x       y       z     vdW  Elec       q    Type
REMARK                         _______ _______ _______ _____ _____    ______ ____
ROOT
ATOM      1  N   UNL     1       2.952   6.232  19.836  0.00  0.00    +0.000 N 
ATOM      2  C   UNL     1       2.564   4.965  19.430  0.00  0.00    +0.000 C 
ATOM      3  O   UNL     1       1.553   4.681  18.793  0.00  0.00    +0.000 OA
ATOM      4  H   UNL     1       3.822   6.296  20.360  0.00  0.00    +0.000 HD
ENDROOT
BRANCH   1   7
ATOM      5  C   UNL     1       0.855   9.302  20.435  0.00  0.00    +0.000 A 
ATOM      6  C   UNL     1       1.539   8.090  20.658  0.00  0.00    +0.000 A 
ATOM      7  C   UNL     1       2.242   7.439  19.646  0.00  0.00    +0.000 A 
ATOM      8  C   UNL     1       2.263   8.032  18.382  0.00  0.00    +0.000 A 
ATOM      9  F   UNL     1       2.954   7.457  17.386  0.00  0.00    +0.000 F 
ATOM     10  C   UNL     1       1.575   9.218  18.128  0.00  0.00    +0.000 A 
ATOM     11  C   UNL     1       0.861   9.864  19.152  0.00  0.00    +0.000 A 
BRANCH   5  13
ATOM     12  C   UNL     1      -0.435   8.992  22.444  0.00  0.00    +0.000 C 
ATOM     13  O   UNL     1       0.346   9.815  21.595  0.00  0.00    +0.000 OA
ENDBRANCH   5  13
BRANCH  11  14
ATOM     14  C   UNL     1       0.204  11.086  18.813  0.00  0.00    +0.000 C 
ATOM     15  N   UNL     1      -0.343  12.085  18.576  0.00  0.00    +0.000 NA
ENDBRANCH  11  14
ENDBRANCH   1   7
BRANCH   2  16
ATOM     16  C   UNL     1       3.569   3.882  19.809  0.00  0.00    +0.000 C 
BRANCH  16  17
ATOM     17  O   UNL     1       4.871   4.268  19.387  0.00  0.00    +0.000 OA
BRANCH  17  18
ATOM     18  C   UNL     1       5.118   3.908  18.029  0.00  0.00    +0.000 C 
BRANCH  18  19
ATOM     19  C   UNL     1       5.839   5.060  17.325  0.00  0.00    +0.000 C 
ATOM     20  C   UNL     1       7.161   4.638  16.693  0.00  0.00    +0.000 C 
ATOM     21  C   UNL     1       6.755   4.286  15.283  0.00  0.00    +0.000 C 
ATOM     22  C   UNL     1       5.672   5.308  15.008  0.00  0.00    +0.000 C 
ATOM     23  O   UNL     1       5.009   5.552  16.256  0.00  0.00    +0.000 OA
ENDBRANCH  18  19
ENDBRANCH  17  18
ENDBRANCH  16  17
ENDBRANCH   2  16
TORSDOF 7
ENDMDL
