MODEL 1
REMARK VINA RESULT:      -8.3      0.000      0.000
REMARK  Name = 
REMARK  1 active torsions:
REMARK  status: ('A' for Active; 'I' for Inactive)
REMARK    1  A    between atoms: C_13  and  C_14
REMARK                            x       y       z     vdW  Elec       q    Type
REMARK                         _______ _______ _______ _____ _____    ______ ____
ROOT
ATOM      1  C   UNL     1       0.290  10.796  20.506  0.00  0.00    +0.000 A 
ATOM      2  N   UNL     1       0.672   9.588  20.844  0.00  0.00    +0.000 NA
ATOM      3  C   UNL     1       1.382   8.779  19.922  0.00  0.00    +0.000 A 
ATOM      4  C   UNL     1       1.827   7.521  20.319  0.00  0.00    +0.000 A 
ATOM      5  C   UNL     1       2.616   6.746  19.461  0.00  0.00    +0.000 A 
ATOM      6  C   UNL     1       2.951   7.220  18.190  0.00  0.00    +0.000 A 
ATOM      7  C   UNL     1       2.525   8.480  17.783  0.00  0.00    +0.000 A 
ATOM      8  C   UNL     1       1.765   9.255  18.661  0.00  0.00    +0.000 A 
ATOM      9  C   UNL     1       1.473  10.644  18.406  0.00  0.00    +0.000 A 
ATOM     10  N   UNL     1       2.299  11.509  17.850  0.00  0.00    +0.000 NA
ATOM     11  C   UNL     1       1.749  12.698  18.184  0.00  0.00    +0.000 A 
ATOM     12  C   UNL     1       2.350  13.968  18.416  0.00  0.00    +0.000 A 
ATOM     13  N   UNL     1       3.657  14.101  18.578  0.00  0.00    +0.000 NA
ATOM     14  S   UNL     1       3.770  15.653  19.199  0.00  0.00    +0.000 S 
ATOM     15  N   UNL     1       2.162  16.141  19.110  0.00  0.00    +0.000 NA
ATOM     16  C   UNL     1       1.454  15.065  18.718  0.00  0.00    +0.000 A 
ATOM     17  C   UNL     1       0.046  14.957  18.650  0.00  0.00    +0.000 A 
ATOM     18  C   UNL     1      -0.469  13.650  18.661  0.00  0.00    +0.000 A 
ATOM     19  C   UNL     1       0.443  12.581  18.640  0.00  0.00    +0.000 A 
ATOM     20  N   UNL     1       0.540  11.310  19.202  0.00  0.00    +0.000 N 
ENDROOT
BRANCH   1  33
ATOM     21  O   UNL     1       1.672  13.149  21.613  0.00  0.00    +0.000 OA
ATOM     22  C   UNL     1       0.537  12.909  22.014  0.00  0.00    +0.000 A 
ATOM     23  O   UNL     1      -0.102  13.778  22.895  0.00  0.00    +0.000 OA
ATOM     24  C   UNL     1      -1.463  13.646  23.237  0.00  0.00    +0.000 A 
ATOM     25  C   UNL     1      -2.079  14.660  23.989  0.00  0.00    +0.000 A 
ATOM     26 CL   UNL     1      -1.206  16.051  24.501  0.00  0.00    +0.000 Cl
ATOM     27  C   UNL     1      -3.432  14.558  24.310  0.00  0.00    +0.000 A 
ATOM     28  C   UNL     1      -4.150  13.432  23.878  0.00  0.00    +0.000 A 
ATOM     29 CL   UNL     1      -5.825  13.326  24.255  0.00  0.00    +0.000 Cl
ATOM     30  C   UNL     1      -3.537  12.431  23.130  0.00  0.00    +0.000 A 
ATOM     31  C   UNL     1      -2.174  12.529  22.804  0.00  0.00    +0.000 A 
ATOM     32  C   UNL     1      -1.491  11.559  21.955  0.00  0.00    +0.000 A 
ATOM     33  C   UNL     1      -0.203  11.721  21.573  0.00  0.00    +0.000 A 
ENDBRANCH   1  33
TORSDOF 1
ENDMDL
MODEL 2
REMARK VINA RESULT:      -7.8      6.536      9.288
REMARK  Name = 
REMARK  1 active torsions:
REMARK  status: ('A' for Active; 'I' for Inactive)
REMARK    1  A    between atoms: C_13  and  C_14
REMARK                            x       y       z     vdW  Elec       q    Type
REMARK                         _______ _______ _______ _____ _____    ______ ____
ROOT
ATOM      1  C   UNL     1       3.759  16.374  18.457  0.00  0.00    +0.000 A 
ATOM      2  N   UNL     1       3.217  17.095  17.506  0.00  0.00    +0.000 NA
ATOM      3  C   UNL     1       1.831  17.390  17.534  0.00  0.00    +0.000 A 
ATOM      4  C   UNL     1       1.285  18.203  16.545  0.00  0.00    +0.000 A 
ATOM      5  C   UNL     1      -0.059  18.589  16.608  0.00  0.00    +0.000 A 
ATOM      6  C   UNL     1      -0.871  18.149  17.656  0.00  0.00    +0.000 A 
ATOM      7  C   UNL     1      -0.338  17.345  18.659  0.00  0.00    +0.000 A 
ATOM      8  C   UNL     1       1.012  16.994  18.600  0.00  0.00    +0.000 A 
ATOM      9  C   UNL     1       1.689  16.355  19.701  0.00  0.00    +0.000 A 
ATOM     10  N   UNL     1       1.482  16.613  20.978  0.00  0.00    +0.000 NA
ATOM     11  C   UNL     1       2.581  16.088  21.567  0.00  0.00    +0.000 A 
ATOM     12  C   UNL     1       3.274  16.470  22.750  0.00  0.00    +0.000 A 
ATOM     13  N   UNL     1       3.049  17.631  23.344  0.00  0.00    +0.000 NA
ATOM     14  S   UNL     1       4.355  17.741  24.389  0.00  0.00    +0.000 S 
ATOM     15  N   UNL     1       5.081  16.244  24.137  0.00  0.00    +0.000 NA
ATOM     16  C   UNL     1       4.409  15.655  23.130  0.00  0.00    +0.000 A 
ATOM     17  C   UNL     1       4.754  14.451  22.474  0.00  0.00    +0.000 A 
ATOM     18  C   UNL     1       4.196  14.269  21.196  0.00  0.00    +0.000 A 
ATOM     19  C   UNL     1       3.287  15.233  20.729  0.00  0.00    +0.000 A 
ATOM     20  N   UNL     1       2.972  15.837  19.514  0.00  0.00    +0.000 N 
ENDROOT
BRANCH   1  33
ATOM     21  O   UNL     1       5.531  18.200  19.939  0.00  0.00    +0.000 OA
ATOM     22  C   UNL     1       6.043  17.238  19.374  0.00  0.00    +0.000 A 
ATOM     23  O   UNL     1       7.404  16.977  19.511  0.00  0.00    +0.000 OA
ATOM     24  C   UNL     1       7.999  15.790  19.039  0.00  0.00    +0.000 A 
ATOM     25  C   UNL     1       9.337  15.519  19.370  0.00  0.00    +0.000 A 
ATOM     26 CL   UNL     1      10.259  16.607  20.333  0.00  0.00    +0.000 Cl
ATOM     27  C   UNL     1       9.931  14.335  18.935  0.00  0.00    +0.000 A 
ATOM     28  C   UNL     1       9.176  13.439  18.164  0.00  0.00    +0.000 A 
ATOM     29 CL   UNL     1       9.907  11.968  17.653  0.00  0.00    +0.000 Cl
ATOM     30  C   UNL     1       7.849  13.709  17.841  0.00  0.00    +0.000 A 
ATOM     31  C   UNL     1       7.245  14.901  18.277  0.00  0.00    +0.000 A 
ATOM     32  C   UNL     1       5.838  15.206  18.045  0.00  0.00    +0.000 A 
ATOM     33  C   UNL     1       5.251  16.314  18.554  0.00  0.00    +0.000 A 
ENDBRANCH   1  33
TORSDOF 1
ENDMDL
MODEL 3
REMARK VINA RESULT:      -7.8      1.124      1.317
REMARK  Name = 
REMARK  1 active torsions:
REMARK  status: ('A' for Active; 'I' for Inactive)
REMARK    1  A    between atoms: C_13  and  C_14
REMARK                            x       y       z     vdW  Elec       q    Type
REMARK                         _______ _______ _______ _____ _____    ______ ____
ROOT
ATOM      1  C   UNL     1      -0.034  11.960  20.803  0.00  0.00    +0.000 A 
ATOM      2  N   UNL     1       0.207  10.739  21.216  0.00  0.00    +0.000 NA
ATOM      3  C   UNL     1       0.836   9.804  20.355  0.00  0.00    +0.000 A 
ATOM      4  C   UNL     1       1.133   8.530  20.831  0.00  0.00    +0.000 A 
ATOM      5  C   UNL     1       1.843   7.625  20.034  0.00  0.00    +0.000 A 
ATOM      6  C   UNL     1       2.246   7.985  18.745  0.00  0.00    +0.000 A 
ATOM      7  C   UNL     1       1.967   9.258  18.259  0.00  0.00    +0.000 A 
ATOM      8  C   UNL     1       1.286  10.161  19.077  0.00  0.00    +0.000 A 
ATOM      9  C   UNL     1       1.153  11.556  18.738  0.00  0.00    +0.000 A 
ATOM     10  N   UNL     1       2.077  12.292  18.151  0.00  0.00    +0.000 NA
ATOM     11  C   UNL     1       1.658  13.552  18.406  0.00  0.00    +0.000 A 
ATOM     12  C   UNL     1       2.392  14.759  18.578  0.00  0.00    +0.000 A 
ATOM     13  N   UNL     1       3.703  14.757  18.759  0.00  0.00    +0.000 NA
ATOM     14  S   UNL     1       3.979  16.321  19.292  0.00  0.00    +0.000 S 
ATOM     15  N   UNL     1       2.436  16.977  19.145  0.00  0.00    +0.000 NA
ATOM     16  C   UNL     1       1.620  15.963  18.800  0.00  0.00    +0.000 A 
ATOM     17  C   UNL     1       0.209  16.008  18.711  0.00  0.00    +0.000 A 
ATOM     18  C   UNL     1      -0.448  14.767  18.785  0.00  0.00    +0.000 A 
ATOM     19  C   UNL     1       0.340  13.605  18.843  0.00  0.00    +0.000 A 
ATOM     20  N   UNL     1       0.288  12.366  19.477  0.00  0.00    +0.000 N 
ENDROOT
BRANCH   1  33
ATOM     21  O   UNL     1       1.649  14.083  21.955  0.00  0.00    +0.000 OA
ATOM     22  C   UNL     1       0.463  14.055  22.273  0.00  0.00    +0.000 A 
ATOM     23  O   UNL     1      -0.078  15.051  23.082  0.00  0.00    +0.000 OA
ATOM     24  C   UNL     1      -1.462  15.165  23.321  0.00  0.00    +0.000 A 
ATOM     25  C   UNL     1      -1.947  16.295  23.998  0.00  0.00    +0.000 A 
ATOM     26 CL   UNL     1      -0.886  17.537  24.542  0.00  0.00    +0.000 Cl
ATOM     27  C   UNL     1      -3.317  16.436  24.217  0.00  0.00    +0.000 A 
ATOM     28  C   UNL     1      -4.185  15.434  23.758  0.00  0.00    +0.000 A 
ATOM     29 CL   UNL     1      -5.876  15.628  24.008  0.00  0.00    +0.000 Cl
ATOM     30  C   UNL     1      -3.701  14.317  23.084  0.00  0.00    +0.000 A 
ATOM     31  C   UNL     1      -2.321  14.170  22.862  0.00  0.00    +0.000 A 
ATOM     32  C   UNL     1      -1.757  13.067  22.091  0.00  0.00    +0.000 A 
ATOM     33  C   UNL     1      -0.436  12.993  21.806  0.00  0.00    +0.000 A 
ENDBRANCH   1  33
TORSDOF 1
ENDMDL
MODEL 4
REMARK VINA RESULT:      -7.3      6.226      8.246
REMARK  Name = 
REMARK  1 active torsions:
REMARK  status: ('A' for Active; 'I' for Inactive)
REMARK    1  A    between atoms: C_13  and  C_14
REMARK                            x       y       z     vdW  Elec       q    Type
REMARK                         _______ _______ _______ _____ _____    ______ ____
ROOT
ATOM      1  C   UNL     1       7.800  14.946  19.607  0.00  0.00    +0.000 A 
ATOM      2  N   UNL     1       8.359  14.493  18.510  0.00  0.00    +0.000 NA
ATOM      3  C   UNL     1       9.595  13.803  18.569  0.00  0.00    +0.000 A 
ATOM      4  C   UNL     1      10.144  13.282  17.401  0.00  0.00    +0.000 A 
ATOM      5  C   UNL     1      11.311  12.511  17.450  0.00  0.00    +0.000 A 
ATOM      6  C   UNL     1      11.946  12.268  18.670  0.00  0.00    +0.000 A 
ATOM      7  C   UNL     1      11.404  12.771  19.849  0.00  0.00    +0.000 A 
ATOM      8  C   UNL     1      10.223  13.512  19.789  0.00  0.00    +0.000 A 
ATOM      9  C   UNL     1       9.483  13.878  20.971  0.00  0.00    +0.000 A 
ATOM     10  N   UNL     1       9.332  13.122  22.042  0.00  0.00    +0.000 NA
ATOM     11  C   UNL     1       8.282  13.703  22.667  0.00  0.00    +0.000 A 
ATOM     12  C   UNL     1       7.271  13.145  23.499  0.00  0.00    +0.000 A 
ATOM     13  N   UNL     1       7.079  11.838  23.581  0.00  0.00    +0.000 NA
ATOM     14  S   UNL     1       5.583  11.758  24.332  0.00  0.00    +0.000 S 
ATOM     15  N   UNL     1       5.302  13.387  24.642  0.00  0.00    +0.000 NA
ATOM     16  C   UNL     1       6.303  14.069  24.052  0.00  0.00    +0.000 A 
ATOM     17  C   UNL     1       6.405  15.473  23.919  0.00  0.00    +0.000 A 
ATOM     18  C   UNL     1       7.263  15.930  22.903  0.00  0.00    +0.000 A 
ATOM     19  C   UNL     1       8.003  14.975  22.185  0.00  0.00    +0.000 A 
ATOM     20  N   UNL     1       8.433  14.792  20.872  0.00  0.00    +0.000 N 
ENDROOT
BRANCH   1  33
ATOM     21  O   UNL     1       6.810  17.519  18.575  0.00  0.00    +0.000 OA
ATOM     22  C   UNL     1       5.981  16.697  18.956  0.00  0.00    +0.000 A 
ATOM     23  O   UNL     1       4.619  16.947  18.818  0.00  0.00    +0.000 OA
ATOM     24  C   UNL     1       3.638  15.965  19.068  0.00  0.00    +0.000 A 
ATOM     25  C   UNL     1       2.301  16.237  18.736  0.00  0.00    +0.000 A 
ATOM     26 CL   UNL     1       1.839  17.740  18.037  0.00  0.00    +0.000 Cl
ATOM     27  C   UNL     1       1.324  15.265  18.950  0.00  0.00    +0.000 A 
ATOM     28  C   UNL     1       1.702  14.032  19.503  0.00  0.00    +0.000 A 
ATOM     29 CL   UNL     1       0.496  12.828  19.739  0.00  0.00    +0.000 Cl
ATOM     30  C   UNL     1       3.029  13.765  19.827  0.00  0.00    +0.000 A 
ATOM     31  C   UNL     1       4.017  14.742  19.613  0.00  0.00    +0.000 A 
ATOM     32  C   UNL     1       5.435  14.498  19.853  0.00  0.00    +0.000 A 
ATOM     33  C   UNL     1       6.382  15.417  19.551  0.00  0.00    +0.000 A 
ENDBRANCH   1  33
TORSDOF 1
ENDMDL
MODEL 5
REMARK VINA RESULT:      -7.3      4.123      7.514
REMARK  Name = 
REMARK  1 active torsions:
REMARK  status: ('A' for Active; 'I' for Inactive)
REMARK    1  A    between atoms: C_13  and  C_14
REMARK                            x       y       z     vdW  Elec       q    Type
REMARK                         _______ _______ _______ _____ _____    ______ ____
ROOT
ATOM      1  C   UNL     1      -3.411  13.298  22.189  0.00  0.00    +0.000 A 
ATOM      2  N   UNL     1      -4.582  12.746  22.393  0.00  0.00    +0.000 NA
ATOM      3  C   UNL     1      -5.608  13.468  23.055  0.00  0.00    +0.000 A 
ATOM      4  C   UNL     1      -6.861  12.884  23.213  0.00  0.00    +0.000 A 
ATOM      5  C   UNL     1      -7.917  13.614  23.771  0.00  0.00    +0.000 A 
ATOM      6  C   UNL     1      -7.718  14.932  24.191  0.00  0.00    +0.000 A 
ATOM      7  C   UNL     1      -6.475  15.534  24.030  0.00  0.00    +0.000 A 
ATOM      8  C   UNL     1      -5.440  14.804  23.442  0.00  0.00    +0.000 A 
ATOM      9  C   UNL     1      -4.198  15.417  23.041  0.00  0.00    +0.000 A 
ATOM     10  N   UNL     1      -4.075  16.623  22.520  0.00  0.00    +0.000 NA
ATOM     11  C   UNL     1      -2.841  16.579  21.966  0.00  0.00    +0.000 A 
ATOM     12  C   UNL     1      -2.309  17.248  20.828  0.00  0.00    +0.000 A 
ATOM     13  N   UNL     1      -3.088  17.868  19.957  0.00  0.00    +0.000 NA
ATOM     14  S   UNL     1      -2.042  18.110  18.671  0.00  0.00    +0.000 S 
ATOM     15  N   UNL     1      -0.603  17.536  19.328  0.00  0.00    +0.000 NA
ATOM     16  C   UNL     1      -0.912  17.010  20.529  0.00  0.00    +0.000 A 
ATOM     17  C   UNL     1      -0.051  16.277  21.377  0.00  0.00    +0.000 A 
ATOM     18  C   UNL     1      -0.682  15.457  22.329  0.00  0.00    +0.000 A 
ATOM     19  C   UNL     1      -2.084  15.506  22.417  0.00  0.00    +0.000 A 
ATOM     20  N   UNL     1      -3.124  14.612  22.657  0.00  0.00    +0.000 N 
ENDROOT
BRANCH   1  33
ATOM     21  O   UNL     1      -0.839  12.036  22.868  0.00  0.00    +0.000 OA
ATOM     22  C   UNL     1      -1.220  11.971  21.703  0.00  0.00    +0.000 A 
ATOM     23  O   UNL     1      -0.496  11.244  20.761  0.00  0.00    +0.000 OA
ATOM     24  C   UNL     1      -0.986  10.987  19.464  0.00  0.00    +0.000 A 
ATOM     25  C   UNL     1      -0.281  10.100  18.633  0.00  0.00    +0.000 A 
ATOM     26 CL   UNL     1       1.163   9.330  19.165  0.00  0.00    +0.000 Cl
ATOM     27  C   UNL     1      -0.768   9.812  17.359  0.00  0.00    +0.000 A 
ATOM     28  C   UNL     1      -1.955  10.425  16.930  0.00  0.00    +0.000 A 
ATOM     29 CL   UNL     1      -2.563  10.045  15.366  0.00  0.00    +0.000 Cl
ATOM     30  C   UNL     1      -2.652  11.301  17.758  0.00  0.00    +0.000 A 
ATOM     31  C   UNL     1      -2.165  11.594  19.043  0.00  0.00    +0.000 A 
ATOM     32  C   UNL     1      -2.889  12.436  19.990  0.00  0.00    +0.000 A 
ATOM     33  C   UNL     1      -2.452  12.630  21.256  0.00  0.00    +0.000 A 
ENDBRANCH   1  33
TORSDOF 1
ENDMDL
MODEL 6
REMARK VINA RESULT:      -7.3      7.591      8.535
REMARK  Name = 
REMARK  1 active torsions:
REMARK  status: ('A' for Active; 'I' for Inactive)
REMARK    1  A    between atoms: C_13  and  C_14
REMARK                            x       y       z     vdW  Elec       q    Type
REMARK                         _______ _______ _______ _____ _____    ______ ____
ROOT
ATOM      1  C   UNL     1       8.323  12.687  21.753  0.00  0.00    +0.000 A 
ATOM      2  N   UNL     1       9.230  11.892  21.236  0.00  0.00    +0.000 NA
ATOM      3  C   UNL     1       9.704  12.110  19.918  0.00  0.00    +0.000 A 
ATOM      4  C   UNL     1      10.705  11.289  19.408  0.00  0.00    +0.000 A 
ATOM      5  C   UNL     1      11.259  11.548  18.149  0.00  0.00    +0.000 A 
ATOM      6  C   UNL     1      10.801  12.623  17.384  0.00  0.00    +0.000 A 
ATOM      7  C   UNL     1       9.809  13.461  17.884  0.00  0.00    +0.000 A 
ATOM      8  C   UNL     1       9.287  13.209  19.155  0.00  0.00    +0.000 A 
ATOM      9  C   UNL     1       8.425  14.146  19.831  0.00  0.00    +0.000 A 
ATOM     10  N   UNL     1       8.540  15.459  19.787  0.00  0.00    +0.000 NA
ATOM     11  C   UNL     1       7.798  15.855  20.847  0.00  0.00    +0.000 A 
ATOM     12  C   UNL     1       7.925  16.989  21.699  0.00  0.00    +0.000 A 
ATOM     13  N   UNL     1       9.019  17.735  21.707  0.00  0.00    +0.000 NA
ATOM     14  S   UNL     1       8.813  18.631  23.107  0.00  0.00    +0.000 S 
ATOM     15  N   UNL     1       7.277  18.128  23.575  0.00  0.00    +0.000 NA
ATOM     16  C   UNL     1       6.921  17.142  22.729  0.00  0.00    +0.000 A 
ATOM     17  C   UNL     1       5.777  16.317  22.827  0.00  0.00    +0.000 A 
ATOM     18  C   UNL     1       5.840  15.098  22.130  0.00  0.00    +0.000 A 
ATOM     19  C   UNL     1       6.972  14.851  21.334  0.00  0.00    +0.000 A 
ATOM     20  N   UNL     1       7.766  13.757  20.998  0.00  0.00    +0.000 N 
ENDROOT
BRANCH   1  33
ATOM     21  O   UNL     1       9.330  14.478  23.861  0.00  0.00    +0.000 OA
ATOM     22  C   UNL     1       8.548  13.591  24.188  0.00  0.00    +0.000 A 
ATOM     23  O   UNL     1       8.088  13.499  25.500  0.00  0.00    +0.000 OA
ATOM     24  C   UNL     1       7.055  12.619  25.881  0.00  0.00    +0.000 A 
ATOM     25  C   UNL     1       6.526  12.710  27.179  0.00  0.00    +0.000 A 
ATOM     26 CL   UNL     1       7.116  13.867  28.307  0.00  0.00    +0.000 Cl
ATOM     27  C   UNL     1       5.484  11.866  27.561  0.00  0.00    +0.000 A 
ATOM     28  C   UNL     1       4.989  10.934  26.637  0.00  0.00    +0.000 A 
ATOM     29 CL   UNL     1       3.686   9.915  27.107  0.00  0.00    +0.000 Cl
ATOM     30  C   UNL     1       5.514  10.850  25.350  0.00  0.00    +0.000 A 
ATOM     31  C   UNL     1       6.565  11.697  24.960  0.00  0.00    +0.000 A 
ATOM     32  C   UNL     1       7.103  11.718  23.604  0.00  0.00    +0.000 A 
ATOM     33  C   UNL     1       8.049  12.607  23.221  0.00  0.00    +0.000 A 
ENDBRANCH   1  33
TORSDOF 1
ENDMDL
MODEL 7
REMARK VINA RESULT:      -7.2      4.548      7.262
REMARK  Name = 
REMARK  1 active torsions:
REMARK  status: ('A' for Active; 'I' for Inactive)
REMARK    1  A    between atoms: C_13  and  C_14
REMARK                            x       y       z     vdW  Elec       q    Type
REMARK                         _______ _______ _______ _____ _____    ______ ____
ROOT
ATOM      1  C   UNL     1      -2.615  12.927  20.489  0.00  0.00    +0.000 A 
ATOM      2  N   UNL     1      -3.296  12.481  19.460  0.00  0.00    +0.000 NA
ATOM      3  C   UNL     1      -4.659  12.122  19.607  0.00  0.00    +0.000 A 
ATOM      4  C   UNL     1      -5.379  11.703  18.491  0.00  0.00    +0.000 A 
ATOM      5  C   UNL     1      -6.750  11.441  18.591  0.00  0.00    +0.000 A 
ATOM      6  C   UNL     1      -7.408  11.582  19.816  0.00  0.00    +0.000 A 
ATOM      7  C   UNL     1      -6.706  12.011  20.937  0.00  0.00    +0.000 A 
ATOM      8  C   UNL     1      -5.345  12.299  20.816  0.00  0.00    +0.000 A 
ATOM      9  C   UNL     1      -4.601  12.953  21.863  0.00  0.00    +0.000 A 
ATOM     10  N   UNL     1      -5.062  13.912  22.644  0.00  0.00    +0.000 NA
ATOM     11  C   UNL     1      -3.929  14.446  23.155  0.00  0.00    +0.000 A 
ATOM     12  C   UNL     1      -3.635  15.774  23.575  0.00  0.00    +0.000 A 
ATOM     13  N   UNL     1      -4.427  16.791  23.275  0.00  0.00    +0.000 NA
ATOM     14  S   UNL     1      -3.451  18.104  23.637  0.00  0.00    +0.000 S 
ATOM     15  N   UNL     1      -2.109  17.324  24.288  0.00  0.00    +0.000 NA
ATOM     16  C   UNL     1      -2.316  16.003  24.125  0.00  0.00    +0.000 A 
ATOM     17  C   UNL     1      -1.391  14.965  24.383  0.00  0.00    +0.000 A 
ATOM     18  C   UNL     1      -1.641  13.746  23.730  0.00  0.00    +0.000 A 
ATOM     19  C   UNL     1      -2.817  13.635  22.968  0.00  0.00    +0.000 A 
ATOM     20  N   UNL     1      -3.210  13.026  21.778  0.00  0.00    +0.000 N 
ENDROOT
BRANCH   1  33
ATOM     21  O   UNL     1       0.029  11.667  20.783  0.00  0.00    +0.000 OA
ATOM     22  C   UNL     1      -0.013  12.820  20.363  0.00  0.00    +0.000 A 
ATOM     23  O   UNL     1       1.150  13.470  19.958  0.00  0.00    +0.000 OA
ATOM     24  C   UNL     1       1.131  14.717  19.300  0.00  0.00    +0.000 A 
ATOM     25  C   UNL     1       2.327  15.224  18.765  0.00  0.00    +0.000 A 
ATOM     26 CL   UNL     1       3.807  14.356  18.900  0.00  0.00    +0.000 Cl
ATOM     27  C   UNL     1       2.319  16.442  18.086  0.00  0.00    +0.000 A 
ATOM     28  C   UNL     1       1.110  17.142  17.960  0.00  0.00    +0.000 A 
ATOM     29 CL   UNL     1       1.103  18.631  17.098  0.00  0.00    +0.000 Cl
ATOM     30  C   UNL     1      -0.074  16.634  18.488  0.00  0.00    +0.000 A 
ATOM     31  C   UNL     1      -0.071  15.408  19.174  0.00  0.00    +0.000 A 
ATOM     32  C   UNL     1      -1.288  14.780  19.678  0.00  0.00    +0.000 A 
ATOM     33  C   UNL     1      -1.279  13.554  20.251  0.00  0.00    +0.000 A 
ENDBRANCH   1  33
TORSDOF 1
ENDMDL
MODEL 8
REMARK VINA RESULT:      -7.2      1.797      2.589
REMARK  Name = 
REMARK  1 active torsions:
REMARK  status: ('A' for Active; 'I' for Inactive)
REMARK    1  A    between atoms: C_13  and  C_14
REMARK                            x       y       z     vdW  Elec       q    Type
REMARK                         _______ _______ _______ _____ _____    ______ ____
ROOT
ATOM      1  C   UNL     1      -0.958  11.881  20.842  0.00  0.00    +0.000 A 
ATOM      2  N   UNL     1      -0.884  10.698  21.404  0.00  0.00    +0.000 NA
ATOM      3  C   UNL     1      -0.002   9.715  20.889  0.00  0.00    +0.000 A 
ATOM      4  C   UNL     1       0.102   8.486  21.533  0.00  0.00    +0.000 A 
ATOM      5  C   UNL     1       1.038   7.539  21.103  0.00  0.00    +0.000 A 
ATOM      6  C   UNL     1       1.868   7.811  20.012  0.00  0.00    +0.000 A 
ATOM      7  C   UNL     1       1.785   9.040  19.365  0.00  0.00    +0.000 A 
ATOM      8  C   UNL     1       0.868   9.987  19.825  0.00  0.00    +0.000 A 
ATOM      9  C   UNL     1       0.871  11.351  19.357  0.00  0.00    +0.000 A 
ATOM     10  N   UNL     1       1.948  12.059  19.075  0.00  0.00    +0.000 NA
ATOM     11  C   UNL     1       1.475  13.327  19.073  0.00  0.00    +0.000 A 
ATOM     12  C   UNL     1       2.112  14.557  19.399  0.00  0.00    +0.000 A 
ATOM     13  N   UNL     1       3.278  14.594  20.024  0.00  0.00    +0.000 NA
ATOM     14  S   UNL     1       3.362  16.197  20.502  0.00  0.00    +0.000 S 
ATOM     15  N   UNL     1       1.972  16.811  19.777  0.00  0.00    +0.000 NA
ATOM     16  C   UNL     1       1.319  15.759  19.247  0.00  0.00    +0.000 A 
ATOM     17  C   UNL     1       0.029  15.769  18.669  0.00  0.00    +0.000 A 
ATOM     18  C   UNL     1      -0.622  14.525  18.602  0.00  0.00    +0.000 A 
ATOM     19  C   UNL     1       0.089  13.386  19.018  0.00  0.00    +0.000 A 
ATOM     20  N   UNL     1      -0.190  12.195  19.686  0.00  0.00    +0.000 N 
ENDROOT
BRANCH   1  33
ATOM     21  O   UNL     1      -3.792  12.632  20.583  0.00  0.00    +0.000 OA
ATOM     22  C   UNL     1      -3.114  13.232  21.411  0.00  0.00    +0.000 A 
ATOM     23  O   UNL     1      -3.696  14.173  22.257  0.00  0.00    +0.000 OA
ATOM     24  C   UNL     1      -3.003  14.750  23.341  0.00  0.00    +0.000 A 
ATOM     25  C   UNL     1      -3.708  15.552  24.252  0.00  0.00    +0.000 A 
ATOM     26 CL   UNL     1      -5.394  15.847  24.068  0.00  0.00    +0.000 Cl
ATOM     27  C   UNL     1      -3.043  16.106  25.345  0.00  0.00    +0.000 A 
ATOM     28  C   UNL     1      -1.673  15.852  25.507  0.00  0.00    +0.000 A 
ATOM     29 CL   UNL     1      -0.864  16.516  26.872  0.00  0.00    +0.000 Cl
ATOM     30  C   UNL     1      -0.978  15.052  24.603  0.00  0.00    +0.000 A 
ATOM     31  C   UNL     1      -1.644  14.493  23.500  0.00  0.00    +0.000 A 
ATOM     32  C   UNL     1      -0.995  13.581  22.564  0.00  0.00    +0.000 A 
ATOM     33  C   UNL     1      -1.677  12.977  21.563  0.00  0.00    +0.000 A 
ENDBRANCH   1  33
TORSDOF 1
ENDMDL
MODEL 9
REMARK VINA RESULT:      -7.1      3.816      6.776
REMARK  Name = 
REMARK  1 active torsions:
REMARK  status: ('A' for Active; 'I' for Inactive)
REMARK    1  A    between atoms: C_13  and  C_14
REMARK                            x       y       z     vdW  Elec       q    Type
REMARK                         _______ _______ _______ _____ _____    ______ ____
ROOT
ATOM      1  C   UNL     1       0.292  14.610  22.048  0.00  0.00    +0.000 A 
ATOM      2  N   UNL     1      -0.477  14.359  23.080  0.00  0.00    +0.000 NA
ATOM      3  C   UNL     1      -0.749  15.373  24.032  0.00  0.00    +0.000 A 
ATOM      4  C   UNL     1      -1.612  15.103  25.090  0.00  0.00    +0.000 A 
ATOM      5  C   UNL     1      -1.974  16.117  25.984  0.00  0.00    +0.000 A 
ATOM      6  C   UNL     1      -1.460  17.407  25.834  0.00  0.00    +0.000 A 
ATOM      7  C   UNL     1      -0.605  17.697  24.775  0.00  0.00    +0.000 A 
ATOM      8  C   UNL     1      -0.278  16.684  23.873  0.00  0.00    +0.000 A 
ATOM      9  C   UNL     1       0.416  16.949  22.637  0.00  0.00    +0.000 A 
ATOM     10  N   UNL     1       0.238  18.011  21.874  0.00  0.00    +0.000 NA
ATOM     11  C   UNL     1       0.782  17.622  20.698  0.00  0.00    +0.000 A 
ATOM     12  C   UNL     1       0.460  17.989  19.360  0.00  0.00    +0.000 A 
ATOM     13  N   UNL     1      -0.659  18.629  19.063  0.00  0.00    +0.000 NA
ATOM     14  S   UNL     1      -0.725  18.451  17.398  0.00  0.00    +0.000 S 
ATOM     15  N   UNL     1       0.743  17.681  17.109  0.00  0.00    +0.000 NA
ATOM     16  C   UNL     1       1.281  17.414  18.315  0.00  0.00    +0.000 A 
ATOM     17  C   UNL     1       2.438  16.643  18.572  0.00  0.00    +0.000 A 
ATOM     18  C   UNL     1       2.551  16.125  19.874  0.00  0.00    +0.000 A 
ATOM     19  C   UNL     1       1.574  16.488  20.816  0.00  0.00    +0.000 A 
ATOM     20  N   UNL     1       0.903  15.884  21.877  0.00  0.00    +0.000 N 
ENDROOT
BRANCH   1  33
ATOM     21  O   UNL     1       2.554  12.897  21.261  0.00  0.00    +0.000 OA
ATOM     22  C   UNL     1       1.496  12.765  20.652  0.00  0.00    +0.000 A 
ATOM     23  O   UNL     1       1.353  11.774  19.684  0.00  0.00    +0.000 OA
ATOM     24  C   UNL     1       0.111  11.464  19.094  0.00  0.00    +0.000 A 
ATOM     25  C   UNL     1       0.014  10.338  18.261  0.00  0.00    +0.000 A 
ATOM     26 CL   UNL     1       1.378   9.337  17.946  0.00  0.00    +0.000 Cl
ATOM     27  C   UNL     1      -1.214  10.001  17.693  0.00  0.00    +0.000 A 
ATOM     28  C   UNL     1      -2.331  10.806  17.963  0.00  0.00    +0.000 A 
ATOM     29 CL   UNL     1      -3.849  10.369  17.281  0.00  0.00    +0.000 Cl
ATOM     30  C   UNL     1      -2.232  11.919  18.793  0.00  0.00    +0.000 A 
ATOM     31  C   UNL     1      -0.996  12.263  19.367  0.00  0.00    +0.000 A 
ATOM     32  C   UNL     1      -0.841  13.366  20.309  0.00  0.00    +0.000 A 
ATOM     33  C   UNL     1       0.336  13.622  20.926  0.00  0.00    +0.000 A 
ENDBRANCH   1  33
TORSDOF 1
ENDMDL
