MODEL 1
REMARK VINA RESULT:      -8.1      0.000      0.000
REMARK  Name = 
REMARK  4 active torsions:
REMARK  status: ('A' for Active; 'I' for Inactive)
REMARK    1  A    between atoms: C_2  and  O_3
REMARK    2  A    between atoms: C_2  and  C_15
REMARK    3  A    between atoms: O_3  and  C_4
REMARK    4  A    between atoms: C_4  and  C_5
REMARK                            x       y       z     vdW  Elec       q    Type
REMARK                         _______ _______ _______ _____ _____    ______ ____
ROOT
ATOM      1  C   UNL     1       5.151   6.023  16.380  0.00  0.00    +0.000 C 
ENDROOT
BRANCH   1   2
ATOM      2  C   UNL     1       5.073   6.314  17.891  0.00  0.00    +0.000 C 
ATOM      3  C   UNL     1       5.926   5.414  18.783  0.00  0.00    +0.000 C 
ATOM      4  O   UNL     1       5.564   4.035  18.679  0.00  0.00    +0.000 OA
ATOM      5  C   UNL     1       4.216   3.854  18.504  0.00  0.00    +0.000 A 
ATOM      6  C   UNL     1       3.780   2.539  18.365  0.00  0.00    +0.000 A 
ATOM      7  C   UNL     1       2.441   2.281  18.070  0.00  0.00    +0.000 A 
ATOM      8  C   UNL     1       1.532   3.335  17.946  0.00  0.00    +0.000 A 
ATOM      9  C   UNL     1       1.960   4.653  18.109  0.00  0.00    +0.000 A 
ATOM     10  C   UNL     1       3.306   4.909  18.358  0.00  0.00    +0.000 A 
ATOM     11  O   UNL     1       3.701   6.228  18.328  0.00  0.00    +0.000 OA
ENDBRANCH   1   2
BRANCH   1  12
ATOM     12  O   UNL     1       6.464   6.227  15.845  0.00  0.00    +0.000 OA
BRANCH  12  14
ATOM     13  O   UNL     1       7.915   4.506  16.309  0.00  0.00    +0.000 OA
ATOM     14  C   UNL     1       7.157   5.101  15.557  0.00  0.00    +0.000 C 
BRANCH  14  15
ATOM     15  C   UNL     1       6.896   4.611  14.179  0.00  0.00    +0.000 A 
ATOM     16  C   UNL     1       5.787   3.770  13.983  0.00  0.00    +0.000 A 
ATOM     17  C   UNL     1       5.470   3.293  12.710  0.00  0.00    +0.000 A 
ATOM     18  C   UNL     1       6.252   3.660  11.616  0.00  0.00    +0.000 A 
ATOM     19  C   UNL     1       7.347   4.504  11.800  0.00  0.00    +0.000 A 
ATOM     20  C   UNL     1       7.666   4.975  13.070  0.00  0.00    +0.000 A 
ATOM     21  F   UNL     1       8.719   5.796  13.186  0.00  0.00    +0.000 F 
ENDBRANCH  14  15
ENDBRANCH  12  14
ENDBRANCH   1  12
TORSDOF 4
ENDMDL
MODEL 2
REMARK VINA RESULT:      -7.9      2.523      6.288
REMARK  Name = 
REMARK  4 active torsions:
REMARK  status: ('A' for Active; 'I' for Inactive)
REMARK    1  A    between atoms: C_2  and  O_3
REMARK    2  A    between atoms: C_2  and  C_15
REMARK    3  A    between atoms: O_3  and  C_4
REMARK    4  A    between atoms: C_4  and  C_5
REMARK                            x       y       z     vdW  Elec       q    Type
REMARK                         _______ _______ _______ _____ _____    ______ ____
ROOT
ATOM      1  C   UNL     1       4.700   6.512  18.025  0.00  0.00    +0.000 C 
ENDROOT
BRANCH   1   2
ATOM      2  C   UNL     1       5.513   5.332  18.593  0.00  0.00    +0.000 C 
ATOM      3  C   UNL     1       7.024   5.544  18.667  0.00  0.00    +0.000 C 
ATOM      4  O   UNL     1       7.608   5.779  17.383  0.00  0.00    +0.000 OA
ATOM      5  C   UNL     1       7.001   5.060  16.386  0.00  0.00    +0.000 A 
ATOM      6  C   UNL     1       7.491   5.251  15.097  0.00  0.00    +0.000 A 
ATOM      7  C   UNL     1       6.853   4.644  14.015  0.00  0.00    +0.000 A 
ATOM      8  C   UNL     1       5.745   3.819  14.225  0.00  0.00    +0.000 A 
ATOM      9  C   UNL     1       5.265   3.606  15.518  0.00  0.00    +0.000 A 
ATOM     10  C   UNL     1       5.877   4.250  16.591  0.00  0.00    +0.000 A 
ATOM     11  O   UNL     1       5.252   4.147  17.813  0.00  0.00    +0.000 OA
ENDBRANCH   1   2
BRANCH   1  12
ATOM     12  O   UNL     1       3.312   6.198  17.863  0.00  0.00    +0.000 OA
BRANCH  12  14
ATOM     13  O   UNL     1       2.222   7.390  19.499  0.00  0.00    +0.000 OA
ATOM     14  C   UNL     1       2.551   6.336  18.974  0.00  0.00    +0.000 C 
BRANCH  14  15
ATOM     15  C   UNL     1       2.114   5.028  19.528  0.00  0.00    +0.000 A 
ATOM     16  C   UNL     1       2.386   4.769  20.883  0.00  0.00    +0.000 A 
ATOM     17  C   UNL     1       1.981   3.571  21.474  0.00  0.00    +0.000 A 
ATOM     18  C   UNL     1       1.291   2.623  20.721  0.00  0.00    +0.000 A 
ATOM     19  C   UNL     1       1.006   2.878  19.379  0.00  0.00    +0.000 A 
ATOM     20  C   UNL     1       1.415   4.070  18.789  0.00  0.00    +0.000 A 
ATOM     21  F   UNL     1       1.100   4.269  17.501  0.00  0.00    +0.000 F 
ENDBRANCH  14  15
ENDBRANCH  12  14
ENDBRANCH   1  12
TORSDOF 4
ENDMDL
MODEL 3
REMARK VINA RESULT:      -7.8      1.145      1.544
REMARK  Name = 
REMARK  4 active torsions:
REMARK  status: ('A' for Active; 'I' for Inactive)
REMARK    1  A    between atoms: C_2  and  O_3
REMARK    2  A    between atoms: C_2  and  C_15
REMARK    3  A    between atoms: O_3  and  C_4
REMARK    4  A    between atoms: C_4  and  C_5
REMARK                            x       y       z     vdW  Elec       q    Type
REMARK                         _______ _______ _______ _____ _____    ______ ____
ROOT
ATOM      1  C   UNL     1       5.046   5.614  16.815  0.00  0.00    +0.000 C 
ENDROOT
BRANCH   1   2
ATOM      2  C   UNL     1       4.938   5.976  18.309  0.00  0.00    +0.000 C 
ATOM      3  C   UNL     1       5.737   5.092  19.264  0.00  0.00    +0.000 C 
ATOM      4  O   UNL     1       5.333   3.721  19.212  0.00  0.00    +0.000 OA
ATOM      5  C   UNL     1       3.985   3.575  19.008  0.00  0.00    +0.000 A 
ATOM      6  C   UNL     1       3.510   2.270  18.916  0.00  0.00    +0.000 A 
ATOM      7  C   UNL     1       2.171   2.040  18.595  0.00  0.00    +0.000 A 
ATOM      8  C   UNL     1       1.301   3.115  18.400  0.00  0.00    +0.000 A 
ATOM      9  C   UNL     1       1.768   4.425  18.515  0.00  0.00    +0.000 A 
ATOM     10  C   UNL     1       3.115   4.650  18.789  0.00  0.00    +0.000 A 
ATOM     11  O   UNL     1       3.553   5.953  18.712  0.00  0.00    +0.000 OA
ENDBRANCH   1   2
BRANCH   1  12
ATOM     12  O   UNL     1       6.259   6.087  16.219  0.00  0.00    +0.000 OA
BRANCH  12  14
ATOM     13  O   UNL     1       7.959   4.580  16.569  0.00  0.00    +0.000 OA
ATOM     14  C   UNL     1       7.137   5.127  15.847  0.00  0.00    +0.000 C 
BRANCH  14  15
ATOM     15  C   UNL     1       7.007   4.762  14.413  0.00  0.00    +0.000 A 
ATOM     16  C   UNL     1       7.801   5.461  13.486  0.00  0.00    +0.000 A 
ATOM     17  C   UNL     1       7.746   5.153  12.126  0.00  0.00    +0.000 A 
ATOM     18  C   UNL     1       6.906   4.136  11.677  0.00  0.00    +0.000 A 
ATOM     19  C   UNL     1       6.124   3.430  12.591  0.00  0.00    +0.000 A 
ATOM     20  C   UNL     1       6.175   3.741  13.947  0.00  0.00    +0.000 A 
ATOM     21  F   UNL     1       5.414   3.019  14.783  0.00  0.00    +0.000 F 
ENDBRANCH  14  15
ENDBRANCH  12  14
ENDBRANCH   1  12
TORSDOF 4
ENDMDL
MODEL 4
REMARK VINA RESULT:      -7.8      2.124      3.039
REMARK  Name = 
REMARK  4 active torsions:
REMARK  status: ('A' for Active; 'I' for Inactive)
REMARK    1  A    between atoms: C_2  and  O_3
REMARK    2  A    between atoms: C_2  and  C_15
REMARK    3  A    between atoms: O_3  and  C_4
REMARK    4  A    between atoms: C_4  and  C_5
REMARK                            x       y       z     vdW  Elec       q    Type
REMARK                         _______ _______ _______ _____ _____    ______ ____
ROOT
ATOM      1  C   UNL     1       4.557   5.714  19.034  0.00  0.00    +0.000 C 
ENDROOT
BRANCH   1   2
ATOM      2  C   UNL     1       3.267   6.424  18.577  0.00  0.00    +0.000 C 
ATOM      3  C   UNL     1       2.395   6.996  19.692  0.00  0.00    +0.000 C 
ATOM      4  O   UNL     1       1.932   5.990  20.597  0.00  0.00    +0.000 OA
ATOM      5  C   UNL     1       1.663   4.800  19.972  0.00  0.00    +0.000 A 
ATOM      6  C   UNL     1       1.233   3.755  20.786  0.00  0.00    +0.000 A 
ATOM      7  C   UNL     1       1.050   2.483  20.242  0.00  0.00    +0.000 A 
ATOM      8  C   UNL     1       1.264   2.263  18.880  0.00  0.00    +0.000 A 
ATOM      9  C   UNL     1       1.672   3.313  18.056  0.00  0.00    +0.000 A 
ATOM     10  C   UNL     1       1.898   4.570  18.610  0.00  0.00    +0.000 A 
ATOM     11  O   UNL     1       2.471   5.515  17.789  0.00  0.00    +0.000 OA
ENDBRANCH   1   2
BRANCH   1  12
ATOM     12  O   UNL     1       5.697   6.084  18.251  0.00  0.00    +0.000 OA
BRANCH  12  14
ATOM     13  O   UNL     1       7.278   4.457  18.619  0.00  0.00    +0.000 OA
ATOM     14  C   UNL     1       6.509   5.064  17.888  0.00  0.00    +0.000 C 
BRANCH  14  15
ATOM     15  C   UNL     1       6.374   4.714  16.450  0.00  0.00    +0.000 A 
ATOM     16  C   UNL     1       7.311   5.259  15.554  0.00  0.00    +0.000 A 
ATOM     17  C   UNL     1       7.256   4.953  14.194  0.00  0.00    +0.000 A 
ATOM     18  C   UNL     1       6.272   4.091  13.714  0.00  0.00    +0.000 A 
ATOM     19  C   UNL     1       5.346   3.537  14.598  0.00  0.00    +0.000 A 
ATOM     20  C   UNL     1       5.397   3.846  15.954  0.00  0.00    +0.000 A 
ATOM     21  F   UNL     1       4.493   3.272  16.761  0.00  0.00    +0.000 F 
ENDBRANCH  14  15
ENDBRANCH  12  14
ENDBRANCH   1  12
TORSDOF 4
ENDMDL
MODEL 5
REMARK VINA RESULT:      -7.7      2.401      3.529
REMARK  Name = 
REMARK  4 active torsions:
REMARK  status: ('A' for Active; 'I' for Inactive)
REMARK    1  A    between atoms: C_2  and  O_3
REMARK    2  A    between atoms: C_2  and  C_15
REMARK    3  A    between atoms: O_3  and  C_4
REMARK    4  A    between atoms: C_4  and  C_5
REMARK                            x       y       z     vdW  Elec       q    Type
REMARK                         _______ _______ _______ _____ _____    ______ ____
ROOT
ATOM      1  C   UNL     1       5.427   4.670  19.258  0.00  0.00    +0.000 C 
ENDROOT
BRANCH   1   2
ATOM      2  C   UNL     1       5.195   3.233  18.751  0.00  0.00    +0.000 C 
ATOM      3  C   UNL     1       4.311   3.102  17.513  0.00  0.00    +0.000 C 
ATOM      4  O   UNL     1       2.991   3.610  17.725  0.00  0.00    +0.000 OA
ATOM      5  C   UNL     1       2.535   3.383  18.998  0.00  0.00    +0.000 A 
ATOM      6  C   UNL     1       1.266   3.871  19.298  0.00  0.00    +0.000 A 
ATOM      7  C   UNL     1       0.779   3.780  20.603  0.00  0.00    +0.000 A 
ATOM      8  C   UNL     1       1.547   3.172  21.599  0.00  0.00    +0.000 A 
ATOM      9  C   UNL     1       2.810   2.660  21.297  0.00  0.00    +0.000 A 
ATOM     10  C   UNL     1       3.311   2.793  20.004  0.00  0.00    +0.000 A 
ATOM     11  O   UNL     1       4.626   2.435  19.810  0.00  0.00    +0.000 OA
ENDBRANCH   1   2
BRANCH   1  12
ATOM     12  O   UNL     1       6.816   4.984  19.409  0.00  0.00    +0.000 OA
BRANCH  12  14
ATOM     13  O   UNL     1       8.092   6.799  18.808  0.00  0.00    +0.000 OA
ATOM     14  C   UNL     1       7.301   5.905  18.544  0.00  0.00    +0.000 C 
BRANCH  14  15
ATOM     15  C   UNL     1       6.775   5.723  17.167  0.00  0.00    +0.000 A 
ATOM     16  C   UNL     1       7.367   4.730  16.366  0.00  0.00    +0.000 A 
ATOM     17  C   UNL     1       6.905   4.490  15.071  0.00  0.00    +0.000 A 
ATOM     18  C   UNL     1       5.839   5.231  14.565  0.00  0.00    +0.000 A 
ATOM     19  C   UNL     1       5.238   6.210  15.357  0.00  0.00    +0.000 A 
ATOM     20  C   UNL     1       5.703   6.453  16.646  0.00  0.00    +0.000 A 
ATOM     21  F   UNL     1       5.077   7.393  17.369  0.00  0.00    +0.000 F 
ENDBRANCH  14  15
ENDBRANCH  12  14
ENDBRANCH   1  12
TORSDOF 4
ENDMDL
MODEL 6
REMARK VINA RESULT:      -7.7      2.676      6.133
REMARK  Name = 
REMARK  4 active torsions:
REMARK  status: ('A' for Active; 'I' for Inactive)
REMARK    1  A    between atoms: C_2  and  O_3
REMARK    2  A    between atoms: C_2  and  C_15
REMARK    3  A    between atoms: O_3  and  C_4
REMARK    4  A    between atoms: C_4  and  C_5
REMARK                            x       y       z     vdW  Elec       q    Type
REMARK                         _______ _______ _______ _____ _____    ______ ____
ROOT
ATOM      1  C   UNL     1       4.998   6.392  18.158  0.00  0.00    +0.000 C 
ENDROOT
BRANCH   1   2
ATOM      2  C   UNL     1       5.653   5.059  18.568  0.00  0.00    +0.000 C 
ATOM      3  C   UNL     1       7.179   5.056  18.606  0.00  0.00    +0.000 C 
ATOM      4  O   UNL     1       7.761   5.347  17.333  0.00  0.00    +0.000 OA
ATOM      5  C   UNL     1       7.037   4.830  16.290  0.00  0.00    +0.000 A 
ATOM      6  C   UNL     1       7.519   5.092  15.010  0.00  0.00    +0.000 A 
ATOM      7  C   UNL     1       6.777   4.697  13.896  0.00  0.00    +0.000 A 
ATOM      8  C   UNL     1       5.571   4.012  14.061  0.00  0.00    +0.000 A 
ATOM      9  C   UNL     1       5.096   3.726  15.342  0.00  0.00    +0.000 A 
ATOM     10  C   UNL     1       5.817   4.162  16.452  0.00  0.00    +0.000 A 
ATOM     11  O   UNL     1       5.212   4.012  17.679  0.00  0.00    +0.000 OA
ENDBRANCH   1   2
BRANCH   1  12
ATOM     12  O   UNL     1       3.738   6.209  17.501  0.00  0.00    +0.000 OA
BRANCH  12  14
ATOM     13  O   UNL     1       2.174   7.578  18.480  0.00  0.00    +0.000 OA
ATOM     14  C   UNL     1       2.645   6.473  18.253  0.00  0.00    +0.000 C 
BRANCH  14  15
ATOM     15  C   UNL     1       2.023   5.241  18.802  0.00  0.00    +0.000 A 
ATOM     16  C   UNL     1       1.757   4.189  17.908  0.00  0.00    +0.000 A 
ATOM     17  C   UNL     1       1.196   2.994  18.360  0.00  0.00    +0.000 A 
ATOM     18  C   UNL     1       0.903   2.832  19.713  0.00  0.00    +0.000 A 
ATOM     19  C   UNL     1       1.174   3.866  20.609  0.00  0.00    +0.000 A 
ATOM     20  C   UNL     1       1.730   5.060  20.156  0.00  0.00    +0.000 A 
ATOM     21  F   UNL     1       1.985   6.014  21.064  0.00  0.00    +0.000 F 
ENDBRANCH  14  15
ENDBRANCH  12  14
ENDBRANCH   1  12
TORSDOF 4
ENDMDL
MODEL 7
REMARK VINA RESULT:      -7.6      2.606      6.301
REMARK  Name = 
REMARK  4 active torsions:
REMARK  status: ('A' for Active; 'I' for Inactive)
REMARK    1  A    between atoms: C_2  and  O_3
REMARK    2  A    between atoms: C_2  and  C_15
REMARK    3  A    between atoms: O_3  and  C_4
REMARK    4  A    between atoms: C_4  and  C_5
REMARK                            x       y       z     vdW  Elec       q    Type
REMARK                         _______ _______ _______ _____ _____    ______ ____
ROOT
ATOM      1  C   UNL     1       5.831   5.138  19.170  0.00  0.00    +0.000 C 
ENDROOT
BRANCH   1   2
ATOM      2  C   UNL     1       7.277   5.440  18.730  0.00  0.00    +0.000 C 
ATOM      3  C   UNL     1       7.526   6.850  18.198  0.00  0.00    +0.000 C 
ATOM      4  O   UNL     1       6.744   7.145  17.038  0.00  0.00    +0.000 OA
ATOM      5  C   UNL     1       6.576   6.056  16.222  0.00  0.00    +0.000 A 
ATOM      6  C   UNL     1       5.801   6.249  15.082  0.00  0.00    +0.000 A 
ATOM      7  C   UNL     1       5.491   5.162  14.263  0.00  0.00    +0.000 A 
ATOM      8  C   UNL     1       5.981   3.890  14.566  0.00  0.00    +0.000 A 
ATOM      9  C   UNL     1       6.778   3.697  15.696  0.00  0.00    +0.000 A 
ATOM     10  C   UNL     1       7.048   4.775  16.535  0.00  0.00    +0.000 A 
ATOM     11  O   UNL     1       7.682   4.490  17.723  0.00  0.00    +0.000 OA
ENDBRANCH   1   2
BRANCH   1  12
ATOM     12  O   UNL     1       5.538   3.737  19.178  0.00  0.00    +0.000 OA
BRANCH  12  14
ATOM     13  O   UNL     1       4.210   3.120  17.406  0.00  0.00    +0.000 OA
ATOM     14  C   UNL     1       4.373   3.383  18.589  0.00  0.00    +0.000 C 
BRANCH  14  15
ATOM     15  C   UNL     1       3.244   3.325  19.554  0.00  0.00    +0.000 A 
ATOM     16  C   UNL     1       3.423   2.566  20.725  0.00  0.00    +0.000 A 
ATOM     17  C   UNL     1       2.413   2.489  21.684  0.00  0.00    +0.000 A 
ATOM     18  C   UNL     1       1.217   3.176  21.491  0.00  0.00    +0.000 A 
ATOM     19  C   UNL     1       1.035   3.940  20.339  0.00  0.00    +0.000 A 
ATOM     20  C   UNL     1       2.041   4.013  19.379  0.00  0.00    +0.000 A 
ATOM     21  F   UNL     1       1.819   4.776  18.298  0.00  0.00    +0.000 F 
ENDBRANCH  14  15
ENDBRANCH  12  14
ENDBRANCH   1  12
TORSDOF 4
ENDMDL
MODEL 8
REMARK VINA RESULT:      -7.6      2.263      5.872
REMARK  Name = 
REMARK  4 active torsions:
REMARK  status: ('A' for Active; 'I' for Inactive)
REMARK    1  A    between atoms: C_2  and  O_3
REMARK    2  A    between atoms: C_2  and  C_15
REMARK    3  A    between atoms: O_3  and  C_4
REMARK    4  A    between atoms: C_4  and  C_5
REMARK                            x       y       z     vdW  Elec       q    Type
REMARK                         _______ _______ _______ _____ _____    ______ ____
ROOT
ATOM      1  C   UNL     1       5.556   4.728  19.193  0.00  0.00    +0.000 C 
ENDROOT
BRANCH   1   2
ATOM      2  C   UNL     1       6.980   5.191  18.826  0.00  0.00    +0.000 C 
ATOM      3  C   UNL     1       7.112   6.653  18.405  0.00  0.00    +0.000 C 
ATOM      4  O   UNL     1       6.340   6.961  17.242  0.00  0.00    +0.000 OA
ATOM      5  C   UNL     1       6.297   5.925  16.346  0.00  0.00    +0.000 A 
ATOM      6  C   UNL     1       5.541   6.132  15.195  0.00  0.00    +0.000 A 
ATOM      7  C   UNL     1       5.355   5.085  14.291  0.00  0.00    +0.000 A 
ATOM      8  C   UNL     1       5.952   3.843  14.520  0.00  0.00    +0.000 A 
ATOM      9  C   UNL     1       6.731   3.639  15.660  0.00  0.00    +0.000 A 
ATOM     10  C   UNL     1       6.876   4.672  16.583  0.00  0.00    +0.000 A 
ATOM     11  O   UNL     1       7.500   4.358  17.769  0.00  0.00    +0.000 OA
ENDBRANCH   1   2
BRANCH   1  12
ATOM     12  O   UNL     1       4.713   5.810  19.606  0.00  0.00    +0.000 OA
BRANCH  12  14
ATOM     13  O   UNL     1       3.281   6.896  18.174  0.00  0.00    +0.000 OA
ATOM     14  C   UNL     1       3.568   5.956  18.900  0.00  0.00    +0.000 C 
BRANCH  14  15
ATOM     15  C   UNL     1       2.639   4.810  19.082  0.00  0.00    +0.000 A 
ATOM     16  C   UNL     1       1.933   4.727  20.295  0.00  0.00    +0.000 A 
ATOM     17  C   UNL     1       1.026   3.691  20.521  0.00  0.00    +0.000 A 
ATOM     18  C   UNL     1       0.807   2.731  19.535  0.00  0.00    +0.000 A 
ATOM     19  C   UNL     1       1.495   2.813  18.324  0.00  0.00    +0.000 A 
ATOM     20  C   UNL     1       2.402   3.844  18.101  0.00  0.00    +0.000 A 
ATOM     21  F   UNL     1       3.023   3.883  16.912  0.00  0.00    +0.000 F 
ENDBRANCH  14  15
ENDBRANCH  12  14
ENDBRANCH   1  12
TORSDOF 4
ENDMDL
MODEL 9
REMARK VINA RESULT:      -7.5      1.596      1.768
REMARK  Name = 
REMARK  4 active torsions:
REMARK  status: ('A' for Active; 'I' for Inactive)
REMARK    1  A    between atoms: C_2  and  O_3
REMARK    2  A    between atoms: C_2  and  C_15
REMARK    3  A    between atoms: O_3  and  C_4
REMARK    4  A    between atoms: C_4  and  C_5
REMARK                            x       y       z     vdW  Elec       q    Type
REMARK                         _______ _______ _______ _____ _____    ______ ____
ROOT
ATOM      1  C   UNL     1       3.922   5.586  17.307  0.00  0.00    +0.000 C 
ENDROOT
BRANCH   1   2
ATOM      2  C   UNL     1       4.521   5.983  18.670  0.00  0.00    +0.000 C 
ATOM      3  C   UNL     1       5.559   5.020  19.242  0.00  0.00    +0.000 C 
ATOM      4  O   UNL     1       5.029   3.711  19.468  0.00  0.00    +0.000 OA
ATOM      5  C   UNL     1       3.721   3.734  19.880  0.00  0.00    +0.000 A 
ATOM      6  C   UNL     1       3.117   2.498  20.095  0.00  0.00    +0.000 A 
ATOM      7  C   UNL     1       1.758   2.436  20.405  0.00  0.00    +0.000 A 
ATOM      8  C   UNL     1       1.011   3.610  20.532  0.00  0.00    +0.000 A 
ATOM      9  C   UNL     1       1.618   4.851  20.340  0.00  0.00    +0.000 A 
ATOM     10  C   UNL     1       2.964   4.908  19.986  0.00  0.00    +0.000 A 
ATOM     11  O   UNL     1       3.460   6.143  19.635  0.00  0.00    +0.000 OA
ENDBRANCH   1   2
BRANCH   1  12
ATOM     12  O   UNL     1       4.911   5.490  16.276  0.00  0.00    +0.000 OA
BRANCH  12  14
ATOM     13  O   UNL     1       4.815   3.195  16.350  0.00  0.00    +0.000 OA
ATOM     14  C   UNL     1       5.150   4.241  15.814  0.00  0.00    +0.000 C 
BRANCH  14  15
ATOM     15  C   UNL     1       5.884   4.245  14.522  0.00  0.00    +0.000 A 
ATOM     16  C   UNL     1       5.314   3.543  13.444  0.00  0.00    +0.000 A 
ATOM     17  C   UNL     1       5.938   3.526  12.196  0.00  0.00    +0.000 A 
ATOM     18  C   UNL     1       7.132   4.217  12.006  0.00  0.00    +0.000 A 
ATOM     19  C   UNL     1       7.699   4.925  13.067  0.00  0.00    +0.000 A 
ATOM     20  C   UNL     1       7.079   4.938  14.313  0.00  0.00    +0.000 A 
ATOM     21  F   UNL     1       7.658   5.649  15.291  0.00  0.00    +0.000 F 
ENDBRANCH  14  15
ENDBRANCH  12  14
ENDBRANCH   1  12
TORSDOF 4
ENDMDL
