MODEL 1
REMARK VINA RESULT:      -8.5      0.000      0.000
REMARK  Name = 
REMARK  5 active torsions:
REMARK  status: ('A' for Active; 'I' for Inactive)
REMARK    1  A    between atoms: C_1  and  O_2
REMARK    2  A    between atoms: O_2  and  C_3
REMARK    3  A    between atoms: C_7  and  C_8
REMARK    4  A    between atoms: C_20  and  C_21
REMARK    5  A    between atoms: C_20  and  C_22
REMARK                            x       y       z     vdW  Elec       q    Type
REMARK                         _______ _______ _______ _____ _____    ______ ____
ROOT
ATOM      1  C   UNL     1       2.337   7.281  19.050  0.00  0.00    +0.000 A 
ATOM      2  C   UNL     1       1.917   7.165  20.314  0.00  0.00    +0.000 A 
ATOM      3  O   UNL     1       1.181   8.091  21.011  0.00  0.00    +0.000 OA
ATOM      4  C   UNL     1       0.871   9.278  20.386  0.00  0.00    +0.000 A 
ATOM      5  C   UNL     1       0.138  10.234  21.100  0.00  0.00    +0.000 A 
ATOM      6  C   UNL     1      -0.192  11.441  20.471  0.00  0.00    +0.000 A 
ATOM      7  C   UNL     1       0.209  11.706  19.160  0.00  0.00    +0.000 A 
ATOM      8  C   UNL     1       0.936  10.756  18.453  0.00  0.00    +0.000 A 
ATOM      9  C   UNL     1       1.256   9.545  19.070  0.00  0.00    +0.000 A 
ATOM     10  C   UNL     1       1.991   8.522  18.314  0.00  0.00    +0.000 A 
ATOM     11  O   UNL     1       2.277   8.692  17.139  0.00  0.00    +0.000 OA
ATOM     12  O   UNL     1      -0.903  12.441  21.063  0.00  0.00    +0.000 OA
ATOM     13  C   UNL     1      -1.445  12.226  22.378  0.00  0.00    +0.000 C 
ATOM     14  C   UNL     1      -2.968  12.234  22.218  0.00  0.00    +0.000 C 
ATOM     15  C   UNL     1      -0.970  13.419  23.211  0.00  0.00    +0.000 C 
ATOM     16  C   UNL     1      -1.031  10.947  23.065  0.00  0.00    +0.000 C 
ATOM     17  C   UNL     1      -0.289  10.008  22.475  0.00  0.00    +0.000 C 
ENDROOT
BRANCH   1  22
ATOM     18  C   UNL     1       3.363   3.961  17.630  0.00  0.00    +0.000 A 
ATOM     19  C   UNL     1       4.727   4.178  17.408  0.00  0.00    +0.000 A 
ATOM     20  C   UNL     1       5.303   5.427  17.665  0.00  0.00    +0.000 A 
ATOM     21  C   UNL     1       4.520   6.467  18.165  0.00  0.00    +0.000 A 
ATOM     22  C   UNL     1       3.160   6.255  18.409  0.00  0.00    +0.000 A 
ATOM     23  C   UNL     1       2.588   5.011  18.122  0.00  0.00    +0.000 A 
ATOM     24  F   UNL     1       1.278   4.849  18.362  0.00  0.00    +0.000 F 
BRANCH  18  26
ATOM     25  C   UNL     1       3.466   1.660  18.197  0.00  0.00    +0.000 C 
ATOM     26  O   UNL     1       2.930   2.688  17.368  0.00  0.00    +0.000 OA
ENDBRANCH  18  26
ENDBRANCH   1  22
TORSDOF 2
ENDMDL
MODEL 2
REMARK VINA RESULT:      -8.4      2.150      8.323
REMARK  Name = 
REMARK  5 active torsions:
REMARK  status: ('A' for Active; 'I' for Inactive)
REMARK    1  A    between atoms: C_1  and  O_2
REMARK    2  A    between atoms: O_2  and  C_3
REMARK    3  A    between atoms: C_7  and  C_8
REMARK    4  A    between atoms: C_20  and  C_21
REMARK    5  A    between atoms: C_20  and  C_22
REMARK                            x       y       z     vdW  Elec       q    Type
REMARK                         _______ _______ _______ _____ _____    ______ ____
ROOT
ATOM      1  C   UNL     1       1.119   9.537  19.030  0.00  0.00    +0.000 A 
ATOM      2  C   UNL     1       1.810   9.661  17.892  0.00  0.00    +0.000 A 
ATOM      3  O   UNL     1       2.721   8.762  17.396  0.00  0.00    +0.000 OA
ATOM      4  C   UNL     1       3.001   7.640  18.144  0.00  0.00    +0.000 A 
ATOM      5  C   UNL     1       3.946   6.731  17.651  0.00  0.00    +0.000 A 
ATOM      6  C   UNL     1       4.231   5.581  18.399  0.00  0.00    +0.000 A 
ATOM      7  C   UNL     1       3.602   5.341  19.622  0.00  0.00    +0.000 A 
ATOM      8  C   UNL     1       2.665   6.243  20.109  0.00  0.00    +0.000 A 
ATOM      9  C   UNL     1       2.366   7.385  19.361  0.00  0.00    +0.000 A 
ATOM     10  C   UNL     1       1.348   8.323  19.853  0.00  0.00    +0.000 A 
ATOM     11  O   UNL     1       0.721   8.092  20.875  0.00  0.00    +0.000 OA
ATOM     12  O   UNL     1       5.126   4.627  18.020  0.00  0.00    +0.000 OA
ATOM     13  C   UNL     1       5.754   4.734  16.729  0.00  0.00    +0.000 C 
ATOM     14  C   UNL     1       5.249   3.543  15.910  0.00  0.00    +0.000 C 
ATOM     15  C   UNL     1       7.256   4.623  17.000  0.00  0.00    +0.000 C 
ATOM     16  C   UNL     1       5.482   6.006  15.964  0.00  0.00    +0.000 C 
ATOM     17  C   UNL     1       4.638   6.948  16.387  0.00  0.00    +0.000 C 
ENDROOT
BRANCH   1  22
ATOM     18  C   UNL     1      -1.938  11.704  19.253  0.00  0.00    +0.000 A 
ATOM     19  C   UNL     1      -1.510  12.671  20.170  0.00  0.00    +0.000 A 
ATOM     20  C   UNL     1      -0.247  12.584  20.763  0.00  0.00    +0.000 A 
ATOM     21  C   UNL     1       0.611  11.536  20.429  0.00  0.00    +0.000 A 
ATOM     22  C   UNL     1       0.202  10.576  19.499  0.00  0.00    +0.000 A 
ATOM     23  C   UNL     1      -1.075  10.656  18.933  0.00  0.00    +0.000 A 
ATOM     24  F   UNL     1      -1.434   9.710  18.051  0.00  0.00    +0.000 F 
BRANCH  18  26
ATOM     25  C   UNL     1      -4.180  12.380  19.630  0.00  0.00    +0.000 C 
ATOM     26  O   UNL     1      -3.182  11.920  18.722  0.00  0.00    +0.000 OA
ENDBRANCH  18  26
ENDBRANCH   1  22
TORSDOF 2
ENDMDL
MODEL 3
REMARK VINA RESULT:      -8.4      1.051      2.258
REMARK  Name = 
REMARK  5 active torsions:
REMARK  status: ('A' for Active; 'I' for Inactive)
REMARK    1  A    between atoms: C_1  and  O_2
REMARK    2  A    between atoms: O_2  and  C_3
REMARK    3  A    between atoms: C_7  and  C_8
REMARK    4  A    between atoms: C_20  and  C_21
REMARK    5  A    between atoms: C_20  and  C_22
REMARK                            x       y       z     vdW  Elec       q    Type
REMARK                         _______ _______ _______ _____ _____    ______ ____
ROOT
ATOM      1  C   UNL     1       2.587   7.401  18.431  0.00  0.00    +0.000 A 
ATOM      2  C   UNL     1       2.260   8.450  17.668  0.00  0.00    +0.000 A 
ATOM      3  O   UNL     1       1.504   9.529  18.055  0.00  0.00    +0.000 OA
ATOM      4  C   UNL     1       0.985   9.534  19.330  0.00  0.00    +0.000 A 
ATOM      5  C   UNL     1       0.196  10.623  19.722  0.00  0.00    +0.000 A 
ATOM      6  C   UNL     1      -0.329  10.644  21.021  0.00  0.00    +0.000 A 
ATOM      7  C   UNL     1      -0.090   9.598  21.914  0.00  0.00    +0.000 A 
ATOM      8  C   UNL     1       0.693   8.520  21.524  0.00  0.00    +0.000 A 
ATOM      9  C   UNL     1       1.231   8.499  20.235  0.00  0.00    +0.000 A 
ATOM     10  C   UNL     1       2.092   7.379  19.830  0.00  0.00    +0.000 A 
ATOM     11  O   UNL     1       2.388   6.496  20.620  0.00  0.00    +0.000 OA
ATOM     12  O   UNL     1      -1.105  11.649  21.514  0.00  0.00    +0.000 OA
ATOM     13  C   UNL     1      -1.329  12.818  20.705  0.00  0.00    +0.000 C 
ATOM     14  C   UNL     1      -0.645  13.978  21.433  0.00  0.00    +0.000 C 
ATOM     15  C   UNL     1      -2.847  13.002  20.671  0.00  0.00    +0.000 C 
ATOM     16  C   UNL     1      -0.807  12.754  19.289  0.00  0.00    +0.000 C 
ATOM     17  C   UNL     1      -0.093  11.730  18.819  0.00  0.00    +0.000 C 
ENDROOT
BRANCH   1  22
ATOM     18  C   UNL     1       3.459   3.898  17.403  0.00  0.00    +0.000 A 
ATOM     19  C   UNL     1       4.830   4.029  17.153  0.00  0.00    +0.000 A 
ATOM     20  C   UNL     1       5.460   5.273  17.262  0.00  0.00    +0.000 A 
ATOM     21  C   UNL     1       4.727   6.397  17.640  0.00  0.00    +0.000 A 
ATOM     22  C   UNL     1       3.361   6.274  17.911  0.00  0.00    +0.000 A 
ATOM     23  C   UNL     1       2.734   5.031  17.772  0.00  0.00    +0.000 A 
ATOM     24  F   UNL     1       1.419   4.955  18.033  0.00  0.00    +0.000 F 
BRANCH  18  26
ATOM     25  C   UNL     1       3.218   1.757  18.396  0.00  0.00    +0.000 C 
ATOM     26  O   UNL     1       2.970   2.624  17.291  0.00  0.00    +0.000 OA
ENDBRANCH  18  26
ENDBRANCH   1  22
TORSDOF 2
ENDMDL
MODEL 4
REMARK VINA RESULT:      -8.3      1.397      1.885
REMARK  Name = 
REMARK  5 active torsions:
REMARK  status: ('A' for Active; 'I' for Inactive)
REMARK    1  A    between atoms: C_1  and  O_2
REMARK    2  A    between atoms: O_2  and  C_3
REMARK    3  A    between atoms: C_7  and  C_8
REMARK    4  A    between atoms: C_20  and  C_21
REMARK    5  A    between atoms: C_20  and  C_22
REMARK                            x       y       z     vdW  Elec       q    Type
REMARK                         _______ _______ _______ _____ _____    ______ ____
ROOT
ATOM      1  C   UNL     1       2.326   6.653  19.174  0.00  0.00    +0.000 A 
ATOM      2  C   UNL     1       1.751   6.653  20.382  0.00  0.00    +0.000 A 
ATOM      3  O   UNL     1       1.087   7.705  20.963  0.00  0.00    +0.000 OA
ATOM      4  C   UNL     1       1.033   8.897  20.276  0.00  0.00    +0.000 A 
ATOM      5  C   UNL     1       0.374   9.979  20.874  0.00  0.00    +0.000 A 
ATOM      6  C   UNL     1       0.304  11.194  20.181  0.00  0.00    +0.000 A 
ATOM      7  C   UNL     1       0.887  11.342  18.921  0.00  0.00    +0.000 A 
ATOM      8  C   UNL     1       1.539  10.268  18.330  0.00  0.00    +0.000 A 
ATOM      9  C   UNL     1       1.601   9.050  19.010  0.00  0.00    +0.000 A 
ATOM     10  C   UNL     1       2.256   7.900  18.372  0.00  0.00    +0.000 A 
ATOM     11  O   UNL     1       2.697   7.977  17.236  0.00  0.00    +0.000 OA
ATOM     12  O   UNL     1      -0.312  12.311  20.659  0.00  0.00    +0.000 OA
ATOM     13  C   UNL     1      -1.027  12.233  21.905  0.00  0.00    +0.000 C 
ATOM     14  C   UNL     1      -2.503  12.457  21.565  0.00  0.00    +0.000 C 
ATOM     15  C   UNL     1      -0.477  13.377  22.760  0.00  0.00    +0.000 C 
ATOM     16  C   UNL     1      -0.892  10.937  22.667  0.00  0.00    +0.000 C 
ATOM     17  C   UNL     1      -0.237   9.875  22.193  0.00  0.00    +0.000 C 
ENDROOT
BRANCH   1  22
ATOM     18  C   UNL     1       5.183   4.354  18.371  0.00  0.00    +0.000 A 
ATOM     19  C   UNL     1       4.554   3.438  17.521  0.00  0.00    +0.000 A 
ATOM     20  C   UNL     1       3.184   3.533  17.256  0.00  0.00    +0.000 A 
ATOM     21  C   UNL     1       2.432   4.559  17.826  0.00  0.00    +0.000 A 
ATOM     22  C   UNL     1       3.053   5.492  18.661  0.00  0.00    +0.000 A 
ATOM     23  C   UNL     1       4.419   5.372  18.942  0.00  0.00    +0.000 A 
ATOM     24  F   UNL     1       4.978   6.282  19.755  0.00  0.00    +0.000 F 
BRANCH  18  26
ATOM     25  C   UNL     1       7.366   4.827  17.573  0.00  0.00    +0.000 C 
ATOM     26  O   UNL     1       6.531   4.171  18.524  0.00  0.00    +0.000 OA
ENDBRANCH  18  26
ENDBRANCH   1  22
TORSDOF 2
ENDMDL
MODEL 5
REMARK VINA RESULT:      -8.3      1.713      2.950
REMARK  Name = 
REMARK  5 active torsions:
REMARK  status: ('A' for Active; 'I' for Inactive)
REMARK    1  A    between atoms: C_1  and  O_2
REMARK    2  A    between atoms: O_2  and  C_3
REMARK    3  A    between atoms: C_7  and  C_8
REMARK    4  A    between atoms: C_20  and  C_21
REMARK    5  A    between atoms: C_20  and  C_22
REMARK                            x       y       z     vdW  Elec       q    Type
REMARK                         _______ _______ _______ _____ _____    ______ ____
ROOT
ATOM      1  C   UNL     1       2.537   7.084  18.503  0.00  0.00    +0.000 A 
ATOM      2  C   UNL     1       2.369   8.168  17.738  0.00  0.00    +0.000 A 
ATOM      3  O   UNL     1       1.801   9.355  18.128  0.00  0.00    +0.000 OA
ATOM      4  C   UNL     1       1.309   9.449  19.411  0.00  0.00    +0.000 A 
ATOM      5  C   UNL     1       0.710  10.651  19.807  0.00  0.00    +0.000 A 
ATOM      6  C   UNL     1       0.216  10.762  21.113  0.00  0.00    +0.000 A 
ATOM      7  C   UNL     1       0.300   9.695  22.010  0.00  0.00    +0.000 A 
ATOM      8  C   UNL     1       0.895   8.504  21.616  0.00  0.00    +0.000 A 
ATOM      9  C   UNL     1       1.402   8.392  20.319  0.00  0.00    +0.000 A 
ATOM     10  C   UNL     1       2.067   7.148  19.909  0.00  0.00    +0.000 A 
ATOM     11  O   UNL     1       2.232   6.232  20.701  0.00  0.00    +0.000 OA
ATOM     12  O   UNL     1      -0.383  11.880  21.610  0.00  0.00    +0.000 OA
ATOM     13  C   UNL     1      -0.430  13.066  20.797  0.00  0.00    +0.000 C 
ATOM     14  C   UNL     1       0.441  14.106  21.507  0.00  0.00    +0.000 C 
ATOM     15  C   UNL     1      -1.900  13.490  20.784  0.00  0.00    +0.000 C 
ATOM     16  C   UNL     1       0.052  12.913  19.374  0.00  0.00    +0.000 C 
ATOM     17  C   UNL     1       0.587  11.786  18.900  0.00  0.00    +0.000 C 
ENDROOT
BRANCH   1  22
ATOM     18  C   UNL     1       5.005   4.729  16.936  0.00  0.00    +0.000 A 
ATOM     19  C   UNL     1       4.207   3.594  16.753  0.00  0.00    +0.000 A 
ATOM     20  C   UNL     1       2.880   3.574  17.194  0.00  0.00    +0.000 A 
ATOM     21  C   UNL     1       2.332   4.700  17.809  0.00  0.00    +0.000 A 
ATOM     22  C   UNL     1       3.113   5.846  17.979  0.00  0.00    +0.000 A 
ATOM     23  C   UNL     1       4.448   5.846  17.560  0.00  0.00    +0.000 A 
ATOM     24  F   UNL     1       5.169   6.962  17.749  0.00  0.00    +0.000 F 
BRANCH  18  26
ATOM     25  C   UNL     1       7.328   4.585  17.392  0.00  0.00    +0.000 C 
ATOM     26  O   UNL     1       6.274   4.631  16.433  0.00  0.00    +0.000 OA
ENDBRANCH  18  26
ENDBRANCH   1  22
TORSDOF 2
ENDMDL
MODEL 6
REMARK VINA RESULT:      -8.1      2.090      8.437
REMARK  Name = 
REMARK  5 active torsions:
REMARK  status: ('A' for Active; 'I' for Inactive)
REMARK    1  A    between atoms: C_1  and  O_2
REMARK    2  A    between atoms: O_2  and  C_3
REMARK    3  A    between atoms: C_7  and  C_8
REMARK    4  A    between atoms: C_20  and  C_21
REMARK    5  A    between atoms: C_20  and  C_22
REMARK                            x       y       z     vdW  Elec       q    Type
REMARK                         _______ _______ _______ _____ _____    ______ ____
ROOT
ATOM      1  C   UNL     1       1.049   9.601  19.008  0.00  0.00    +0.000 A 
ATOM      2  C   UNL     1       1.757   9.714  17.879  0.00  0.00    +0.000 A 
ATOM      3  O   UNL     1       2.678   8.812  17.406  0.00  0.00    +0.000 OA
ATOM      4  C   UNL     1       2.950   7.700  18.172  0.00  0.00    +0.000 A 
ATOM      5  C   UNL     1       3.904   6.788  17.704  0.00  0.00    +0.000 A 
ATOM      6  C   UNL     1       4.181   5.648  18.468  0.00  0.00    +0.000 A 
ATOM      7  C   UNL     1       3.535   5.419  19.684  0.00  0.00    +0.000 A 
ATOM      8  C   UNL     1       2.589   6.324  20.147  0.00  0.00    +0.000 A 
ATOM      9  C   UNL     1       2.298   7.457  19.382  0.00  0.00    +0.000 A 
ATOM     10  C   UNL     1       1.270   8.397  19.848  0.00  0.00    +0.000 A 
ATOM     11  O   UNL     1       0.628   8.176  20.862  0.00  0.00    +0.000 OA
ATOM     12  O   UNL     1       5.085   4.692  18.114  0.00  0.00    +0.000 OA
ATOM     13  C   UNL     1       5.732   4.786  16.832  0.00  0.00    +0.000 C 
ATOM     14  C   UNL     1       5.243   3.585  16.018  0.00  0.00    +0.000 C 
ATOM     15  C   UNL     1       7.230   4.683  17.126  0.00  0.00    +0.000 C 
ATOM     16  C   UNL     1       5.468   6.049  16.047  0.00  0.00    +0.000 C 
ATOM     17  C   UNL     1       4.615   6.993  16.447  0.00  0.00    +0.000 C 
ENDROOT
BRANCH   1  22
ATOM     18  C   UNL     1      -0.400  12.394  21.054  0.00  0.00    +0.000 A 
ATOM     19  C   UNL     1      -1.682  12.489  20.502  0.00  0.00    +0.000 A 
ATOM     20  C   UNL     1      -2.057  11.683  19.422  0.00  0.00    +0.000 A 
ATOM     21  C   UNL     1      -1.154  10.759  18.894  0.00  0.00    +0.000 A 
ATOM     22  C   UNL     1       0.122  10.642  19.450  0.00  0.00    +0.000 A 
ATOM     23  C   UNL     1       0.497  11.473  20.513  0.00  0.00    +0.000 A 
ATOM     24  F   UNL     1       1.734  11.336  21.015  0.00  0.00    +0.000 F 
BRANCH  18  26
ATOM     25  C   UNL     1      -1.226  13.315  23.078  0.00  0.00    +0.000 C 
ATOM     26  O   UNL     1      -0.170  13.215  22.126  0.00  0.00    +0.000 OA
ENDBRANCH  18  26
ENDBRANCH   1  22
TORSDOF 2
ENDMDL
MODEL 7
REMARK VINA RESULT:      -7.7      2.046      7.906
REMARK  Name = 
REMARK  5 active torsions:
REMARK  status: ('A' for Active; 'I' for Inactive)
REMARK    1  A    between atoms: C_1  and  O_2
REMARK    2  A    between atoms: O_2  and  C_3
REMARK    3  A    between atoms: C_7  and  C_8
REMARK    4  A    between atoms: C_20  and  C_21
REMARK    5  A    between atoms: C_20  and  C_22
REMARK                            x       y       z     vdW  Elec       q    Type
REMARK                         _______ _______ _______ _____ _____    ______ ____
ROOT
ATOM      1  C   UNL     1       0.993   9.512  20.193  0.00  0.00    +0.000 A 
ATOM      2  C   UNL     1       0.770   8.559  21.104  0.00  0.00    +0.000 A 
ATOM      3  O   UNL     1       1.203   7.258  21.038  0.00  0.00    +0.000 OA
ATOM      4  C   UNL     1       1.895   6.860  19.916  0.00  0.00    +0.000 A 
ATOM      5  C   UNL     1       2.320   5.528  19.835  0.00  0.00    +0.000 A 
ATOM      6  C   UNL     1       3.034   5.115  18.704  0.00  0.00    +0.000 A 
ATOM      7  C   UNL     1       3.312   6.000  17.661  0.00  0.00    +0.000 A 
ATOM      8  C   UNL     1       2.890   7.321  17.743  0.00  0.00    +0.000 A 
ATOM      9  C   UNL     1       2.190   7.743  18.876  0.00  0.00    +0.000 A 
ATOM     10  C   UNL     1       1.775   9.148  18.985  0.00  0.00    +0.000 A 
ATOM     11  O   UNL     1       2.081   9.963  18.128  0.00  0.00    +0.000 OA
ATOM     12  O   UNL     1       3.500   3.848  18.516  0.00  0.00    +0.000 OA
ATOM     13  C   UNL     1       3.351   2.886  19.576  0.00  0.00    +0.000 C 
ATOM     14  C   UNL     1       4.767   2.551  20.051  0.00  0.00    +0.000 C 
ATOM     15  C   UNL     1       2.683   1.672  18.928  0.00  0.00    +0.000 C 
ATOM     16  C   UNL     1       2.529   3.330  20.762  0.00  0.00    +0.000 C 
ATOM     17  C   UNL     1       2.040   4.564  20.893  0.00  0.00    +0.000 C 
ENDROOT
BRANCH   1  22
ATOM     18  C   UNL     1      -1.346  12.426  19.830  0.00  0.00    +0.000 A 
ATOM     19  C   UNL     1      -0.561  13.461  20.348  0.00  0.00    +0.000 A 
ATOM     20  C   UNL     1       0.710  13.202  20.872  0.00  0.00    +0.000 A 
ATOM     21  C   UNL     1       1.215  11.902  20.865  0.00  0.00    +0.000 A 
ATOM     22  C   UNL     1       0.447  10.862  20.332  0.00  0.00    +0.000 A 
ATOM     23  C   UNL     1      -0.834  11.128  19.836  0.00  0.00    +0.000 A 
ATOM     24  F   UNL     1      -1.543  10.103  19.340  0.00  0.00    +0.000 F 
BRANCH  18  26
ATOM     25  C   UNL     1      -3.669  12.722  20.206  0.00  0.00    +0.000 C 
ATOM     26  O   UNL     1      -2.556  12.816  19.321  0.00  0.00    +0.000 OA
ENDBRANCH  18  26
ENDBRANCH   1  22
TORSDOF 2
ENDMDL
MODEL 8
REMARK VINA RESULT:      -7.7      1.899      3.241
REMARK  Name = 
REMARK  5 active torsions:
REMARK  status: ('A' for Active; 'I' for Inactive)
REMARK    1  A    between atoms: C_1  and  O_2
REMARK    2  A    between atoms: O_2  and  C_3
REMARK    3  A    between atoms: C_7  and  C_8
REMARK    4  A    between atoms: C_20  and  C_21
REMARK    5  A    between atoms: C_20  and  C_22
REMARK                            x       y       z     vdW  Elec       q    Type
REMARK                         _______ _______ _______ _____ _____    ______ ____
ROOT
ATOM      1  C   UNL     1       2.311   6.926  18.809  0.00  0.00    +0.000 A 
ATOM      2  C   UNL     1       2.645   7.835  17.887  0.00  0.00    +0.000 A 
ATOM      3  O   UNL     1       2.423   9.188  17.964  0.00  0.00    +0.000 OA
ATOM      4  C   UNL     1       1.754   9.674  19.065  0.00  0.00    +0.000 A 
ATOM      5  C   UNL     1       1.507  11.050  19.138  0.00  0.00    +0.000 A 
ATOM      6  C   UNL     1       0.836  11.558  20.258  0.00  0.00    +0.000 A 
ATOM      7  C   UNL     1       0.404  10.715  21.284  0.00  0.00    +0.000 A 
ATOM      8  C   UNL     1       0.650   9.351  21.210  0.00  0.00    +0.000 A 
ATOM      9  C   UNL     1       1.331   8.840  20.102  0.00  0.00    +0.000 A 
ATOM     10  C   UNL     1       1.628   7.403  20.038  0.00  0.00    +0.000 A 
ATOM     11  O   UNL     1       1.339   6.659  20.961  0.00  0.00    +0.000 OA
ATOM     12  O   UNL     1       0.543  12.876  20.440  0.00  0.00    +0.000 OA
ATOM     13  C   UNL     1       1.032  13.836  19.486  0.00  0.00    +0.000 C 
ATOM     14  C   UNL     1       2.038  14.711  20.239  0.00  0.00    +0.000 C 
ATOM     15  C   UNL     1      -0.195  14.645  19.062  0.00  0.00    +0.000 C 
ATOM     16  C   UNL     1       1.700  13.269  18.257  0.00  0.00    +0.000 C 
ATOM     17  C   UNL     1       1.926  11.965  18.084  0.00  0.00    +0.000 C 
ENDROOT
BRANCH   1  22
ATOM     18  C   UNL     1       4.000   3.577  18.969  0.00  0.00    +0.000 A 
ATOM     19  C   UNL     1       3.200   2.836  18.093  0.00  0.00    +0.000 A 
ATOM     20  C   UNL     1       2.074   3.410  17.493  0.00  0.00    +0.000 A 
ATOM     21  C   UNL     1       1.747   4.740  17.753  0.00  0.00    +0.000 A 
ATOM     22  C   UNL     1       2.549   5.496  18.612  0.00  0.00    +0.000 A 
ATOM     23  C   UNL     1       3.658   4.905  19.229  0.00  0.00    +0.000 A 
ATOM     24  F   UNL     1       4.399   5.661  20.053  0.00  0.00    +0.000 F 
BRANCH  18  26
ATOM     25  C   UNL     1       4.819   1.910  20.444  0.00  0.00    +0.000 C 
ATOM     26  O   UNL     1       5.088   2.910  19.465  0.00  0.00    +0.000 OA
ENDBRANCH  18  26
ENDBRANCH   1  22
TORSDOF 2
ENDMDL
MODEL 9
REMARK VINA RESULT:      -7.5      2.105      8.070
REMARK  Name = 
REMARK  5 active torsions:
REMARK  status: ('A' for Active; 'I' for Inactive)
REMARK    1  A    between atoms: C_1  and  O_2
REMARK    2  A    between atoms: O_2  and  C_3
REMARK    3  A    between atoms: C_7  and  C_8
REMARK    4  A    between atoms: C_20  and  C_21
REMARK    5  A    between atoms: C_20  and  C_22
REMARK                            x       y       z     vdW  Elec       q    Type
REMARK                         _______ _______ _______ _____ _____    ______ ____
ROOT
ATOM      1  C   UNL     1       0.064  10.131  20.835  0.00  0.00    +0.000 A 
ATOM      2  C   UNL     1       0.128   8.970  21.497  0.00  0.00    +0.000 A 
ATOM      3  O   UNL     1       0.858   7.867  21.129  0.00  0.00    +0.000 OA
ATOM      4  C   UNL     1       1.564   7.920  19.947  0.00  0.00    +0.000 A 
ATOM      5  C   UNL     1       2.293   6.790  19.557  0.00  0.00    +0.000 A 
ATOM      6  C   UNL     1       3.023   6.836  18.363  0.00  0.00    +0.000 A 
ATOM      7  C   UNL     1       3.021   7.977  17.559  0.00  0.00    +0.000 A 
ATOM      8  C   UNL     1       2.298   9.097  17.947  0.00  0.00    +0.000 A 
ATOM      9  C   UNL     1       1.579   9.062  19.144  0.00  0.00    +0.000 A 
ATOM     10  C   UNL     1       0.844  10.258  19.578  0.00  0.00    +0.000 A 
ATOM     11  O   UNL     1       0.897  11.296  18.939  0.00  0.00    +0.000 OA
ATOM     12  O   UNL     1       3.770   5.802  17.885  0.00  0.00    +0.000 OA
ATOM     13  C   UNL     1       3.916   4.617  18.689  0.00  0.00    +0.000 C 
ATOM     14  C   UNL     1       5.395   4.544  19.077  0.00  0.00    +0.000 C 
ATOM     15  C   UNL     1       3.526   3.456  17.772  0.00  0.00    +0.000 C 
ATOM     16  C   UNL     1       3.077   4.560  19.943  0.00  0.00    +0.000 C 
ATOM     17  C   UNL     1       2.312   5.572  20.358  0.00  0.00    +0.000 C 
ENDROOT
BRANCH   1  22
ATOM     18  C   UNL     1      -2.613  12.761  20.804  0.00  0.00    +0.000 A 
ATOM     19  C   UNL     1      -2.292  13.479  21.961  0.00  0.00    +0.000 A 
ATOM     20  C   UNL     1      -1.239  13.072  22.786  0.00  0.00    +0.000 A 
ATOM     21  C   UNL     1      -0.483  11.949  22.450  0.00  0.00    +0.000 A 
ATOM     22  C   UNL     1      -0.783  11.235  21.286  0.00  0.00    +0.000 A 
ATOM     23  C   UNL     1      -1.856  11.635  20.482  0.00  0.00    +0.000 A 
ATOM     24  F   UNL     1      -2.118  10.919  19.377  0.00  0.00    +0.000 F 
BRANCH  18  26
ATOM     25  C   UNL     1      -4.853  12.523  20.058  0.00  0.00    +0.000 C 
ATOM     26  O   UNL     1      -3.645  13.281  20.068  0.00  0.00    +0.000 OA
ENDBRANCH  18  26
ENDBRANCH   1  22
TORSDOF 2
ENDMDL
