MODEL 1
REMARK VINA RESULT:      -7.4      0.000      0.000
REMARK  Name = 
REMARK  8 active torsions:
REMARK  status: ('A' for Active; 'I' for Inactive)
REMARK    1  A    between atoms: C_1  and  N_2
REMARK    2  A    between atoms: N_2  and  C_3
REMARK    3  A    between atoms: N_2  and  C_4
REMARK    4  A    between atoms: N_11  and  S_12
REMARK    5  A    between atoms: S_12  and  C_15
REMARK    6  A    between atoms: C_23  and  C_24
REMARK    7  A    between atoms: C_24  and  C_25
REMARK    8  A    between atoms: C_25  and  O_26
REMARK                            x       y       z     vdW  Elec       q    Type
REMARK                         _______ _______ _______ _____ _____    ______ ____
ROOT
ATOM      1  C   UNL     1       2.365   5.347  18.841  0.00  0.00    +0.000 C 
ATOM      2  C   UNL     1       2.405   6.583  19.951  0.00  0.00    +0.000 A 
ATOM      3  C   UNL     1       1.575   7.569  20.493  0.00  0.00    +0.000 A 
ATOM      4  C   UNL     1       1.215   8.676  19.691  0.00  0.00    +0.000 A 
ATOM      5  C   UNL     1       1.605   8.729  18.351  0.00  0.00    +0.000 A 
ATOM      6  C   UNL     1       0.601   9.490  17.694  0.00  0.00    +0.000 A 
ATOM      7  C   UNL     1      -0.060  10.206  18.670  0.00  0.00    +0.000 A 
ATOM      8  N   UNL     1       0.531   9.865  19.865  0.00  0.00    +0.000 N 
ATOM      9  C   UNL     1       2.742   7.994  17.986  0.00  0.00    +0.000 A 
ATOM     10  C   UNL     1       3.228   7.083  18.947  0.00  0.00    +0.000 A 
ATOM     11  C   UNL     1       3.925   5.718  18.887  0.00  0.00    +0.000 C 
ENDROOT
BRANCH   1  13
ATOM     12  C   UNL     1       1.909   3.201  17.946  0.00  0.00    +0.000 C 
ATOM     13  N   UNL     1       2.198   3.932  19.210  0.00  0.00    +0.000 NA
ATOM     14  C   UNL     1       0.979   3.832  20.031  0.00  0.00    +0.000 C 
ENDBRANCH   1  13
BRANCH   8  15
ATOM     15  S   UNL     1       0.803  11.033  21.095  0.00  0.00    +0.000 S 
ATOM     16  O   UNL     1       1.372  10.275  22.191  0.00  0.00    +0.000 OA
ATOM     17  O   UNL     1       1.496  12.124  20.463  0.00  0.00    +0.000 OA
BRANCH  15  18
ATOM     18  C   UNL     1      -0.797  11.652  21.635  0.00  0.00    +0.000 A 
ATOM     19  C   UNL     1      -1.276  11.300  22.908  0.00  0.00    +0.000 A 
ATOM     20  C   UNL     1      -2.482  11.828  23.389  0.00  0.00    +0.000 A 
ATOM     21  C   UNL     1      -3.213  12.714  22.597  0.00  0.00    +0.000 A 
ATOM     22  C   UNL     1      -2.738  13.073  21.335  0.00  0.00    +0.000 A 
ATOM     23  C   UNL     1      -1.529  12.545  20.850  0.00  0.00    +0.000 A 
ENDBRANCH  15  18
ENDBRANCH   8  15
BRANCH  11  24
ATOM     24  C   UNL     1       5.089   5.682  17.915  0.00  0.00    +0.000 C 
BRANCH  24  25
ATOM     25  C   UNL     1       6.085   4.611  18.391  0.00  0.00    +0.000 C 
BRANCH  25  26
ATOM     26  O   UNL     1       5.399   3.481  18.904  0.00  0.00    +0.000 OA
ATOM     27  H   UNL     1       5.951   2.702  18.718  0.00  0.00    +0.000 HD
ENDBRANCH  25  26
ENDBRANCH  24  25
ENDBRANCH  11  24
TORSDOF 6
ENDMDL
MODEL 2
REMARK VINA RESULT:      -7.4      1.286      1.689
REMARK  Name = 
REMARK  8 active torsions:
REMARK  status: ('A' for Active; 'I' for Inactive)
REMARK    1  A    between atoms: C_1  and  N_2
REMARK    2  A    between atoms: N_2  and  C_3
REMARK    3  A    between atoms: N_2  and  C_4
REMARK    4  A    between atoms: N_11  and  S_12
REMARK    5  A    between atoms: S_12  and  C_15
REMARK    6  A    between atoms: C_23  and  C_24
REMARK    7  A    between atoms: C_24  and  C_25
REMARK    8  A    between atoms: C_25  and  O_26
REMARK                            x       y       z     vdW  Elec       q    Type
REMARK                         _______ _______ _______ _____ _____    ______ ____
ROOT
ATOM      1  C   UNL     1       2.423   5.904  18.116  0.00  0.00    +0.000 C 
ATOM      2  C   UNL     1       2.556   6.988  19.369  0.00  0.00    +0.000 A 
ATOM      3  C   UNL     1       1.752   7.757  20.215  0.00  0.00    +0.000 A 
ATOM      4  C   UNL     1       1.081   8.882  19.684  0.00  0.00    +0.000 A 
ATOM      5  C   UNL     1       1.148   9.158  18.317  0.00  0.00    +0.000 A 
ATOM      6  C   UNL     1      -0.068   9.825  18.006  0.00  0.00    +0.000 A 
ATOM      7  C   UNL     1      -0.576  10.304  19.195  0.00  0.00    +0.000 A 
ATOM      8  N   UNL     1       0.309   9.918  20.175  0.00  0.00    +0.000 N 
ATOM      9  C   UNL     1       2.256   8.662  17.616  0.00  0.00    +0.000 A 
ATOM     10  C   UNL     1       3.059   7.729  18.305  0.00  0.00    +0.000 A 
ATOM     11  C   UNL     1       3.893   6.508  17.895  0.00  0.00    +0.000 C 
ENDROOT
BRANCH   1  13
ATOM     12  C   UNL     1       1.349   4.038  19.106  0.00  0.00    +0.000 C 
ATOM     13  N   UNL     1       2.526   4.446  18.291  0.00  0.00    +0.000 NA
ATOM     14  C   UNL     1       3.712   4.185  19.122  0.00  0.00    +0.000 C 
ENDBRANCH   1  13
BRANCH   8  15
ATOM     15  S   UNL     1       0.702  10.957  21.487  0.00  0.00    +0.000 S 
ATOM     16  O   UNL     1       1.063  10.056  22.563  0.00  0.00    +0.000 OA
ATOM     17  O   UNL     1       1.610  11.940  20.959  0.00  0.00    +0.000 OA
BRANCH  15  18
ATOM     18  C   UNL     1      -0.798  11.818  21.980  0.00  0.00    +0.000 A 
ATOM     19  C   UNL     1      -1.242  12.913  21.220  0.00  0.00    +0.000 A 
ATOM     20  C   UNL     1      -2.448  13.557  21.531  0.00  0.00    +0.000 A 
ATOM     21  C   UNL     1      -3.216  13.104  22.604  0.00  0.00    +0.000 A 
ATOM     22  C   UNL     1      -2.783  12.011  23.357  0.00  0.00    +0.000 A 
ATOM     23  C   UNL     1      -1.575  11.365  23.047  0.00  0.00    +0.000 A 
ENDBRANCH  15  18
ENDBRANCH   8  15
BRANCH  11  24
ATOM     24  C   UNL     1       4.800   6.775  16.709  0.00  0.00    +0.000 C 
BRANCH  24  25
ATOM     25  C   UNL     1       6.244   6.437  17.119  0.00  0.00    +0.000 C 
BRANCH  25  26
ATOM     26  O   UNL     1       7.105   7.539  16.878  0.00  0.00    +0.000 OA
ATOM     27  H   UNL     1       7.930   7.183  16.507  0.00  0.00    +0.000 HD
ENDBRANCH  25  26
ENDBRANCH  24  25
ENDBRANCH  11  24
TORSDOF 6
ENDMDL
MODEL 3
REMARK VINA RESULT:      -7.3      4.592      9.266
REMARK  Name = 
REMARK  8 active torsions:
REMARK  status: ('A' for Active; 'I' for Inactive)
REMARK    1  A    between atoms: C_1  and  N_2
REMARK    2  A    between atoms: N_2  and  C_3
REMARK    3  A    between atoms: N_2  and  C_4
REMARK    4  A    between atoms: N_11  and  S_12
REMARK    5  A    between atoms: S_12  and  C_15
REMARK    6  A    between atoms: C_23  and  C_24
REMARK    7  A    between atoms: C_24  and  C_25
REMARK    8  A    between atoms: C_25  and  O_26
REMARK                            x       y       z     vdW  Elec       q    Type
REMARK                         _______ _______ _______ _____ _____    ______ ____
ROOT
ATOM      1  C   UNL     1       3.008   3.341  19.455  0.00  0.00    +0.000 C 
ATOM      2  C   UNL     1       3.282   4.010  17.959  0.00  0.00    +0.000 A 
ATOM      3  C   UNL     1       4.159   3.898  16.876  0.00  0.00    +0.000 A 
ATOM      4  C   UNL     1       5.485   4.368  17.018  0.00  0.00    +0.000 A 
ATOM      5  C   UNL     1       5.931   4.844  18.253  0.00  0.00    +0.000 A 
ATOM      6  C   UNL     1       7.327   4.582  18.277  0.00  0.00    +0.000 A 
ATOM      7  C   UNL     1       7.722   4.396  16.969  0.00  0.00    +0.000 A 
ATOM      8  N   UNL     1       6.588   4.533  16.202  0.00  0.00    +0.000 N 
ATOM      9  C   UNL     1       4.961   5.332  19.140  0.00  0.00    +0.000 A 
ATOM     10  C   UNL     1       3.618   5.064  18.801  0.00  0.00    +0.000 A 
ATOM     11  C   UNL     1       2.336   4.791  19.597  0.00  0.00    +0.000 C 
ENDROOT
BRANCH   1  13
ATOM     12  C   UNL     1       0.833   2.642  18.825  0.00  0.00    +0.000 C 
ATOM     13  N   UNL     1       1.985   2.313  19.708  0.00  0.00    +0.000 NA
ATOM     14  C   UNL     1       1.509   2.496  21.089  0.00  0.00    +0.000 C 
ENDBRANCH   1  13
BRANCH   8  15
ATOM     15  S   UNL     1       6.627   5.330  14.680  0.00  0.00    +0.000 S 
ATOM     16  O   UNL     1       5.581   6.328  14.770  0.00  0.00    +0.000 OA
ATOM     17  O   UNL     1       8.005   5.668  14.442  0.00  0.00    +0.000 OA
BRANCH  15  18
ATOM     18  C   UNL     1       6.138   4.143  13.420  0.00  0.00    +0.000 A 
ATOM     19  C   UNL     1       4.773   3.968  13.134  0.00  0.00    +0.000 A 
ATOM     20  C   UNL     1       4.364   3.109  12.104  0.00  0.00    +0.000 A 
ATOM     21  C   UNL     1       5.320   2.423  11.355  0.00  0.00    +0.000 A 
ATOM     22  C   UNL     1       6.677   2.600  11.631  0.00  0.00    +0.000 A 
ATOM     23  C   UNL     1       7.090   3.460  12.662  0.00  0.00    +0.000 A 
ENDBRANCH  15  18
ENDBRANCH   8  15
BRANCH  11  24
ATOM     24  C   UNL     1       2.105   5.787  20.718  0.00  0.00    +0.000 C 
BRANCH  24  25
ATOM     25  C   UNL     1       1.866   7.173  20.094  0.00  0.00    +0.000 C 
BRANCH  25  26
ATOM     26  O   UNL     1       1.711   8.157  21.103  0.00  0.00    +0.000 OA
ATOM     27  H   UNL     1       1.216   7.745  21.832  0.00  0.00    +0.000 HD
ENDBRANCH  25  26
ENDBRANCH  24  25
ENDBRANCH  11  24
TORSDOF 6
ENDMDL
MODEL 4
REMARK VINA RESULT:      -7.3      2.336      8.354
REMARK  Name = 
REMARK  8 active torsions:
REMARK  status: ('A' for Active; 'I' for Inactive)
REMARK    1  A    between atoms: C_1  and  N_2
REMARK    2  A    between atoms: N_2  and  C_3
REMARK    3  A    between atoms: N_2  and  C_4
REMARK    4  A    between atoms: N_11  and  S_12
REMARK    5  A    between atoms: S_12  and  C_15
REMARK    6  A    between atoms: C_23  and  C_24
REMARK    7  A    between atoms: C_24  and  C_25
REMARK    8  A    between atoms: C_25  and  O_26
REMARK                            x       y       z     vdW  Elec       q    Type
REMARK                         _______ _______ _______ _____ _____    ______ ____
ROOT
ATOM      1  C   UNL     1       0.526   8.807  19.743  0.00  0.00    +0.000 C 
ATOM      2  C   UNL     1       2.085   8.233  19.691  0.00  0.00    +0.000 A 
ATOM      3  C   UNL     1       2.863   7.297  19.005  0.00  0.00    +0.000 A 
ATOM      4  C   UNL     1       2.663   5.921  19.262  0.00  0.00    +0.000 A 
ATOM      5  C   UNL     1       1.638   5.509  20.115  0.00  0.00    +0.000 A 
ATOM      6  C   UNL     1       1.257   4.220  19.654  0.00  0.00    +0.000 A 
ATOM      7  C   UNL     1       2.303   3.744  18.891  0.00  0.00    +0.000 A 
ATOM      8  N   UNL     1       3.262   4.731  18.894  0.00  0.00    +0.000 N 
ATOM      9  C   UNL     1       1.195   6.429  21.076  0.00  0.00    +0.000 A 
ATOM     10  C   UNL     1       1.652   7.755  20.923  0.00  0.00    +0.000 A 
ATOM     11  C   UNL     1       1.065   9.141  21.216  0.00  0.00    +0.000 C 
ENDROOT
BRANCH   1  13
ATOM     12  C   UNL     1      -0.582   9.663  17.831  0.00  0.00    +0.000 C 
ATOM     13  N   UNL     1       0.101  10.058  19.093  0.00  0.00    +0.000 NA
ATOM     14  C   UNL     1       1.319  10.782  18.693  0.00  0.00    +0.000 C 
ENDBRANCH   1  13
BRANCH   8  15
ATOM     15  S   UNL     1       4.935   4.353  18.987  0.00  0.00    +0.000 S 
ATOM     16  O   UNL     1       5.512   5.457  19.727  0.00  0.00    +0.000 OA
ATOM     17  O   UNL     1       5.012   2.990  19.440  0.00  0.00    +0.000 OA
BRANCH  15  18
ATOM     18  C   UNL     1       5.609   4.405  17.320  0.00  0.00    +0.000 A 
ATOM     19  C   UNL     1       4.743   4.247  16.224  0.00  0.00    +0.000 A 
ATOM     20  C   UNL     1       5.224   4.360  14.912  0.00  0.00    +0.000 A 
ATOM     21  C   UNL     1       6.574   4.636  14.692  0.00  0.00    +0.000 A 
ATOM     22  C   UNL     1       7.436   4.802  15.777  0.00  0.00    +0.000 A 
ATOM     23  C   UNL     1       6.957   4.689  17.093  0.00  0.00    +0.000 A 
ENDBRANCH  15  18
ENDBRANCH   8  15
BRANCH  11  24
ATOM     24  C   UNL     1       0.463   9.255  22.604  0.00  0.00    +0.000 C 
BRANCH  24  25
ATOM     25  C   UNL     1      -0.434  10.505  22.641  0.00  0.00    +0.000 C 
BRANCH  25  26
ATOM     26  O   UNL     1       0.192  11.591  21.977  0.00  0.00    +0.000 OA
ATOM     27  H   UNL     1      -0.187  12.408  22.344  0.00  0.00    +0.000 HD
ENDBRANCH  25  26
ENDBRANCH  24  25
ENDBRANCH  11  24
TORSDOF 6
ENDMDL
MODEL 5
REMARK VINA RESULT:      -7.3      1.269      1.392
REMARK  Name = 
REMARK  8 active torsions:
REMARK  status: ('A' for Active; 'I' for Inactive)
REMARK    1  A    between atoms: C_1  and  N_2
REMARK    2  A    between atoms: N_2  and  C_3
REMARK    3  A    between atoms: N_2  and  C_4
REMARK    4  A    between atoms: N_11  and  S_12
REMARK    5  A    between atoms: S_12  and  C_15
REMARK    6  A    between atoms: C_23  and  C_24
REMARK    7  A    between atoms: C_24  and  C_25
REMARK    8  A    between atoms: C_25  and  O_26
REMARK                            x       y       z     vdW  Elec       q    Type
REMARK                         _______ _______ _______ _____ _____    ______ ____
ROOT
ATOM      1  C   UNL     1       2.466   5.936  18.062  0.00  0.00    +0.000 C 
ATOM      2  C   UNL     1       2.581   7.013  19.322  0.00  0.00    +0.000 A 
ATOM      3  C   UNL     1       1.763   7.757  20.178  0.00  0.00    +0.000 A 
ATOM      4  C   UNL     1       1.063   8.871  19.659  0.00  0.00    +0.000 A 
ATOM      5  C   UNL     1       1.116   9.157  18.293  0.00  0.00    +0.000 A 
ATOM      6  C   UNL     1      -0.117   9.798  17.993  0.00  0.00    +0.000 A 
ATOM      7  C   UNL     1      -0.630  10.256  19.189  0.00  0.00    +0.000 A 
ATOM      8  N   UNL     1       0.270   9.885  20.161  0.00  0.00    +0.000 N 
ATOM      9  C   UNL     1       2.232   8.692  17.583  0.00  0.00    +0.000 A 
ATOM     10  C   UNL     1       3.061   7.774  18.261  0.00  0.00    +0.000 A 
ATOM     11  C   UNL     1       3.920   6.576  17.838  0.00  0.00    +0.000 C 
ENDROOT
BRANCH   1  13
ATOM     12  C   UNL     1       1.339   4.007  18.850  0.00  0.00    +0.000 C 
ATOM     13  N   UNL     1       2.604   4.480  18.226  0.00  0.00    +0.000 NA
ATOM     14  C   UNL     1       3.665   4.247  19.220  0.00  0.00    +0.000 C 
ENDBRANCH   1  13
BRANCH   8  15
ATOM     15  S   UNL     1       0.645  10.923  21.478  0.00  0.00    +0.000 S 
ATOM     16  O   UNL     1       0.982  10.022  22.562  0.00  0.00    +0.000 OA
ATOM     17  O   UNL     1       1.568  11.900  20.965  0.00  0.00    +0.000 OA
BRANCH  15  18
ATOM     18  C   UNL     1      -0.859  11.794  21.943  0.00  0.00    +0.000 A 
ATOM     19  C   UNL     1      -1.605  11.336  23.042  0.00  0.00    +0.000 A 
ATOM     20  C   UNL     1      -2.738  12.039  23.477  0.00  0.00    +0.000 A 
ATOM     21  C   UNL     1      -3.126  13.203  22.815  0.00  0.00    +0.000 A 
ATOM     22  C   UNL     1      -2.383  13.666  21.728  0.00  0.00    +0.000 A 
ATOM     23  C   UNL     1      -1.247  12.964  21.289  0.00  0.00    +0.000 A 
ENDBRANCH  15  18
ENDBRANCH   8  15
BRANCH  11  24
ATOM     24  C   UNL     1       4.815   6.873  16.649  0.00  0.00    +0.000 C 
BRANCH  24  25
ATOM     25  C   UNL     1       5.624   5.605  16.324  0.00  0.00    +0.000 C 
BRANCH  25  26
ATOM     26  O   UNL     1       6.151   5.670  15.008  0.00  0.00    +0.000 OA
ATOM     27  H   UNL     1       6.327   6.607  14.816  0.00  0.00    +0.000 HD
ENDBRANCH  25  26
ENDBRANCH  24  25
ENDBRANCH  11  24
TORSDOF 6
ENDMDL
MODEL 6
REMARK VINA RESULT:      -7.1      0.416      1.033
REMARK  Name = 
REMARK  8 active torsions:
REMARK  status: ('A' for Active; 'I' for Inactive)
REMARK    1  A    between atoms: C_1  and  N_2
REMARK    2  A    between atoms: N_2  and  C_3
REMARK    3  A    between atoms: N_2  and  C_4
REMARK    4  A    between atoms: N_11  and  S_12
REMARK    5  A    between atoms: S_12  and  C_15
REMARK    6  A    between atoms: C_23  and  C_24
REMARK    7  A    between atoms: C_24  and  C_25
REMARK    8  A    between atoms: C_25  and  O_26
REMARK                            x       y       z     vdW  Elec       q    Type
REMARK                         _______ _______ _______ _____ _____    ______ ____
ROOT
ATOM      1  C   UNL     1       2.489   5.463  18.566  0.00  0.00    +0.000 C 
ATOM      2  C   UNL     1       2.531   6.613  19.765  0.00  0.00    +0.000 A 
ATOM      3  C   UNL     1       1.689   7.518  20.417  0.00  0.00    +0.000 A 
ATOM      4  C   UNL     1       1.247   8.666  19.719  0.00  0.00    +0.000 A 
ATOM      5  C   UNL     1       1.572   8.835  18.372  0.00  0.00    +0.000 A 
ATOM      6  C   UNL     1       0.509   9.599  17.820  0.00  0.00    +0.000 A 
ATOM      7  C   UNL     1      -0.134  10.211  18.875  0.00  0.00    +0.000 A 
ATOM      8  N   UNL     1       0.525   9.807  20.014  0.00  0.00    +0.000 N 
ATOM      9  C   UNL     1       2.719   8.181  17.902  0.00  0.00    +0.000 A 
ATOM     10  C   UNL     1       3.286   7.222  18.768  0.00  0.00    +0.000 A 
ATOM     11  C   UNL     1       4.034   5.897  18.573  0.00  0.00    +0.000 C 
ENDROOT
BRANCH   1  13
ATOM     12  C   UNL     1       2.380   3.348  17.503  0.00  0.00    +0.000 C 
ATOM     13  N   UNL     1       2.396   4.018  18.832  0.00  0.00    +0.000 NA
ATOM     14  C   UNL     1       1.078   3.766  19.437  0.00  0.00    +0.000 C 
ENDBRANCH   1  13
BRANCH   8  15
ATOM     15  S   UNL     1       0.807  10.890  21.318  0.00  0.00    +0.000 S 
ATOM     16  O   UNL     1       1.237  10.037  22.407  0.00  0.00    +0.000 OA
ATOM     17  O   UNL     1       1.626  11.947  20.788  0.00  0.00    +0.000 OA
BRANCH  15  18
ATOM     18  C   UNL     1      -0.771  11.615  21.786  0.00  0.00    +0.000 A 
ATOM     19  C   UNL     1      -1.475  12.391  20.850  0.00  0.00    +0.000 A 
ATOM     20  C   UNL     1      -2.743  12.904  21.158  0.00  0.00    +0.000 A 
ATOM     21  C   UNL     1      -3.312  12.640  22.403  0.00  0.00    +0.000 A 
ATOM     22  C   UNL     1      -2.620  11.863  23.333  0.00  0.00    +0.000 A 
ATOM     23  C   UNL     1      -1.350  11.347  23.028  0.00  0.00    +0.000 A 
ENDBRANCH  15  18
ENDBRANCH   8  15
BRANCH  11  24
ATOM     24  C   UNL     1       5.151   5.985  17.552  0.00  0.00    +0.000 C 
BRANCH  24  25
ATOM     25  C   UNL     1       6.430   5.404  18.181  0.00  0.00    +0.000 C 
BRANCH  25  26
ATOM     26  O   UNL     1       6.306   4.002  18.361  0.00  0.00    +0.000 OA
ATOM     27  H   UNL     1       6.597   3.580  17.535  0.00  0.00    +0.000 HD
ENDBRANCH  25  26
ENDBRANCH  24  25
ENDBRANCH  11  24
TORSDOF 6
ENDMDL
MODEL 7
REMARK VINA RESULT:      -7.1      2.484      3.849
REMARK  Name = 
REMARK  8 active torsions:
REMARK  status: ('A' for Active; 'I' for Inactive)
REMARK    1  A    between atoms: C_1  and  N_2
REMARK    2  A    between atoms: N_2  and  C_3
REMARK    3  A    between atoms: N_2  and  C_4
REMARK    4  A    between atoms: N_11  and  S_12
REMARK    5  A    between atoms: S_12  and  C_15
REMARK    6  A    between atoms: C_23  and  C_24
REMARK    7  A    between atoms: C_24  and  C_25
REMARK    8  A    between atoms: C_25  and  O_26
REMARK                            x       y       z     vdW  Elec       q    Type
REMARK                         _______ _______ _______ _____ _____    ______ ____
ROOT
ATOM      1  C   UNL     1       4.147   5.191  18.963  0.00  0.00    +0.000 C 
ATOM      2  C   UNL     1       3.125   6.278  18.231  0.00  0.00    +0.000 A 
ATOM      3  C   UNL     1       2.740   7.619  18.319  0.00  0.00    +0.000 A 
ATOM      4  C   UNL     1       1.942   8.031  19.412  0.00  0.00    +0.000 A 
ATOM      5  C   UNL     1       1.630   7.130  20.431  0.00  0.00    +0.000 A 
ATOM      6  C   UNL     1       1.468   7.922  21.600  0.00  0.00    +0.000 A 
ATOM      7  C   UNL     1       1.247   9.217  21.178  0.00  0.00    +0.000 A 
ATOM      8  N   UNL     1       1.290   9.185  19.803  0.00  0.00    +0.000 N 
ATOM      9  C   UNL     1       1.650   5.766  20.110  0.00  0.00    +0.000 A 
ATOM     10  C   UNL     1       2.223   5.429  18.865  0.00  0.00    +0.000 A 
ATOM     11  C   UNL     1       3.024   4.236  18.331  0.00  0.00    +0.000 C 
ENDROOT
BRANCH   1  13
ATOM     12  C   UNL     1       6.478   5.503  19.253  0.00  0.00    +0.000 C 
ATOM     13  N   UNL     1       5.460   4.816  18.413  0.00  0.00    +0.000 NA
ATOM     14  C   UNL     1       5.562   5.415  17.072  0.00  0.00    +0.000 C 
ENDBRANCH   1  13
BRANCH   8  15
ATOM     15  S   UNL     1       0.212  10.126  18.851  0.00  0.00    +0.000 S 
ATOM     16  O   UNL     1       0.257   9.510  17.541  0.00  0.00    +0.000 OA
ATOM     17  O   UNL     1      -1.002  10.236  19.616  0.00  0.00    +0.000 OA
BRANCH  15  18
ATOM     18  C   UNL     1       0.905  11.779  18.700  0.00  0.00    +0.000 A 
ATOM     19  C   UNL     1       0.118  12.888  19.050  0.00  0.00    +0.000 A 
ATOM     20  C   UNL     1       0.654  14.183  19.018  0.00  0.00    +0.000 A 
ATOM     21  C   UNL     1       1.982  14.372  18.636  0.00  0.00    +0.000 A 
ATOM     22  C   UNL     1       2.771  13.272  18.295  0.00  0.00    +0.000 A 
ATOM     23  C   UNL     1       2.236  11.973  18.326  0.00  0.00    +0.000 A 
ENDBRANCH  15  18
ENDBRANCH   8  15
BRANCH  11  24
ATOM     24  C   UNL     1       2.404   2.896  18.677  0.00  0.00    +0.000 C 
BRANCH  24  25
ATOM     25  C   UNL     1       3.370   1.785  18.230  0.00  0.00    +0.000 C 
BRANCH  25  26
ATOM     26  O   UNL     1       4.547   1.795  19.022  0.00  0.00    +0.000 OA
ATOM     27  H   UNL     1       4.642   2.693  19.382  0.00  0.00    +0.000 HD
ENDBRANCH  25  26
ENDBRANCH  24  25
ENDBRANCH  11  24
TORSDOF 6
ENDMDL
MODEL 8
REMARK VINA RESULT:      -7.1      2.382      3.736
REMARK  Name = 
REMARK  8 active torsions:
REMARK  status: ('A' for Active; 'I' for Inactive)
REMARK    1  A    between atoms: C_1  and  N_2
REMARK    2  A    between atoms: N_2  and  C_3
REMARK    3  A    between atoms: N_2  and  C_4
REMARK    4  A    between atoms: N_11  and  S_12
REMARK    5  A    between atoms: S_12  and  C_15
REMARK    6  A    between atoms: C_23  and  C_24
REMARK    7  A    between atoms: C_24  and  C_25
REMARK    8  A    between atoms: C_25  and  O_26
REMARK                            x       y       z     vdW  Elec       q    Type
REMARK                         _______ _______ _______ _____ _____    ______ ____
ROOT
ATOM      1  C   UNL     1       3.999   5.549  18.866  0.00  0.00    +0.000 C 
ATOM      2  C   UNL     1       2.894   6.607  18.215  0.00  0.00    +0.000 A 
ATOM      3  C   UNL     1       2.488   7.939  18.325  0.00  0.00    +0.000 A 
ATOM      4  C   UNL     1       1.776   8.345  19.478  0.00  0.00    +0.000 A 
ATOM      5  C   UNL     1       1.571   7.446  20.527  0.00  0.00    +0.000 A 
ATOM      6  C   UNL     1       1.491   8.246  21.699  0.00  0.00    +0.000 A 
ATOM      7  C   UNL     1       1.206   9.531  21.288  0.00  0.00    +0.000 A 
ATOM      8  N   UNL     1       1.134   9.488  19.914  0.00  0.00    +0.000 N 
ATOM      9  C   UNL     1       1.595   6.080  20.215  0.00  0.00    +0.000 A 
ATOM     10  C   UNL     1       2.068   5.745  18.929  0.00  0.00    +0.000 A 
ATOM     11  C   UNL     1       2.849   4.564  18.338  0.00  0.00    +0.000 C 
ENDROOT
BRANCH   1  13
ATOM     12  C   UNL     1       6.328   5.333  19.247  0.00  0.00    +0.000 C 
ATOM     13  N   UNL     1       5.269   5.198  18.210  0.00  0.00    +0.000 NA
ATOM     14  C   UNL     1       5.545   6.236  17.202  0.00  0.00    +0.000 C 
ENDBRANCH   1  13
BRANCH   8  15
ATOM     15  S   UNL     1      -0.042  10.396  19.050  0.00  0.00    +0.000 S 
ATOM     16  O   UNL     1      -0.034   9.822  17.720  0.00  0.00    +0.000 OA
ATOM     17  O   UNL     1      -1.217  10.418  19.880  0.00  0.00    +0.000 OA
BRANCH  15  18
ATOM     18  C   UNL     1       0.555  12.088  18.916  0.00  0.00    +0.000 A 
ATOM     19  C   UNL     1       1.913  12.317  18.640  0.00  0.00    +0.000 A 
ATOM     20  C   UNL     1       2.393  13.621  18.451  0.00  0.00    +0.000 A 
ATOM     21  C   UNL     1       1.514  14.700  18.536  0.00  0.00    +0.000 A 
ATOM     22  C   UNL     1       0.162  14.477  18.802  0.00  0.00    +0.000 A 
ATOM     23  C   UNL     1      -0.322  13.172  18.991  0.00  0.00    +0.000 A 
ENDBRANCH  15  18
ENDBRANCH   8  15
BRANCH  11  24
ATOM     24  C   UNL     1       2.290   3.214  18.745  0.00  0.00    +0.000 C 
BRANCH  24  25
ATOM     25  C   UNL     1       2.893   2.141  17.822  0.00  0.00    +0.000 C 
BRANCH  25  26
ATOM     26  O   UNL     1       4.309   2.227  17.813  0.00  0.00    +0.000 OA
ATOM     27  H   UNL     1       4.546   2.997  17.269  0.00  0.00    +0.000 HD
ENDBRANCH  25  26
ENDBRANCH  24  25
ENDBRANCH  11  24
TORSDOF 6
ENDMDL
MODEL 9
REMARK VINA RESULT:      -6.9      2.737      8.215
REMARK  Name = 
REMARK  8 active torsions:
REMARK  status: ('A' for Active; 'I' for Inactive)
REMARK    1  A    between atoms: C_1  and  N_2
REMARK    2  A    between atoms: N_2  and  C_3
REMARK    3  A    between atoms: N_2  and  C_4
REMARK    4  A    between atoms: N_11  and  S_12
REMARK    5  A    between atoms: S_12  and  C_15
REMARK    6  A    between atoms: C_23  and  C_24
REMARK    7  A    between atoms: C_24  and  C_25
REMARK    8  A    between atoms: C_25  and  O_26
REMARK                            x       y       z     vdW  Elec       q    Type
REMARK                         _______ _______ _______ _____ _____    ______ ____
ROOT
ATOM      1  C   UNL     1       0.979   8.448  19.525  0.00  0.00    +0.000 C 
ATOM      2  C   UNL     1       2.348   7.529  19.319  0.00  0.00    +0.000 A 
ATOM      3  C   UNL     1       2.795   6.410  18.610  0.00  0.00    +0.000 A 
ATOM      4  C   UNL     1       2.331   5.129  18.989  0.00  0.00    +0.000 A 
ATOM      5  C   UNL     1       1.368   5.001  19.992  0.00  0.00    +0.000 A 
ATOM      6  C   UNL     1       0.649   3.816  19.677  0.00  0.00    +0.000 A 
ATOM      7  C   UNL     1       1.446   3.081  18.824  0.00  0.00    +0.000 A 
ATOM      8  N   UNL     1       2.592   3.819  18.636  0.00  0.00    +0.000 N 
ATOM      9  C   UNL     1       1.279   6.038  20.931  0.00  0.00    +0.000 A 
ATOM     10  C   UNL     1       1.995   7.215  20.628  0.00  0.00    +0.000 A 
ATOM     11  C   UNL     1       1.779   8.710  20.891  0.00  0.00    +0.000 C 
ENDROOT
BRANCH   1  13
ATOM     12  C   UNL     1      -0.452   9.558  17.997  0.00  0.00    +0.000 C 
ATOM     13  N   UNL     1       0.758   9.735  18.845  0.00  0.00    +0.000 NA
ATOM     14  C   UNL     1       1.883   9.942  17.918  0.00  0.00    +0.000 C 
ENDBRANCH   1  13
BRANCH   8  15
ATOM     15  S   UNL     1       4.136   3.069  18.545  0.00  0.00    +0.000 S 
ATOM     16  O   UNL     1       4.677   3.198  19.883  0.00  0.00    +0.000 OA
ATOM     17  O   UNL     1       3.923   1.795  17.913  0.00  0.00    +0.000 OA
BRANCH  15  18
ATOM     18  C   UNL     1       5.165   4.052  17.445  0.00  0.00    +0.000 A 
ATOM     19  C   UNL     1       6.327   4.658  17.951  0.00  0.00    +0.000 A 
ATOM     20  C   UNL     1       7.191   5.364  17.103  0.00  0.00    +0.000 A 
ATOM     21  C   UNL     1       6.897   5.465  15.744  0.00  0.00    +0.000 A 
ATOM     22  C   UNL     1       5.747   4.857  15.235  0.00  0.00    +0.000 A 
ATOM     23  C   UNL     1       4.879   4.149  16.082  0.00  0.00    +0.000 A 
ENDBRANCH  15  18
ENDBRANCH   8  15
BRANCH  11  24
ATOM     24  C   UNL     1       1.415   9.018  22.331  0.00  0.00    +0.000 C 
BRANCH  24  25
ATOM     25  C   UNL     1       0.141   9.880  22.335  0.00  0.00    +0.000 C 
BRANCH  25  26
ATOM     26  O   UNL     1      -0.484   9.844  23.609  0.00  0.00    +0.000 OA
ATOM     27  H   UNL     1      -1.000   9.022  23.652  0.00  0.00    +0.000 HD
ENDBRANCH  25  26
ENDBRANCH  24  25
ENDBRANCH  11  24
TORSDOF 6
ENDMDL
