MODEL 1
REMARK VINA RESULT:      -8.5      0.000      0.000
REMARK  Name = 
REMARK  5 active torsions:
REMARK  status: ('A' for Active; 'I' for Inactive)
REMARK    1  A    between atoms: C_6  and  C_7
REMARK    2  A    between atoms: C_7  and  C_8
REMARK    3  A    between atoms: C_11  and  O_12
REMARK    4  A    between atoms: O_12  and  C_13
REMARK    5  A    between atoms: C_18  and  C_19
REMARK                            x       y       z     vdW  Elec       q    Type
REMARK                         _______ _______ _______ _____ _____    ______ ____
ROOT
ATOM      1  C   UNL     1       1.110   9.420  18.929  0.00  0.00    +0.000 A 
ATOM      2  C   UNL     1       1.130   8.831  20.201  0.00  0.00    +0.000 A 
ATOM      3  C   UNL     1       1.856   7.661  20.443  0.00  0.00    +0.000 A 
ATOM      4  C   UNL     1       2.528   7.029  19.402  0.00  0.00    +0.000 A 
ATOM      5  C   UNL     1       2.504   7.594  18.125  0.00  0.00    +0.000 A 
ATOM      6  C   UNL     1       1.794   8.775  17.889  0.00  0.00    +0.000 A 
ENDROOT
BRANCH   1   7
ATOM      7  C   UNL     1       0.331  10.689  18.653  0.00  0.00    +0.000 C 
BRANCH   7  13
ATOM      8  O   UNL     1      -3.158  11.200  15.452  0.00  0.00    +0.000 OA
ATOM      9  C   UNL     1      -2.639  11.136  16.552  0.00  0.00    +0.000 C 
ATOM     10  N   UNL     1      -2.532  12.151  17.437  0.00  0.00    +0.000 N 
ATOM     11  C   UNL     1      -1.802  11.961  18.571  0.00  0.00    +0.000 C 
ATOM     12  O   UNL     1      -1.628  12.844  19.400  0.00  0.00    +0.000 OA
ATOM     13  C   UNL     1      -1.202  10.566  18.652  0.00  0.00    +0.000 C 
ATOM     14  S   UNL     1      -1.906   9.699  17.200  0.00  0.00    +0.000 S 
ATOM     15  H   UNL     1      -2.931  13.050  17.220  0.00  0.00    +0.000 HD
ENDBRANCH   7  13
ENDBRANCH   1   7
BRANCH   4  16
ATOM     16  O   UNL     1       3.242   5.896  19.731  0.00  0.00    +0.000 OA
BRANCH  16  17
ATOM     17  C   UNL     1       3.028   4.755  18.980  0.00  0.00    +0.000 A 
ATOM     18  N   UNL     1       3.638   4.676  17.770  0.00  0.00    +0.000 NA
ATOM     19  C   UNL     1       3.480   3.546  17.059  0.00  0.00    +0.000 A 
ATOM     20  C   UNL     1       2.720   2.475  17.490  0.00  0.00    +0.000 A 
ATOM     21  C   UNL     1       2.064   2.596  18.713  0.00  0.00    +0.000 A 
ATOM     22  C   UNL     1       2.195   3.765  19.479  0.00  0.00    +0.000 A 
BRANCH  22  23
ATOM     23  C   UNL     1       1.459   3.883  20.776  0.00  0.00    +0.000 C 
ATOM     24  F   UNL     1       0.852   2.755  21.229  0.00  0.00    +0.000 F 
ATOM     25  F   UNL     1       2.283   4.281  21.790  0.00  0.00    +0.000 F 
ATOM     26  F   UNL     1       0.480   4.832  20.721  0.00  0.00    +0.000 F 
ENDBRANCH  22  23
ENDBRANCH  16  17
ENDBRANCH   4  16
TORSDOF 5
ENDMDL
MODEL 2
REMARK VINA RESULT:      -8.3      2.002      2.411
REMARK  Name = 
REMARK  5 active torsions:
REMARK  status: ('A' for Active; 'I' for Inactive)
REMARK    1  A    between atoms: C_6  and  C_7
REMARK    2  A    between atoms: C_7  and  C_8
REMARK    3  A    between atoms: C_11  and  O_12
REMARK    4  A    between atoms: O_12  and  C_13
REMARK    5  A    between atoms: C_18  and  C_19
REMARK                            x       y       z     vdW  Elec       q    Type
REMARK                         _______ _______ _______ _____ _____    ______ ____
ROOT
ATOM      1  C   UNL     1       1.172   9.453  19.046  0.00  0.00    +0.000 A 
ATOM      2  C   UNL     1       1.135   8.781  20.277  0.00  0.00    +0.000 A 
ATOM      3  C   UNL     1       1.814   7.574  20.460  0.00  0.00    +0.000 A 
ATOM      4  C   UNL     1       2.493   6.987  19.398  0.00  0.00    +0.000 A 
ATOM      5  C   UNL     1       2.525   7.634  18.161  0.00  0.00    +0.000 A 
ATOM      6  C   UNL     1       1.863   8.853  17.985  0.00  0.00    +0.000 A 
ENDROOT
BRANCH   1   7
ATOM      7  C   UNL     1       0.445  10.764  18.835  0.00  0.00    +0.000 C 
BRANCH   7  13
ATOM      8  O   UNL     1      -2.983  11.152  15.551  0.00  0.00    +0.000 OA
ATOM      9  C   UNL     1      -2.480  11.156  16.660  0.00  0.00    +0.000 C 
ATOM     10  N   UNL     1      -2.342  12.235  17.462  0.00  0.00    +0.000 N 
ATOM     11  C   UNL     1      -1.634  12.108  18.619  0.00  0.00    +0.000 C 
ATOM     12  O   UNL     1      -1.434  13.048  19.376  0.00  0.00    +0.000 OA
ATOM     13  C   UNL     1      -1.092  10.703  18.820  0.00  0.00    +0.000 C 
ATOM     14  S   UNL     1      -1.813   9.749  17.433  0.00  0.00    +0.000 S 
ATOM     15  H   UNL     1      -2.702  13.129  17.168  0.00  0.00    +0.000 HD
ENDBRANCH   7  13
ENDBRANCH   1   7
BRANCH   4  16
ATOM     16  O   UNL     1       3.158   5.810  19.669  0.00  0.00    +0.000 OA
BRANCH  16  17
ATOM     17  C   UNL     1       2.527   4.622  19.350  0.00  0.00    +0.000 A 
ATOM     18  N   UNL     1       1.436   4.273  20.079  0.00  0.00    +0.000 NA
ATOM     19  C   UNL     1       0.785   3.148  19.737  0.00  0.00    +0.000 A 
ATOM     20  C   UNL     1       1.177   2.327  18.695  0.00  0.00    +0.000 A 
ATOM     21  C   UNL     1       2.326   2.678  17.990  0.00  0.00    +0.000 A 
ATOM     22  C   UNL     1       3.040   3.840  18.325  0.00  0.00    +0.000 A 
BRANCH  22  23
ATOM     23  C   UNL     1       4.286   4.183  17.571  0.00  0.00    +0.000 C 
ATOM     24  F   UNL     1       4.235   5.300  16.800  0.00  0.00    +0.000 F 
ATOM     25  F   UNL     1       5.347   4.370  18.409  0.00  0.00    +0.000 F 
ATOM     26  F   UNL     1       4.668   3.175  16.735  0.00  0.00    +0.000 F 
ENDBRANCH  22  23
ENDBRANCH  16  17
ENDBRANCH   4  16
TORSDOF 5
ENDMDL
MODEL 3
REMARK VINA RESULT:      -8.3      1.996      2.590
REMARK  Name = 
REMARK  5 active torsions:
REMARK  status: ('A' for Active; 'I' for Inactive)
REMARK    1  A    between atoms: C_6  and  C_7
REMARK    2  A    between atoms: C_7  and  C_8
REMARK    3  A    between atoms: C_11  and  O_12
REMARK    4  A    between atoms: O_12  and  C_13
REMARK    5  A    between atoms: C_18  and  C_19
REMARK                            x       y       z     vdW  Elec       q    Type
REMARK                         _______ _______ _______ _____ _____    ______ ____
ROOT
ATOM      1  C   UNL     1       1.151   9.380  18.925  0.00  0.00    +0.000 A 
ATOM      2  C   UNL     1       1.888   8.729  17.925  0.00  0.00    +0.000 A 
ATOM      3  C   UNL     1       2.557   7.531  18.187  0.00  0.00    +0.000 A 
ATOM      4  C   UNL     1       2.549   6.993  19.470  0.00  0.00    +0.000 A 
ATOM      5  C   UNL     1       1.834   7.638  20.481  0.00  0.00    +0.000 A 
ATOM      6  C   UNL     1       1.147   8.826  20.213  0.00  0.00    +0.000 A 
ENDROOT
BRANCH   1   7
ATOM      7  C   UNL     1       0.417  10.676  18.654  0.00  0.00    +0.000 C 
BRANCH   7  13
ATOM      8  O   UNL     1      -3.065  11.141  15.437  0.00  0.00    +0.000 OA
ATOM      9  C   UNL     1      -2.544  11.118  16.538  0.00  0.00    +0.000 C 
ATOM     10  N   UNL     1      -2.397  12.174  17.367  0.00  0.00    +0.000 N 
ATOM     11  C   UNL     1      -1.670  12.018  18.508  0.00  0.00    +0.000 C 
ATOM     12  O   UNL     1      -1.461  12.938  19.289  0.00  0.00    +0.000 OA
ATOM     13  C   UNL     1      -1.120  10.610  18.663  0.00  0.00    +0.000 C 
ATOM     14  S   UNL     1      -1.860   9.692  17.261  0.00  0.00    +0.000 S 
ATOM     15  H   UNL     1      -2.764  13.074  17.104  0.00  0.00    +0.000 HD
ENDBRANCH   7  13
ENDBRANCH   1   7
BRANCH   4  16
ATOM     16  O   UNL     1       3.212   5.795  19.637  0.00  0.00    +0.000 OA
BRANCH  16  17
ATOM     17  C   UNL     1       2.529   4.631  19.339  0.00  0.00    +0.000 A 
ATOM     18  N   UNL     1       1.433   4.336  20.083  0.00  0.00    +0.000 NA
ATOM     19  C   UNL     1       0.732   3.235  19.762  0.00  0.00    +0.000 A 
ATOM     20  C   UNL     1       1.078   2.387  18.726  0.00  0.00    +0.000 A 
ATOM     21  C   UNL     1       2.233   2.682  18.005  0.00  0.00    +0.000 A 
ATOM     22  C   UNL     1       2.998   3.817  18.318  0.00  0.00    +0.000 A 
BRANCH  22  23
ATOM     23  C   UNL     1       4.249   4.099  17.547  0.00  0.00    +0.000 C 
ATOM     24  F   UNL     1       4.690   3.105  16.732  0.00  0.00    +0.000 F 
ATOM     25  F   UNL     1       4.109   5.191  16.742  0.00  0.00    +0.000 F 
ATOM     26  F   UNL     1       5.297   4.394  18.369  0.00  0.00    +0.000 F 
ENDBRANCH  22  23
ENDBRANCH  16  17
ENDBRANCH   4  16
TORSDOF 5
ENDMDL
MODEL 4
REMARK VINA RESULT:      -8.2      1.698      2.183
REMARK  Name = 
REMARK  5 active torsions:
REMARK  status: ('A' for Active; 'I' for Inactive)
REMARK    1  A    between atoms: C_6  and  C_7
REMARK    2  A    between atoms: C_7  and  C_8
REMARK    3  A    between atoms: C_11  and  O_12
REMARK    4  A    between atoms: O_12  and  C_13
REMARK    5  A    between atoms: C_18  and  C_19
REMARK                            x       y       z     vdW  Elec       q    Type
REMARK                         _______ _______ _______ _____ _____    ______ ____
ROOT
ATOM      1  C   UNL     1       1.127   9.522  18.898  0.00  0.00    +0.000 A 
ATOM      2  C   UNL     1       1.148   8.774  20.084  0.00  0.00    +0.000 A 
ATOM      3  C   UNL     1       1.933   7.623  20.196  0.00  0.00    +0.000 A 
ATOM      4  C   UNL     1       2.665   7.168  19.105  0.00  0.00    +0.000 A 
ATOM      5  C   UNL     1       2.640   7.892  17.911  0.00  0.00    +0.000 A 
ATOM      6  C   UNL     1       1.871   9.055  17.806  0.00  0.00    +0.000 A 
ENDROOT
BRANCH   1   7
ATOM      7  C   UNL     1       0.285  10.774  18.763  0.00  0.00    +0.000 C 
BRANCH   7  13
ATOM      8  O   UNL     1      -3.104  11.181  15.441  0.00  0.00    +0.000 OA
ATOM      9  C   UNL     1      -2.624  11.117  16.558  0.00  0.00    +0.000 C 
ATOM     10  N   UNL     1      -2.604  12.115  17.469  0.00  0.00    +0.000 N 
ATOM     11  C   UNL     1      -1.907  11.935  18.626  0.00  0.00    +0.000 C 
ATOM     12  O   UNL     1      -1.811  12.806  19.480  0.00  0.00    +0.000 OA
ATOM     13  C   UNL     1      -1.239  10.572  18.699  0.00  0.00    +0.000 C 
ATOM     14  S   UNL     1      -1.841   9.705  17.203  0.00  0.00    +0.000 S 
ATOM     15  H   UNL     1      -3.040  12.997  17.257  0.00  0.00    +0.000 HD
ENDBRANCH   7  13
ENDBRANCH   1   7
BRANCH   4  16
ATOM     16  O   UNL     1       3.432   6.041  19.307  0.00  0.00    +0.000 OA
BRANCH  16  17
ATOM     17  C   UNL     1       4.198   5.581  18.252  0.00  0.00    +0.000 A 
ATOM     18  N   UNL     1       5.377   6.209  18.010  0.00  0.00    +0.000 NA
ATOM     19  C   UNL     1       6.153   5.731  17.022  0.00  0.00    +0.000 A 
ATOM     20  C   UNL     1       5.805   4.648  16.236  0.00  0.00    +0.000 A 
ATOM     21  C   UNL     1       4.570   4.047  16.470  0.00  0.00    +0.000 A 
ATOM     22  C   UNL     1       3.726   4.526  17.486  0.00  0.00    +0.000 A 
BRANCH  22  23
ATOM     23  C   UNL     1       2.393   3.882  17.701  0.00  0.00    +0.000 C 
ATOM     24  F   UNL     1       1.304   4.640  17.407  0.00  0.00    +0.000 F 
ATOM     25  F   UNL     1       2.255   2.746  16.956  0.00  0.00    +0.000 F 
ATOM     26  F   UNL     1       2.224   3.481  18.994  0.00  0.00    +0.000 F 
ENDBRANCH  22  23
ENDBRANCH  16  17
ENDBRANCH   4  16
TORSDOF 5
ENDMDL
MODEL 5
REMARK VINA RESULT:      -8.2      2.004      2.469
REMARK  Name = 
REMARK  5 active torsions:
REMARK  status: ('A' for Active; 'I' for Inactive)
REMARK    1  A    between atoms: C_6  and  C_7
REMARK    2  A    between atoms: C_7  and  C_8
REMARK    3  A    between atoms: C_11  and  O_12
REMARK    4  A    between atoms: O_12  and  C_13
REMARK    5  A    between atoms: C_18  and  C_19
REMARK                            x       y       z     vdW  Elec       q    Type
REMARK                         _______ _______ _______ _____ _____    ______ ____
ROOT
ATOM      1  C   UNL     1       0.989   9.469  18.927  0.00  0.00    +0.000 A 
ATOM      2  C   UNL     1       0.993   8.870  20.195  0.00  0.00    +0.000 A 
ATOM      3  C   UNL     1       1.757   7.727  20.450  0.00  0.00    +0.000 A 
ATOM      4  C   UNL     1       2.482   7.129  19.425  0.00  0.00    +0.000 A 
ATOM      5  C   UNL     1       2.474   7.704  18.152  0.00  0.00    +0.000 A 
ATOM      6  C   UNL     1       1.727   8.859  17.903  0.00  0.00    +0.000 A 
ENDROOT
BRANCH   1   7
ATOM      7  C   UNL     1       0.171  10.710  18.638  0.00  0.00    +0.000 C 
BRANCH   7  13
ATOM      8  O   UNL     1      -3.158  11.276  15.278  0.00  0.00    +0.000 OA
ATOM      9  C   UNL     1      -2.698  11.162  16.400  0.00  0.00    +0.000 C 
ATOM     10  N   UNL     1      -2.688  12.121  17.352  0.00  0.00    +0.000 N 
ATOM     11  C   UNL     1      -2.013  11.889  18.512  0.00  0.00    +0.000 C 
ATOM     12  O   UNL     1      -1.927  12.723  19.404  0.00  0.00    +0.000 OA
ATOM     13  C   UNL     1      -1.353  10.520  18.540  0.00  0.00    +0.000 C 
ATOM     14  S   UNL     1      -1.933   9.720  16.998  0.00  0.00    +0.000 S 
ATOM     15  H   UNL     1      -3.117  13.014  17.170  0.00  0.00    +0.000 HD
ENDBRANCH   7  13
ENDBRANCH   1   7
BRANCH   4  16
ATOM     16  O   UNL     1       3.228   6.022  19.766  0.00  0.00    +0.000 OA
BRANCH  16  17
ATOM     17  C   UNL     1       3.030   4.860  19.043  0.00  0.00    +0.000 A 
ATOM     18  N   UNL     1       1.807   4.276  19.114  0.00  0.00    +0.000 NA
ATOM     19  C   UNL     1       1.590   3.178  18.369  0.00  0.00    +0.000 A 
ATOM     20  C   UNL     1       2.549   2.611  17.551  0.00  0.00    +0.000 A 
ATOM     21  C   UNL     1       3.813   3.198  17.529  0.00  0.00    +0.000 A 
ATOM     22  C   UNL     1       4.081   4.339  18.303  0.00  0.00    +0.000 A 
BRANCH  22  23
ATOM     23  C   UNL     1       5.453   4.936  18.284  0.00  0.00    +0.000 C 
ATOM     24  F   UNL     1       6.395   4.259  17.578  0.00  0.00    +0.000 F 
ATOM     25  F   UNL     1       5.447   6.197  17.762  0.00  0.00    +0.000 F 
ATOM     26  F   UNL     1       5.964   5.075  19.541  0.00  0.00    +0.000 F 
ENDBRANCH  22  23
ENDBRANCH  16  17
ENDBRANCH   4  16
TORSDOF 5
ENDMDL
MODEL 6
REMARK VINA RESULT:      -8.2      0.363      1.272
REMARK  Name = 
REMARK  5 active torsions:
REMARK  status: ('A' for Active; 'I' for Inactive)
REMARK    1  A    between atoms: C_6  and  C_7
REMARK    2  A    between atoms: C_7  and  C_8
REMARK    3  A    between atoms: C_11  and  O_12
REMARK    4  A    between atoms: O_12  and  C_13
REMARK    5  A    between atoms: C_18  and  C_19
REMARK                            x       y       z     vdW  Elec       q    Type
REMARK                         _______ _______ _______ _____ _____    ______ ____
ROOT
ATOM      1  C   UNL     1       1.136   9.331  18.756  0.00  0.00    +0.000 A 
ATOM      2  C   UNL     1       1.920   8.661  17.807  0.00  0.00    +0.000 A 
ATOM      3  C   UNL     1       2.638   7.511  18.147  0.00  0.00    +0.000 A 
ATOM      4  C   UNL     1       2.630   7.045  19.457  0.00  0.00    +0.000 A 
ATOM      5  C   UNL     1       1.867   7.711  20.419  0.00  0.00    +0.000 A 
ATOM      6  C   UNL     1       1.133   8.849  20.073  0.00  0.00    +0.000 A 
ENDROOT
BRANCH   1   7
ATOM      7  C   UNL     1       0.349  10.575  18.401  0.00  0.00    +0.000 C 
BRANCH   7  13
ATOM      8  O   UNL     1      -3.836  11.407  16.284  0.00  0.00    +0.000 OA
ATOM      9  C   UNL     1      -3.038  11.296  17.198  0.00  0.00    +0.000 C 
ATOM     10  N   UNL     1      -2.597  12.299  17.988  0.00  0.00    +0.000 N 
ATOM     11  C   UNL     1      -1.598  12.043  18.879  0.00  0.00    +0.000 C 
ATOM     12  O   UNL     1      -1.120  12.908  19.601  0.00  0.00    +0.000 OA
ATOM     13  C   UNL     1      -1.129  10.598  18.830  0.00  0.00    +0.000 C 
ATOM     14  S   UNL     1      -2.285   9.798  17.657  0.00  0.00    +0.000 S 
ATOM     15  H   UNL     1      -2.957  13.231  17.865  0.00  0.00    +0.000 HD
ENDBRANCH   7  13
ENDBRANCH   1   7
BRANCH   4  16
ATOM     16  O   UNL     1       3.343   5.890  19.702  0.00  0.00    +0.000 OA
BRANCH  16  17
ATOM     17  C   UNL     1       3.049   4.774  18.941  0.00  0.00    +0.000 A 
ATOM     18  N   UNL     1       3.626   4.679  17.716  0.00  0.00    +0.000 NA
ATOM     19  C   UNL     1       3.389   3.570  16.994  0.00  0.00    +0.000 A 
ATOM     20  C   UNL     1       2.582   2.535  17.429  0.00  0.00    +0.000 A 
ATOM     21  C   UNL     1       1.961   2.674  18.670  0.00  0.00    +0.000 A 
ATOM     22  C   UNL     1       2.175   3.824  19.447  0.00  0.00    +0.000 A 
BRANCH  22  23
ATOM     23  C   UNL     1       1.478   3.963  20.764  0.00  0.00    +0.000 C 
ATOM     24  F   UNL     1       2.250   4.334  21.818  0.00  0.00    +0.000 F 
ATOM     25  F   UNL     1       0.474   4.887  20.708  0.00  0.00    +0.000 F 
ATOM     26  F   UNL     1       0.870   2.802  21.143  0.00  0.00    +0.000 F 
ENDBRANCH  22  23
ENDBRANCH  16  17
ENDBRANCH   4  16
TORSDOF 5
ENDMDL
MODEL 7
REMARK VINA RESULT:      -8.2      1.689      2.292
REMARK  Name = 
REMARK  5 active torsions:
REMARK  status: ('A' for Active; 'I' for Inactive)
REMARK    1  A    between atoms: C_6  and  C_7
REMARK    2  A    between atoms: C_7  and  C_8
REMARK    3  A    between atoms: C_11  and  O_12
REMARK    4  A    between atoms: O_12  and  C_13
REMARK    5  A    between atoms: C_18  and  C_19
REMARK                            x       y       z     vdW  Elec       q    Type
REMARK                         _______ _______ _______ _____ _____    ______ ____
ROOT
ATOM      1  C   UNL     1       1.283   9.502  19.159  0.00  0.00    +0.000 A 
ATOM      2  C   UNL     1       1.946   8.734  18.191  0.00  0.00    +0.000 A 
ATOM      3  C   UNL     1       2.387   7.439  18.476  0.00  0.00    +0.000 A 
ATOM      4  C   UNL     1       2.225   6.912  19.753  0.00  0.00    +0.000 A 
ATOM      5  C   UNL     1       1.582   7.671  20.733  0.00  0.00    +0.000 A 
ATOM      6  C   UNL     1       1.122   8.958  20.441  0.00  0.00    +0.000 A 
ENDROOT
BRANCH   1   7
ATOM      7  C   UNL     1       0.795  10.905  18.863  0.00  0.00    +0.000 C 
BRANCH   7  13
ATOM      8  O   UNL     1      -2.760  10.779  15.695  0.00  0.00    +0.000 OA
ATOM      9  C   UNL     1      -2.181  11.066  16.728  0.00  0.00    +0.000 C 
ATOM     10  N   UNL     1      -1.806  12.307  17.106  0.00  0.00    +0.000 N 
ATOM     11  C   UNL     1      -1.043  12.451  18.226  0.00  0.00    +0.000 C 
ATOM     12  O   UNL     1      -0.633  13.539  18.610  0.00  0.00    +0.000 OA
ATOM     13  C   UNL     1      -0.728  11.122  18.892  0.00  0.00    +0.000 C 
ATOM     14  S   UNL     1      -1.700   9.905  17.929  0.00  0.00    +0.000 S 
ATOM     15  H   UNL     1      -2.033  13.099  16.527  0.00  0.00    +0.000 HD
ENDBRANCH   7  13
ENDBRANCH   1   7
BRANCH   4  16
ATOM     16  O   UNL     1       2.665   5.619  19.943  0.00  0.00    +0.000 OA
BRANCH  16  17
ATOM     17  C   UNL     1       3.719   5.173  19.167  0.00  0.00    +0.000 A 
ATOM     18  N   UNL     1       4.942   5.717  19.395  0.00  0.00    +0.000 NA
ATOM     19  C   UNL     1       5.981   5.248  18.684  0.00  0.00    +0.000 A 
ATOM     20  C   UNL     1       5.864   4.255  17.729  0.00  0.00    +0.000 A 
ATOM     21  C   UNL     1       4.593   3.744  17.476  0.00  0.00    +0.000 A 
ATOM     22  C   UNL     1       3.481   4.218  18.191  0.00  0.00    +0.000 A 
BRANCH  22  23
ATOM     23  C   UNL     1       2.121   3.673  17.884  0.00  0.00    +0.000 C 
ATOM     24  F   UNL     1       1.412   3.194  18.940  0.00  0.00    +0.000 F 
ATOM     25  F   UNL     1       1.318   4.614  17.308  0.00  0.00    +0.000 F 
ATOM     26  F   UNL     1       2.174   2.651  16.982  0.00  0.00    +0.000 F 
ENDBRANCH  22  23
ENDBRANCH  16  17
ENDBRANCH   4  16
TORSDOF 5
ENDMDL
MODEL 8
REMARK VINA RESULT:      -8.1      2.076      2.669
REMARK  Name = 
REMARK  5 active torsions:
REMARK  status: ('A' for Active; 'I' for Inactive)
REMARK    1  A    between atoms: C_6  and  C_7
REMARK    2  A    between atoms: C_7  and  C_8
REMARK    3  A    between atoms: C_11  and  O_12
REMARK    4  A    between atoms: O_12  and  C_13
REMARK    5  A    between atoms: C_18  and  C_19
REMARK                            x       y       z     vdW  Elec       q    Type
REMARK                         _______ _______ _______ _____ _____    ______ ____
ROOT
ATOM      1  C   UNL     1       0.856   9.466  18.859  0.00  0.00    +0.000 A 
ATOM      2  C   UNL     1       1.702   8.860  17.919  0.00  0.00    +0.000 A 
ATOM      3  C   UNL     1       2.475   7.745  18.258  0.00  0.00    +0.000 A 
ATOM      4  C   UNL     1       2.459   7.254  19.559  0.00  0.00    +0.000 A 
ATOM      5  C   UNL     1       1.635   7.857  20.511  0.00  0.00    +0.000 A 
ATOM      6  C   UNL     1       0.846   8.959  20.166  0.00  0.00    +0.000 A 
ENDROOT
BRANCH   1   7
ATOM      7  C   UNL     1       0.010  10.670  18.506  0.00  0.00    +0.000 C 
BRANCH   7  13
ATOM      8  O   UNL     1      -4.077  11.373  16.162  0.00  0.00    +0.000 OA
ATOM      9  C   UNL     1      -3.333  11.255  17.120  0.00  0.00    +0.000 C 
ATOM     10  N   UNL     1      -3.011  12.232  17.995  0.00  0.00    +0.000 N 
ATOM     11  C   UNL     1      -2.056  11.982  18.936  0.00  0.00    +0.000 C 
ATOM     12  O   UNL     1      -1.683  12.828  19.738  0.00  0.00    +0.000 OA
ATOM     13  C   UNL     1      -1.490  10.575  18.834  0.00  0.00    +0.000 C 
ATOM     14  S   UNL     1      -2.515   9.780  17.541  0.00  0.00    +0.000 S 
ATOM     15  H   UNL     1      -3.423  13.145  17.903  0.00  0.00    +0.000 HD
ENDBRANCH   7  13
ENDBRANCH   1   7
BRANCH   4  16
ATOM     16  O   UNL     1       3.230   6.137  19.802  0.00  0.00    +0.000 OA
BRANCH  16  17
ATOM     17  C   UNL     1       3.021   5.022  19.012  0.00  0.00    +0.000 A 
ATOM     18  N   UNL     1       1.781   4.469  19.019  0.00  0.00    +0.000 NA
ATOM     19  C   UNL     1       1.556   3.419  18.210  0.00  0.00    +0.000 A 
ATOM     20  C   UNL     1       2.522   2.871  17.387  0.00  0.00    +0.000 A 
ATOM     21  C   UNL     1       3.801   3.424  17.429  0.00  0.00    +0.000 A 
ATOM     22  C   UNL     1       4.077   4.513  18.271  0.00  0.00    +0.000 A 
BRANCH  22  23
ATOM     23  C   UNL     1       5.464   5.073  18.320  0.00  0.00    +0.000 C 
ATOM     24  F   UNL     1       6.038   5.154  19.549  0.00  0.00    +0.000 F 
ATOM     25  F   UNL     1       6.332   4.339  17.564  0.00  0.00    +0.000 F 
ATOM     26  F   UNL     1       5.522   6.334  17.802  0.00  0.00    +0.000 F 
ENDBRANCH  22  23
ENDBRANCH  16  17
ENDBRANCH   4  16
TORSDOF 5
ENDMDL
MODEL 9
REMARK VINA RESULT:      -7.9      4.070      8.376
REMARK  Name = 
REMARK  5 active torsions:
REMARK  status: ('A' for Active; 'I' for Inactive)
REMARK    1  A    between atoms: C_6  and  C_7
REMARK    2  A    between atoms: C_7  and  C_8
REMARK    3  A    between atoms: C_11  and  O_12
REMARK    4  A    between atoms: O_12  and  C_13
REMARK    5  A    between atoms: C_18  and  C_19
REMARK                            x       y       z     vdW  Elec       q    Type
REMARK                         _______ _______ _______ _____ _____    ______ ____
ROOT
ATOM      1  C   UNL     1       2.830   6.976  18.550  0.00  0.00    +0.000 A 
ATOM      2  C   UNL     1       2.277   6.946  19.838  0.00  0.00    +0.000 A 
ATOM      3  C   UNL     1       1.477   7.993  20.304  0.00  0.00    +0.000 A 
ATOM      4  C   UNL     1       1.264   9.116  19.510  0.00  0.00    +0.000 A 
ATOM      5  C   UNL     1       1.823   9.168  18.231  0.00  0.00    +0.000 A 
ATOM      6  C   UNL     1       2.606   8.111  17.758  0.00  0.00    +0.000 A 
ENDROOT
BRANCH   1   7
ATOM      7  C   UNL     1       3.694   5.847  18.030  0.00  0.00    +0.000 C 
BRANCH   7  13
ATOM      8  O   UNL     1       7.862   4.573  16.107  0.00  0.00    +0.000 OA
ATOM      9  C   UNL     1       7.064   4.850  16.985  0.00  0.00    +0.000 C 
ATOM     10  N   UNL     1       6.592   4.000  17.922  0.00  0.00    +0.000 N 
ATOM     11  C   UNL     1       5.598   4.423  18.753  0.00  0.00    +0.000 C 
ATOM     12  O   UNL     1       5.094   3.698  19.601  0.00  0.00    +0.000 OA
ATOM     13  C   UNL     1       5.169   5.853  18.469  0.00  0.00    +0.000 C 
ATOM     14  S   UNL     1       6.351   6.422  17.192  0.00  0.00    +0.000 S 
ATOM     15  H   UNL     1       6.927   3.051  17.954  0.00  0.00    +0.000 HD
ENDBRANCH   7  13
ENDBRANCH   1   7
BRANCH   4  16
ATOM     16  O   UNL     1       0.443  10.091  20.034  0.00  0.00    +0.000 OA
BRANCH  16  17
ATOM     17  C   UNL     1       0.655  11.398  19.637  0.00  0.00    +0.000 A 
ATOM     18  N   UNL     1       1.705  12.060  20.186  0.00  0.00    +0.000 NA
ATOM     19  C   UNL     1       1.951  13.312  19.762  0.00  0.00    +0.000 A 
ATOM     20  C   UNL     1       1.184  13.958  18.811  0.00  0.00    +0.000 A 
ATOM     21  C   UNL     1       0.082  13.278  18.294  0.00  0.00    +0.000 A 
ATOM     22  C   UNL     1      -0.213  11.974  18.721  0.00  0.00    +0.000 A 
BRANCH  22  23
ATOM     23  C   UNL     1      -1.416  11.273  18.172  0.00  0.00    +0.000 C 
ATOM     24  F   UNL     1      -2.232  12.013  17.376  0.00  0.00    +0.000 F 
ATOM     25  F   UNL     1      -1.070  10.186  17.423  0.00  0.00    +0.000 F 
ATOM     26  F   UNL     1      -2.215  10.782  19.163  0.00  0.00    +0.000 F 
ENDBRANCH  22  23
ENDBRANCH  16  17
ENDBRANCH   4  16
TORSDOF 5
ENDMDL
