MODEL 1
REMARK VINA RESULT:      -7.7      0.000      0.000
REMARK  Name = 
REMARK  13 active torsions:
REMARK  status: ('A' for Active; 'I' for Inactive)
REMARK    1  A    between atoms: C_1  and  O_2
REMARK    2  A    between atoms: O_2  and  C_3
REMARK    3  A    between atoms: C_5  and  C_6
REMARK    4  A    between atoms: C_6  and  C_7
REMARK    5  A    between atoms: C_7  and  C_9
REMARK    6  A    between atoms: C_14  and  O_15
REMARK    7  A    between atoms: O_15  and  C_16
REMARK    8  A    between atoms: C_19  and  C_20
REMARK    9  A    between atoms: C_19  and  C_21
REMARK   10  A    between atoms: C_24  and  O_25
REMARK   11  A    between atoms: O_25  and  C_26
REMARK   12  A    between atoms: C_27  and  O_28
REMARK   13  A    between atoms: O_28  and  C_29
REMARK                            x       y       z     vdW  Elec       q    Type
REMARK                         _______ _______ _______ _____ _____    ______ ____
ROOT
ATOM      1  C   UNL     1       1.723   9.425  18.235  0.00  0.00    +0.000 C 
ATOM      2  O   UNL     1       2.243   9.414  17.120  0.00  0.00    +0.000 OA
ENDROOT
BRANCH   1   3
ATOM      3  C   UNL     1       1.927   8.279  19.162  0.00  0.00    +0.000 A 
ATOM      4  C   UNL     1       1.392   8.315  20.459  0.00  0.00    +0.000 A 
ATOM      5  C   UNL     1       1.266   7.127  21.171  0.00  0.00    +0.000 A 
ATOM      6  C   UNL     1       1.814   5.975  20.629  0.00  0.00    +0.000 A 
ATOM      7  C   UNL     1       2.769   6.062  19.640  0.00  0.00    +0.000 A 
ATOM      8  C   UNL     1       2.631   7.125  18.755  0.00  0.00    +0.000 A 
ATOM      9  C   UNL     1       3.710   4.954  19.548  0.00  0.00    +0.000 C 
ATOM     10  C   UNL     1       3.213   3.740  19.805  0.00  0.00    +0.000 C 
ATOM     11  C   UNL     1       1.776   3.584  20.253  0.00  0.00    +0.000 C 
ATOM     12  C   UNL     1       1.632   2.547  21.364  0.00  0.00    +0.000 C 
ATOM     13  C   UNL     1       0.963   3.129  19.025  0.00  0.00    +0.000 C 
ATOM     14  O   UNL     1       1.254   4.767  20.934  0.00  0.00    +0.000 OA
BRANCH   8  15
ATOM     15  O   UNL     1       3.071   6.912  17.471  0.00  0.00    +0.000 OA
ATOM     16  C   UNL     1       4.504   7.001  17.378  0.00  0.00    +0.000 C 
ENDBRANCH   8  15
ENDBRANCH   1   3
BRANCH   1  17
ATOM     17  C   UNL     1       0.911  10.625  18.683  0.00  0.00    +0.000 C 
BRANCH  17  20
ATOM     18  C   UNL     1      -2.749  11.625  19.165  0.00  0.00    +0.000 A 
ATOM     19  C   UNL     1      -1.384  11.374  19.423  0.00  0.00    +0.000 A 
ATOM     20  C   UNL     1      -0.602  10.579  18.576  0.00  0.00    +0.000 A 
ATOM     21  C   UNL     1      -1.250   9.947  17.515  0.00  0.00    +0.000 A 
ATOM     22  C   UNL     1      -2.620  10.147  17.238  0.00  0.00    +0.000 A 
ATOM     23  C   UNL     1      -3.385  11.003  18.075  0.00  0.00    +0.000 A 
BRANCH  18  25
ATOM     24  C   UNL     1      -2.934  12.700  21.281  0.00  0.00    +0.000 C 
ATOM     25  O   UNL     1      -3.462  12.484  19.971  0.00  0.00    +0.000 OA
ENDBRANCH  18  25
BRANCH  22  26
ATOM     26  O   UNL     1      -3.064   9.440  16.148  0.00  0.00    +0.000 OA
ATOM     27  C   UNL     1      -2.980  10.051  14.881  0.00  0.00    +0.000 C 
ENDBRANCH  22  26
BRANCH  23  28
ATOM     28  O   UNL     1      -4.707  11.112  17.731  0.00  0.00    +0.000 OA
ATOM     29  C   UNL     1      -5.199  12.200  16.967  0.00  0.00    +0.000 C 
ENDBRANCH  23  28
ENDBRANCH  17  20
ENDBRANCH   1  17
TORSDOF 7
ENDMDL
MODEL 2
REMARK VINA RESULT:      -7.5      2.779      8.331
REMARK  Name = 
REMARK  13 active torsions:
REMARK  status: ('A' for Active; 'I' for Inactive)
REMARK    1  A    between atoms: C_1  and  O_2
REMARK    2  A    between atoms: O_2  and  C_3
REMARK    3  A    between atoms: C_5  and  C_6
REMARK    4  A    between atoms: C_6  and  C_7
REMARK    5  A    between atoms: C_7  and  C_9
REMARK    6  A    between atoms: C_14  and  O_15
REMARK    7  A    between atoms: O_15  and  C_16
REMARK    8  A    between atoms: C_19  and  C_20
REMARK    9  A    between atoms: C_19  and  C_21
REMARK   10  A    between atoms: C_24  and  O_25
REMARK   11  A    between atoms: O_25  and  C_26
REMARK   12  A    between atoms: C_27  and  O_28
REMARK   13  A    between atoms: O_28  and  C_29
REMARK                            x       y       z     vdW  Elec       q    Type
REMARK                         _______ _______ _______ _____ _____    ______ ____
ROOT
ATOM      1  C   UNL     1       1.492   8.724  18.991  0.00  0.00    +0.000 C 
ATOM      2  O   UNL     1       1.525   9.126  17.828  0.00  0.00    +0.000 OA
ENDROOT
BRANCH   1   3
ATOM      3  C   UNL     1       0.624   9.407  19.988  0.00  0.00    +0.000 A 
ATOM      4  C   UNL     1       0.483   8.879  21.281  0.00  0.00    +0.000 A 
ATOM      5  C   UNL     1      -0.012   9.694  22.293  0.00  0.00    +0.000 A 
ATOM      6  C   UNL     1      -0.488  10.950  21.952  0.00  0.00    +0.000 A 
ATOM      7  C   UNL     1      -0.822  11.232  20.645  0.00  0.00    +0.000 A 
ATOM      8  C   UNL     1      -0.049  10.607  19.673  0.00  0.00    +0.000 A 
ATOM      9  C   UNL     1      -1.834  12.259  20.442  0.00  0.00    +0.000 C 
ATOM     10  C   UNL     1      -1.805  13.287  21.295  0.00  0.00    +0.000 C 
ATOM     11  C   UNL     1      -0.822  13.296  22.446  0.00  0.00    +0.000 C 
ATOM     12  C   UNL     1      -1.454  13.816  23.734  0.00  0.00    +0.000 C 
ATOM     13  C   UNL     1       0.343  14.221  22.042  0.00  0.00    +0.000 C 
ATOM     14  O   UNL     1      -0.426  11.956  22.874  0.00  0.00    +0.000 OA
BRANCH   8  15
ATOM     15  O   UNL     1       0.127  11.295  18.498  0.00  0.00    +0.000 OA
ATOM     16  C   UNL     1       1.049  12.389  18.653  0.00  0.00    +0.000 C 
ENDBRANCH   8  15
ENDBRANCH   1   3
BRANCH   1  17
ATOM     17  C   UNL     1       2.300   7.507  19.397  0.00  0.00    +0.000 C 
BRANCH  17  20
ATOM     18  C   UNL     1       5.065   6.439  16.980  0.00  0.00    +0.000 A 
ATOM     19  C   UNL     1       4.170   7.240  17.722  0.00  0.00    +0.000 A 
ATOM     20  C   UNL     1       3.027   6.709  18.331  0.00  0.00    +0.000 A 
ATOM     21  C   UNL     1       2.739   5.367  18.087  0.00  0.00    +0.000 A 
ATOM     22  C   UNL     1       3.590   4.536  17.326  0.00  0.00    +0.000 A 
ATOM     23  C   UNL     1       4.777   5.079  16.764  0.00  0.00    +0.000 A 
BRANCH  18  25
ATOM     24  C   UNL     1       7.350   6.992  17.352  0.00  0.00    +0.000 C 
ATOM     25  O   UNL     1       6.224   6.979  16.472  0.00  0.00    +0.000 OA
ENDBRANCH  18  25
BRANCH  22  26
ATOM     26  O   UNL     1       3.131   3.247  17.209  0.00  0.00    +0.000 OA
ATOM     27  C   UNL     1       2.030   2.861  17.999  0.00  0.00    +0.000 C 
ENDBRANCH  22  26
BRANCH  23  28
ATOM     28  O   UNL     1       5.521   4.195  16.028  0.00  0.00    +0.000 OA
ATOM     29  C   UNL     1       5.568   4.246  14.612  0.00  0.00    +0.000 C 
ENDBRANCH  23  28
ENDBRANCH  17  20
ENDBRANCH   1  17
TORSDOF 7
ENDMDL
MODEL 3
REMARK VINA RESULT:      -7.5      2.506      8.284
REMARK  Name = 
REMARK  13 active torsions:
REMARK  status: ('A' for Active; 'I' for Inactive)
REMARK    1  A    between atoms: C_1  and  O_2
REMARK    2  A    between atoms: O_2  and  C_3
REMARK    3  A    between atoms: C_5  and  C_6
REMARK    4  A    between atoms: C_6  and  C_7
REMARK    5  A    between atoms: C_7  and  C_9
REMARK    6  A    between atoms: C_14  and  O_15
REMARK    7  A    between atoms: O_15  and  C_16
REMARK    8  A    between atoms: C_19  and  C_20
REMARK    9  A    between atoms: C_19  and  C_21
REMARK   10  A    between atoms: C_24  and  O_25
REMARK   11  A    between atoms: O_25  and  C_26
REMARK   12  A    between atoms: C_27  and  O_28
REMARK   13  A    between atoms: O_28  and  C_29
REMARK                            x       y       z     vdW  Elec       q    Type
REMARK                         _______ _______ _______ _____ _____    ______ ____
ROOT
ATOM      1  C   UNL     1       1.602   8.728  18.840  0.00  0.00    +0.000 C 
ATOM      2  O   UNL     1       1.501   9.044  17.655  0.00  0.00    +0.000 OA
ENDROOT
BRANCH   1   3
ATOM      3  C   UNL     1       0.693   9.334  19.850  0.00  0.00    +0.000 A 
ATOM      4  C   UNL     1       0.543   8.738  21.113  0.00  0.00    +0.000 A 
ATOM      5  C   UNL     1       0.002   9.486  22.152  0.00  0.00    +0.000 A 
ATOM      6  C   UNL     1      -0.508  10.743  21.862  0.00  0.00    +0.000 A 
ATOM      7  C   UNL     1      -0.824  11.078  20.563  0.00  0.00    +0.000 A 
ATOM      8  C   UNL     1      -0.012  10.526  19.579  0.00  0.00    +0.000 A 
ATOM      9  C   UNL     1      -1.865  12.081  20.389  0.00  0.00    +0.000 C 
ATOM     10  C   UNL     1      -1.887  13.067  21.291  0.00  0.00    +0.000 C 
ATOM     11  C   UNL     1      -0.928  13.049  22.462  0.00  0.00    +0.000 C 
ATOM     12  C   UNL     1      -1.602  13.486  23.760  0.00  0.00    +0.000 C 
ATOM     13  C   UNL     1       0.215  14.029  22.128  0.00  0.00    +0.000 C 
ATOM     14  O   UNL     1      -0.498  11.703  22.833  0.00  0.00    +0.000 OA
BRANCH   8  15
ATOM     15  O   UNL     1       0.165  11.276  18.443  0.00  0.00    +0.000 OA
ATOM     16  C   UNL     1       1.057  12.383  18.668  0.00  0.00    +0.000 C 
ENDBRANCH   8  15
ENDBRANCH   1   3
BRANCH   1  17
ATOM     17  C   UNL     1       2.623   7.691  19.265  0.00  0.00    +0.000 C 
BRANCH  17  20
ATOM     18  C   UNL     1       3.395   4.391  17.491  0.00  0.00    +0.000 A 
ATOM     19  C   UNL     1       3.259   5.772  17.752  0.00  0.00    +0.000 A 
ATOM     20  C   UNL     1       2.463   6.256  18.797  0.00  0.00    +0.000 A 
ATOM     21  C   UNL     1       1.712   5.325  19.512  0.00  0.00    +0.000 A 
ATOM     22  C   UNL     1       1.794   3.937  19.265  0.00  0.00    +0.000 A 
ATOM     23  C   UNL     1       2.652   3.458  18.239  0.00  0.00    +0.000 A 
BRANCH  18  25
ATOM     24  C   UNL     1       5.189   4.912  16.016  0.00  0.00    +0.000 C 
ATOM     25  O   UNL     1       4.256   3.950  16.513  0.00  0.00    +0.000 OA
ENDBRANCH  18  25
BRANCH  22  26
ATOM     26  O   UNL     1       0.980   3.189  20.081  0.00  0.00    +0.000 OA
ATOM     27  C   UNL     1       1.471   2.821  21.349  0.00  0.00    +0.000 C 
ENDBRANCH  22  26
BRANCH  23  28
ATOM     28  O   UNL     1       2.642   2.099  18.068  0.00  0.00    +0.000 OA
ATOM     29  C   UNL     1       3.670   1.268  18.580  0.00  0.00    +0.000 C 
ENDBRANCH  23  28
ENDBRANCH  17  20
ENDBRANCH   1  17
TORSDOF 7
ENDMDL
MODEL 4
REMARK VINA RESULT:      -7.4      2.420      8.223
REMARK  Name = 
REMARK  13 active torsions:
REMARK  status: ('A' for Active; 'I' for Inactive)
REMARK    1  A    between atoms: C_1  and  O_2
REMARK    2  A    between atoms: O_2  and  C_3
REMARK    3  A    between atoms: C_5  and  C_6
REMARK    4  A    between atoms: C_6  and  C_7
REMARK    5  A    between atoms: C_7  and  C_9
REMARK    6  A    between atoms: C_14  and  O_15
REMARK    7  A    between atoms: O_15  and  C_16
REMARK    8  A    between atoms: C_19  and  C_20
REMARK    9  A    between atoms: C_19  and  C_21
REMARK   10  A    between atoms: C_24  and  O_25
REMARK   11  A    between atoms: O_25  and  C_26
REMARK   12  A    between atoms: C_27  and  O_28
REMARK   13  A    between atoms: O_28  and  C_29
REMARK                            x       y       z     vdW  Elec       q    Type
REMARK                         _______ _______ _______ _____ _____    ______ ____
ROOT
ATOM      1  C   UNL     1       1.584   9.917  18.554  0.00  0.00    +0.000 C 
ATOM      2  O   UNL     1       2.345  10.751  18.063  0.00  0.00    +0.000 OA
ENDROOT
BRANCH   1   3
ATOM      3  C   UNL     1       0.691  10.299  19.682  0.00  0.00    +0.000 A 
ATOM      4  C   UNL     1       0.829   9.679  20.933  0.00  0.00    +0.000 A 
ATOM      5  C   UNL     1       0.263  10.282  22.051  0.00  0.00    +0.000 A 
ATOM      6  C   UNL     1      -0.543  11.394  21.861  0.00  0.00    +0.000 A 
ATOM      7  C   UNL     1      -1.080  11.656  20.620  0.00  0.00    +0.000 A 
ATOM      8  C   UNL     1      -0.289  11.304  19.531  0.00  0.00    +0.000 A 
ATOM      9  C   UNL     1      -2.330  12.401  20.598  0.00  0.00    +0.000 C 
ATOM     10  C   UNL     1      -2.462  13.353  21.527  0.00  0.00    +0.000 C 
ATOM     11  C   UNL     1      -1.390  13.545  22.578  0.00  0.00    +0.000 C 
ATOM     12  C   UNL     1      -1.984  13.813  23.958  0.00  0.00    +0.000 C 
ATOM     13  C   UNL     1      -0.541  14.757  22.145  0.00  0.00    +0.000 C 
ATOM     14  O   UNL     1      -0.630  12.327  22.854  0.00  0.00    +0.000 OA
BRANCH   8  15
ATOM     15  O   UNL     1      -0.420  12.080  18.406  0.00  0.00    +0.000 OA
ATOM     16  C   UNL     1       0.206  13.365  18.569  0.00  0.00    +0.000 C 
ENDBRANCH   8  15
ENDBRANCH   1   3
BRANCH   1  17
ATOM     17  C   UNL     1       1.523   8.514  17.983  0.00  0.00    +0.000 C 
BRANCH  17  20
ATOM     18  C   UNL     1       2.854   5.524  19.964  0.00  0.00    +0.000 A 
ATOM     19  C   UNL     1       2.171   6.715  19.633  0.00  0.00    +0.000 A 
ATOM     20  C   UNL     1       2.492   7.463  18.493  0.00  0.00    +0.000 A 
ATOM     21  C   UNL     1       3.593   7.048  17.746  0.00  0.00    +0.000 A 
ATOM     22  C   UNL     1       4.322   5.879  18.058  0.00  0.00    +0.000 A 
ATOM     23  C   UNL     1       3.947   5.100  19.185  0.00  0.00    +0.000 A 
BRANCH  18  25
ATOM     24  C   UNL     1       1.337   3.901  20.820  0.00  0.00    +0.000 C 
ATOM     25  O   UNL     1       2.451   4.769  21.041  0.00  0.00    +0.000 OA
ENDBRANCH  18  25
BRANCH  22  26
ATOM     26  O   UNL     1       5.366   5.642  17.197  0.00  0.00    +0.000 OA
ATOM     27  C   UNL     1       6.563   6.360  17.392  0.00  0.00    +0.000 C 
ENDBRANCH  22  26
BRANCH  23  28
ATOM     28  O   UNL     1       4.731   4.000  19.412  0.00  0.00    +0.000 OA
ATOM     29  C   UNL     1       4.330   2.697  19.026  0.00  0.00    +0.000 C 
ENDBRANCH  23  28
ENDBRANCH  17  20
ENDBRANCH   1  17
TORSDOF 7
ENDMDL
MODEL 5
REMARK VINA RESULT:      -7.4      6.292      9.196
REMARK  Name = 
REMARK  13 active torsions:
REMARK  status: ('A' for Active; 'I' for Inactive)
REMARK    1  A    between atoms: C_1  and  O_2
REMARK    2  A    between atoms: O_2  and  C_3
REMARK    3  A    between atoms: C_5  and  C_6
REMARK    4  A    between atoms: C_6  and  C_7
REMARK    5  A    between atoms: C_7  and  C_9
REMARK    6  A    between atoms: C_14  and  O_15
REMARK    7  A    between atoms: O_15  and  C_16
REMARK    8  A    between atoms: C_19  and  C_20
REMARK    9  A    between atoms: C_19  and  C_21
REMARK   10  A    between atoms: C_24  and  O_25
REMARK   11  A    between atoms: O_25  and  C_26
REMARK   12  A    between atoms: C_27  and  O_28
REMARK   13  A    between atoms: O_28  and  C_29
REMARK                            x       y       z     vdW  Elec       q    Type
REMARK                         _______ _______ _______ _____ _____    ______ ____
ROOT
ATOM      1  C   UNL     1       7.887   8.396  17.930  0.00  0.00    +0.000 C 
ATOM      2  O   UNL     1       7.287   9.143  17.157  0.00  0.00    +0.000 OA
ENDROOT
BRANCH   1   3
ATOM      3  C   UNL     1       7.466   6.976  18.068  0.00  0.00    +0.000 A 
ATOM      4  C   UNL     1       8.017   6.170  19.076  0.00  0.00    +0.000 A 
ATOM      5  C   UNL     1       7.369   4.991  19.429  0.00  0.00    +0.000 A 
ATOM      6  C   UNL     1       6.286   4.583  18.665  0.00  0.00    +0.000 A 
ATOM      7  C   UNL     1       6.100   5.094  17.399  0.00  0.00    +0.000 A 
ATOM      8  C   UNL     1       6.490   6.415  17.215  0.00  0.00    +0.000 A 
ATOM      9  C   UNL     1       5.383   4.246  16.458  0.00  0.00    +0.000 C 
ATOM     10  C   UNL     1       4.388   3.514  16.968  0.00  0.00    +0.000 C 
ATOM     11  C   UNL     1       4.119   3.526  18.457  0.00  0.00    +0.000 C 
ATOM     12  C   UNL     1       3.792   2.133  18.990  0.00  0.00    +0.000 C 
ATOM     13  C   UNL     1       2.913   4.457  18.694  0.00  0.00    +0.000 C 
ATOM     14  O   UNL     1       5.305   3.837  19.253  0.00  0.00    +0.000 OA
BRANCH   8  15
ATOM     15  O   UNL     1       5.776   7.140  16.292  0.00  0.00    +0.000 OA
ATOM     16  C   UNL     1       4.421   7.360  16.721  0.00  0.00    +0.000 C 
ENDBRANCH   8  15
ENDBRANCH   1   3
BRANCH   1  17
ATOM     17  C   UNL     1       9.080   8.911  18.710  0.00  0.00    +0.000 C 
BRANCH  17  20
ATOM     18  C   UNL     1       9.592  12.190  20.613  0.00  0.00    +0.000 A 
ATOM     19  C   UNL     1       9.157  10.889  20.278  0.00  0.00    +0.000 A 
ATOM     20  C   UNL     1       9.214  10.401  18.967  0.00  0.00    +0.000 A 
ATOM     21  C   UNL     1       9.616  11.289  17.972  0.00  0.00    +0.000 A 
ATOM     22  C   UNL     1      10.032  12.608  18.258  0.00  0.00    +0.000 A 
ATOM     23  C   UNL     1      10.023  13.068  19.601  0.00  0.00    +0.000 A 
BRANCH  18  25
ATOM     24  C   UNL     1       8.536  12.123  22.745  0.00  0.00    +0.000 C 
ATOM     25  O   UNL     1       9.605  12.602  21.925  0.00  0.00    +0.000 OA
ENDBRANCH  18  25
BRANCH  22  26
ATOM     26  O   UNL     1      10.396  13.320  17.140  0.00  0.00    +0.000 OA
ATOM     27  C   UNL     1      11.751  13.305  16.757  0.00  0.00    +0.000 C 
ENDBRANCH  22  26
BRANCH  23  28
ATOM     28  O   UNL     1      10.425  14.368  19.768  0.00  0.00    +0.000 OA
ATOM     29  C   UNL     1       9.503  15.444  19.794  0.00  0.00    +0.000 C 
ENDBRANCH  23  28
ENDBRANCH  17  20
ENDBRANCH   1  17
TORSDOF 7
ENDMDL
MODEL 6
REMARK VINA RESULT:      -7.4      1.031      1.688
REMARK  Name = 
REMARK  13 active torsions:
REMARK  status: ('A' for Active; 'I' for Inactive)
REMARK    1  A    between atoms: C_1  and  O_2
REMARK    2  A    between atoms: O_2  and  C_3
REMARK    3  A    between atoms: C_5  and  C_6
REMARK    4  A    between atoms: C_6  and  C_7
REMARK    5  A    between atoms: C_7  and  C_9
REMARK    6  A    between atoms: C_14  and  O_15
REMARK    7  A    between atoms: O_15  and  C_16
REMARK    8  A    between atoms: C_19  and  C_20
REMARK    9  A    between atoms: C_19  and  C_21
REMARK   10  A    between atoms: C_24  and  O_25
REMARK   11  A    between atoms: O_25  and  C_26
REMARK   12  A    between atoms: C_27  and  O_28
REMARK   13  A    between atoms: O_28  and  C_29
REMARK                            x       y       z     vdW  Elec       q    Type
REMARK                         _______ _______ _______ _____ _____    ______ ____
ROOT
ATOM      1  C   UNL     1       1.653   9.211  18.104  0.00  0.00    +0.000 C 
ATOM      2  O   UNL     1       2.563   9.975  17.782  0.00  0.00    +0.000 OA
ENDROOT
BRANCH   1   3
ATOM      3  C   UNL     1       1.916   8.107  19.067  0.00  0.00    +0.000 A 
ATOM      4  C   UNL     1       1.438   8.190  20.384  0.00  0.00    +0.000 A 
ATOM      5  C   UNL     1       1.363   7.031  21.149  0.00  0.00    +0.000 A 
ATOM      6  C   UNL     1       1.905   5.865  20.631  0.00  0.00    +0.000 A 
ATOM      7  C   UNL     1       2.815   5.925  19.598  0.00  0.00    +0.000 A 
ATOM      8  C   UNL     1       2.621   6.948  18.677  0.00  0.00    +0.000 A 
ATOM      9  C   UNL     1       3.768   4.828  19.510  0.00  0.00    +0.000 C 
ATOM     10  C   UNL     1       3.303   3.619  19.838  0.00  0.00    +0.000 C 
ATOM     11  C   UNL     1       1.889   3.461  20.356  0.00  0.00    +0.000 C 
ATOM     12  C   UNL     1       1.812   2.468  21.513  0.00  0.00    +0.000 C 
ATOM     13  C   UNL     1       1.031   2.943  19.184  0.00  0.00    +0.000 C 
ATOM     14  O   UNL     1       1.379   4.664  21.010  0.00  0.00    +0.000 OA
BRANCH   8  15
ATOM     15  O   UNL     1       3.007   6.688  17.385  0.00  0.00    +0.000 OA
ATOM     16  C   UNL     1       4.395   7.001  17.171  0.00  0.00    +0.000 C 
ENDBRANCH   8  15
ENDBRANCH   1   3
BRANCH   1  17
ATOM     17  C   UNL     1       0.256   9.420  17.556  0.00  0.00    +0.000 C 
BRANCH  17  20
ATOM     18  C   UNL     1      -1.128  11.772  20.237  0.00  0.00    +0.000 A 
ATOM     19  C   UNL     1      -0.370  10.765  19.599  0.00  0.00    +0.000 A 
ATOM     20  C   UNL     1      -0.748  10.220  18.366  0.00  0.00    +0.000 A 
ATOM     21  C   UNL     1      -1.970  10.629  17.834  0.00  0.00    +0.000 A 
ATOM     22  C   UNL     1      -2.774  11.611  18.453  0.00  0.00    +0.000 A 
ATOM     23  C   UNL     1      -2.347  12.196  19.675  0.00  0.00    +0.000 A 
BRANCH  18  25
ATOM     24  C   UNL     1      -0.965  11.633  22.608  0.00  0.00    +0.000 C 
ATOM     25  O   UNL     1      -0.678  12.347  21.403  0.00  0.00    +0.000 OA
ENDBRANCH  18  25
BRANCH  22  26
ATOM     26  O   UNL     1      -3.934  11.877  17.768  0.00  0.00    +0.000 OA
ATOM     27  C   UNL     1      -4.322  10.983  16.750  0.00  0.00    +0.000 C 
ENDBRANCH  22  26
BRANCH  23  28
ATOM     28  O   UNL     1      -3.208  13.122  20.202  0.00  0.00    +0.000 OA
ATOM     29  C   UNL     1      -4.236  12.764  21.110  0.00  0.00    +0.000 C 
ENDBRANCH  23  28
ENDBRANCH  17  20
ENDBRANCH   1  17
TORSDOF 7
ENDMDL
MODEL 7
REMARK VINA RESULT:      -7.4      2.556      8.122
REMARK  Name = 
REMARK  13 active torsions:
REMARK  status: ('A' for Active; 'I' for Inactive)
REMARK    1  A    between atoms: C_1  and  O_2
REMARK    2  A    between atoms: O_2  and  C_3
REMARK    3  A    between atoms: C_5  and  C_6
REMARK    4  A    between atoms: C_6  and  C_7
REMARK    5  A    between atoms: C_7  and  C_9
REMARK    6  A    between atoms: C_14  and  O_15
REMARK    7  A    between atoms: O_15  and  C_16
REMARK    8  A    between atoms: C_19  and  C_20
REMARK    9  A    between atoms: C_19  and  C_21
REMARK   10  A    between atoms: C_24  and  O_25
REMARK   11  A    between atoms: O_25  and  C_26
REMARK   12  A    between atoms: C_27  and  O_28
REMARK   13  A    between atoms: O_28  and  C_29
REMARK                            x       y       z     vdW  Elec       q    Type
REMARK                         _______ _______ _______ _____ _____    ______ ____
ROOT
ATOM      1  C   UNL     1       1.444   8.688  19.161  0.00  0.00    +0.000 C 
ATOM      2  O   UNL     1       1.188   8.692  17.958  0.00  0.00    +0.000 OA
ENDROOT
BRANCH   1   3
ATOM      3  C   UNL     1       0.556   9.410  20.112  0.00  0.00    +0.000 A 
ATOM      4  C   UNL     1       0.347   8.905  21.405  0.00  0.00    +0.000 A 
ATOM      5  C   UNL     1      -0.166   9.749  22.385  0.00  0.00    +0.000 A 
ATOM      6  C   UNL     1      -0.591  11.013  22.006  0.00  0.00    +0.000 A 
ATOM      7  C   UNL     1      -0.863  11.285  20.683  0.00  0.00    +0.000 A 
ATOM      8  C   UNL     1      -0.069  10.624  19.753  0.00  0.00    +0.000 A 
ATOM      9  C   UNL     1      -1.835  12.336  20.423  0.00  0.00    +0.000 C 
ATOM     10  C   UNL     1      -1.813  13.377  21.262  0.00  0.00    +0.000 C 
ATOM     11  C   UNL     1      -0.878  13.375  22.453  0.00  0.00    +0.000 C 
ATOM     12  C   UNL     1      -1.548  13.932  23.706  0.00  0.00    +0.000 C 
ATOM     13  C   UNL     1       0.329  14.260  22.085  0.00  0.00    +0.000 C 
ATOM     14  O   UNL     1      -0.539  12.030  22.916  0.00  0.00    +0.000 OA
BRANCH   8  15
ATOM     15  O   UNL     1       0.175  11.289  18.576  0.00  0.00    +0.000 OA
ATOM     16  C   UNL     1       1.248  12.238  18.713  0.00  0.00    +0.000 C 
ENDBRANCH   8  15
ENDBRANCH   1   3
BRANCH   1  17
ATOM     17  C   UNL     1       2.638   7.911  19.681  0.00  0.00    +0.000 C 
BRANCH  17  20
ATOM     18  C   UNL     1       1.819   4.180  19.482  0.00  0.00    +0.000 A 
ATOM     19  C   UNL     1       1.975   5.493  19.978  0.00  0.00    +0.000 A 
ATOM     20  C   UNL     1       2.777   6.441  19.331  0.00  0.00    +0.000 A 
ATOM     21  C   UNL     1       3.513   6.010  18.229  0.00  0.00    +0.000 A 
ATOM     22  C   UNL     1       3.410   4.698  17.717  0.00  0.00    +0.000 A 
ATOM     23  C   UNL     1       2.547   3.765  18.351  0.00  0.00    +0.000 A 
BRANCH  18  25
ATOM     24  C   UNL     1       1.319   2.872  21.407  0.00  0.00    +0.000 C 
ATOM     25  O   UNL     1       0.953   3.304  20.095  0.00  0.00    +0.000 OA
ENDBRANCH  18  25
BRANCH  22  26
ATOM     26  O   UNL     1       4.211   4.475  16.624  0.00  0.00    +0.000 OA
ATOM     27  C   UNL     1       5.606   4.584  16.791  0.00  0.00    +0.000 C 
ENDBRANCH  22  26
BRANCH  23  28
ATOM     28  O   UNL     1       2.536   2.516  17.789  0.00  0.00    +0.000 OA
ATOM     29  C   UNL     1       3.414   1.489  18.217  0.00  0.00    +0.000 C 
ENDBRANCH  23  28
ENDBRANCH  17  20
ENDBRANCH   1  17
TORSDOF 7
ENDMDL
MODEL 8
REMARK VINA RESULT:      -7.4      0.303      2.423
REMARK  Name = 
REMARK  13 active torsions:
REMARK  status: ('A' for Active; 'I' for Inactive)
REMARK    1  A    between atoms: C_1  and  O_2
REMARK    2  A    between atoms: O_2  and  C_3
REMARK    3  A    between atoms: C_5  and  C_6
REMARK    4  A    between atoms: C_6  and  C_7
REMARK    5  A    between atoms: C_7  and  C_9
REMARK    6  A    between atoms: C_14  and  O_15
REMARK    7  A    between atoms: O_15  and  C_16
REMARK    8  A    between atoms: C_19  and  C_20
REMARK    9  A    between atoms: C_19  and  C_21
REMARK   10  A    between atoms: C_24  and  O_25
REMARK   11  A    between atoms: O_25  and  C_26
REMARK   12  A    between atoms: C_27  and  O_28
REMARK   13  A    between atoms: O_28  and  C_29
REMARK                            x       y       z     vdW  Elec       q    Type
REMARK                         _______ _______ _______ _____ _____    ______ ____
ROOT
ATOM      1  C   UNL     1       1.747   9.359  18.267  0.00  0.00    +0.000 C 
ATOM      2  O   UNL     1       2.093   9.278  17.088  0.00  0.00    +0.000 OA
ENDROOT
BRANCH   1   3
ATOM      3  C   UNL     1       1.946   8.202  19.181  0.00  0.00    +0.000 A 
ATOM      4  C   UNL     1       1.394   8.218  20.471  0.00  0.00    +0.000 A 
ATOM      5  C   UNL     1       1.267   7.020  21.166  0.00  0.00    +0.000 A 
ATOM      6  C   UNL     1       1.829   5.878  20.616  0.00  0.00    +0.000 A 
ATOM      7  C   UNL     1       2.797   5.984  19.641  0.00  0.00    +0.000 A 
ATOM      8  C   UNL     1       2.663   7.058  18.768  0.00  0.00    +0.000 A 
ATOM      9  C   UNL     1       3.745   4.884  19.547  0.00  0.00    +0.000 C 
ATOM     10  C   UNL     1       3.253   3.663  19.782  0.00  0.00    +0.000 C 
ATOM     11  C   UNL     1       1.811   3.493  20.209  0.00  0.00    +0.000 C 
ATOM     12  C   UNL     1       1.660   2.440  21.304  0.00  0.00    +0.000 C 
ATOM     13  C   UNL     1       1.018   3.049  18.964  0.00  0.00    +0.000 C 
ATOM     14  O   UNL     1       1.273   4.664  20.898  0.00  0.00    +0.000 OA
BRANCH   8  15
ATOM     15  O   UNL     1       3.121   6.865  17.488  0.00  0.00    +0.000 OA
ATOM     16  C   UNL     1       4.544   7.059  17.396  0.00  0.00    +0.000 C 
ENDBRANCH   8  15
ENDBRANCH   1   3
BRANCH   1  17
ATOM     17  C   UNL     1       1.159  10.651  18.799  0.00  0.00    +0.000 C 
BRANCH  17  20
ATOM     18  C   UNL     1      -2.382  10.314  17.393  0.00  0.00    +0.000 A 
ATOM     19  C   UNL     1      -0.974  10.300  17.494  0.00  0.00    +0.000 A 
ATOM     20  C   UNL     1      -0.296  10.978  18.514  0.00  0.00    +0.000 A 
ATOM     21  C   UNL     1      -1.058  11.766  19.374  0.00  0.00    +0.000 A 
ATOM     22  C   UNL     1      -2.466  11.832  19.291  0.00  0.00    +0.000 A 
ATOM     23  C   UNL     1      -3.143  11.092  18.285  0.00  0.00    +0.000 A 
BRANCH  18  25
ATOM     24  C   UNL     1      -2.884  10.025  15.084  0.00  0.00    +0.000 C 
ATOM     25  O   UNL     1      -3.017   9.564  16.430  0.00  0.00    +0.000 OA
ENDBRANCH  18  25
BRANCH  22  26
ATOM     26  O   UNL     1      -3.030  12.659  20.232  0.00  0.00    +0.000 OA
ATOM     27  C   UNL     1      -2.334  12.859  21.441  0.00  0.00    +0.000 C 
ENDBRANCH  22  26
BRANCH  23  28
ATOM     28  O   UNL     1      -4.505  11.242  18.278  0.00  0.00    +0.000 OA
ATOM     29  C   UNL     1      -5.178  11.968  17.263  0.00  0.00    +0.000 C 
ENDBRANCH  23  28
ENDBRANCH  17  20
ENDBRANCH   1  17
TORSDOF 7
ENDMDL
MODEL 9
REMARK VINA RESULT:      -7.3      2.676      8.550
REMARK  Name = 
REMARK  13 active torsions:
REMARK  status: ('A' for Active; 'I' for Inactive)
REMARK    1  A    between atoms: C_1  and  O_2
REMARK    2  A    between atoms: O_2  and  C_3
REMARK    3  A    between atoms: C_5  and  C_6
REMARK    4  A    between atoms: C_6  and  C_7
REMARK    5  A    between atoms: C_7  and  C_9
REMARK    6  A    between atoms: C_14  and  O_15
REMARK    7  A    between atoms: O_15  and  C_16
REMARK    8  A    between atoms: C_19  and  C_20
REMARK    9  A    between atoms: C_19  and  C_21
REMARK   10  A    between atoms: C_24  and  O_25
REMARK   11  A    between atoms: O_25  and  C_26
REMARK   12  A    between atoms: C_27  and  O_28
REMARK   13  A    between atoms: O_28  and  C_29
REMARK                            x       y       z     vdW  Elec       q    Type
REMARK                         _______ _______ _______ _____ _____    ______ ____
ROOT
ATOM      1  C   UNL     1       0.998   8.947  20.069  0.00  0.00    +0.000 C 
ATOM      2  O   UNL     1       0.992   9.055  18.843  0.00  0.00    +0.000 OA
ENDROOT
BRANCH   1   3
ATOM      3  C   UNL     1       0.070   9.768  20.892  0.00  0.00    +0.000 A 
ATOM      4  C   UNL     1      -0.281   9.353  22.187  0.00  0.00    +0.000 A 
ATOM      5  C   UNL     1      -0.833  10.279  23.065  0.00  0.00    +0.000 A 
ATOM      6  C   UNL     1      -1.153  11.537  22.579  0.00  0.00    +0.000 A 
ATOM      7  C   UNL     1      -1.291  11.741  21.223  0.00  0.00    +0.000 A 
ATOM      8  C   UNL     1      -0.454  10.987  20.409  0.00  0.00    +0.000 A 
ATOM      9  C   UNL     1      -2.178  12.821  20.817  0.00  0.00    +0.000 C 
ATOM     10  C   UNL     1      -2.174  13.908  21.595  0.00  0.00    +0.000 C 
ATOM     11  C   UNL     1      -1.351  13.932  22.865  0.00  0.00    +0.000 C 
ATOM     12  C   UNL     1      -2.098  14.597  24.018  0.00  0.00    +0.000 C 
ATOM     13  C   UNL     1      -0.070  14.734  22.560  0.00  0.00    +0.000 C 
ATOM     14  O   UNL     1      -1.128  12.604  23.431  0.00  0.00    +0.000 OA
BRANCH   8  15
ATOM     15  O   UNL     1      -0.070  11.566  19.224  0.00  0.00    +0.000 OA
ATOM     16  C   UNL     1       1.008  12.499  19.413  0.00  0.00    +0.000 C 
ENDBRANCH   8  15
ENDBRANCH   1   3
BRANCH   1  17
ATOM     17  C   UNL     1       1.920   7.947  20.738  0.00  0.00    +0.000 C 
BRANCH  17  20
ATOM     18  C   UNL     1       3.753   5.196  18.813  0.00  0.00    +0.000 A 
ATOM     19  C   UNL     1       3.271   6.464  19.204  0.00  0.00    +0.000 A 
ATOM     20  C   UNL     1       2.178   6.610  20.067  0.00  0.00    +0.000 A 
ATOM     21  C   UNL     1       1.505   5.450  20.447  0.00  0.00    +0.000 A 
ATOM     22  C   UNL     1       1.935   4.163  20.055  0.00  0.00    +0.000 A 
ATOM     23  C   UNL     1       3.081   4.031  19.226  0.00  0.00    +0.000 A 
BRANCH  18  25
ATOM     24  C   UNL     1       4.683   5.164  16.622  0.00  0.00    +0.000 C 
ATOM     25  O   UNL     1       4.883   5.092  18.035  0.00  0.00    +0.000 OA
ENDBRANCH  18  25
BRANCH  22  26
ATOM     26  O   UNL     1       1.140   3.153  20.538  0.00  0.00    +0.000 OA
ATOM     27  C   UNL     1       1.492   2.563  21.769  0.00  0.00    +0.000 C 
ENDBRANCH  22  26
BRANCH  23  28
ATOM     28  O   UNL     1       3.400   2.742  18.887  0.00  0.00    +0.000 OA
ATOM     29  C   UNL     1       2.826   2.093  17.765  0.00  0.00    +0.000 C 
ENDBRANCH  23  28
ENDBRANCH  17  20
ENDBRANCH   1  17
TORSDOF 7
ENDMDL
