MODEL 1
REMARK VINA RESULT:      -7.9      0.000      0.000
REMARK  Name = 
REMARK  2 active torsions:
REMARK  status: ('A' for Active; 'I' for Inactive)
REMARK    1  A    between atoms: C_1  and  C_2
REMARK    2  A    between atoms: C_8  and  C_9
REMARK                            x       y       z     vdW  Elec       q    Type
REMARK                         _______ _______ _______ _____ _____    ______ ____
ROOT
ATOM      1  C   UNL     1       8.370   8.651  17.547  0.00  0.00    +0.000 C 
ATOM      2  C   UNL     1       7.634   7.390  17.881  0.00  0.00    +0.000 A 
ATOM      3  C   UNL     1       7.908   6.682  19.049  0.00  0.00    +0.000 A 
ATOM      4  C   UNL     1       7.210   5.512  19.343  0.00  0.00    +0.000 A 
ATOM      5  C   UNL     1       6.209   5.035  18.487  0.00  0.00    +0.000 A 
ATOM      6  C   UNL     1       5.972   5.699  17.271  0.00  0.00    +0.000 A 
ATOM      7  C   UNL     1       6.663   6.894  16.999  0.00  0.00    +0.000 A 
ATOM      8  C   UNL     1       4.925   5.176  16.298  0.00  0.00    +0.000 C 
ATOM      9  C   UNL     1       5.478   5.043  14.874  0.00  0.00    +0.000 C 
ATOM     10  C   UNL     1       4.330   3.818  16.733  0.00  0.00    +0.000 C 
ATOM     11  C   UNL     1       4.178   3.709  18.264  0.00  0.00    +0.000 C 
ATOM     12  C   UNL     1       3.186   4.760  18.821  0.00  0.00    +0.000 C 
ATOM     13  C   UNL     1       2.949   4.618  20.324  0.00  0.00    +0.000 C 
ATOM     14  C   UNL     1       2.470   3.218  20.684  0.00  0.00    +0.000 C 
ATOM     15  C   UNL     1       3.403   2.139  20.147  0.00  0.00    +0.000 C 
ATOM     16  C   UNL     1       3.668   2.297  18.645  0.00  0.00    +0.000 C 
ATOM     17  N   UNL     1       5.525   3.870  18.829  0.00  0.00    +0.000 N 
ATOM     18  H   UNL     1       5.618   3.623  19.807  0.00  0.00    +0.000 HD
ENDROOT
TORSDOF 0
ENDMDL
MODEL 2
REMARK VINA RESULT:      -7.8      3.016      4.160
REMARK  Name = 
REMARK  2 active torsions:
REMARK  status: ('A' for Active; 'I' for Inactive)
REMARK    1  A    between atoms: C_1  and  C_2
REMARK    2  A    between atoms: C_8  and  C_9
REMARK                            x       y       z     vdW  Elec       q    Type
REMARK                         _______ _______ _______ _____ _____    ______ ____
ROOT
ATOM      1  C   UNL     1       1.049  10.565  18.024  0.00  0.00    +0.000 C 
ATOM      2  C   UNL     1       1.517   9.287  18.647  0.00  0.00    +0.000 A 
ATOM      3  C   UNL     1       1.254   8.997  19.984  0.00  0.00    +0.000 A 
ATOM      4  C   UNL     1       1.696   7.799  20.544  0.00  0.00    +0.000 A 
ATOM      5  C   UNL     1       2.392   6.857  19.777  0.00  0.00    +0.000 A 
ATOM      6  C   UNL     1       2.728   7.169  18.447  0.00  0.00    +0.000 A 
ATOM      7  C   UNL     1       2.251   8.367  17.885  0.00  0.00    +0.000 A 
ATOM      8  C   UNL     1       3.526   6.185  17.603  0.00  0.00    +0.000 C 
ATOM      9  C   UNL     1       4.729   6.854  16.925  0.00  0.00    +0.000 C 
ATOM     10  C   UNL     1       4.022   4.967  18.414  0.00  0.00    +0.000 C 
ATOM     11  C   UNL     1       3.002   4.517  19.480  0.00  0.00    +0.000 C 
ATOM     12  C   UNL     1       1.674   4.041  18.842  0.00  0.00    +0.000 C 
ATOM     13  C   UNL     1       0.677   3.507  19.869  0.00  0.00    +0.000 C 
ATOM     14  C   UNL     1       1.279   2.384  20.702  0.00  0.00    +0.000 C 
ATOM     15  C   UNL     1       2.600   2.794  21.344  0.00  0.00    +0.000 C 
ATOM     16  C   UNL     1       3.592   3.358  20.320  0.00  0.00    +0.000 C 
ATOM     17  N   UNL     1       2.801   5.667  20.374  0.00  0.00    +0.000 N 
ATOM     18  H   UNL     1       2.313   5.464  21.238  0.00  0.00    +0.000 HD
ENDROOT
TORSDOF 0
ENDMDL
MODEL 3
REMARK VINA RESULT:      -7.7      2.262      5.049
REMARK  Name = 
REMARK  2 active torsions:
REMARK  status: ('A' for Active; 'I' for Inactive)
REMARK    1  A    between atoms: C_1  and  C_2
REMARK    2  A    between atoms: C_8  and  C_9
REMARK                            x       y       z     vdW  Elec       q    Type
REMARK                         _______ _______ _______ _____ _____    ______ ____
ROOT
ATOM      1  C   UNL     1       0.811   8.705  21.557  0.00  0.00    +0.000 C 
ATOM      2  C   UNL     1       1.495   7.871  20.518  0.00  0.00    +0.000 A 
ATOM      3  C   UNL     1       1.930   8.427  19.318  0.00  0.00    +0.000 A 
ATOM      4  C   UNL     1       2.567   7.634  18.365  0.00  0.00    +0.000 A 
ATOM      5  C   UNL     1       2.802   6.274  18.599  0.00  0.00    +0.000 A 
ATOM      6  C   UNL     1       2.304   5.684  19.774  0.00  0.00    +0.000 A 
ATOM      7  C   UNL     1       1.689   6.500  20.740  0.00  0.00    +0.000 A 
ATOM      8  C   UNL     1       2.500   4.197  20.033  0.00  0.00    +0.000 C 
ATOM      9  C   UNL     1       1.188   3.501  20.415  0.00  0.00    +0.000 C 
ATOM     10  C   UNL     1       3.127   3.458  18.829  0.00  0.00    +0.000 C 
ATOM     11  C   UNL     1       4.167   4.322  18.088  0.00  0.00    +0.000 C 
ATOM     12  C   UNL     1       5.373   4.675  18.993  0.00  0.00    +0.000 C 
ATOM     13  C   UNL     1       6.461   5.456  18.258  0.00  0.00    +0.000 C 
ATOM     14  C   UNL     1       6.947   4.711  17.022  0.00  0.00    +0.000 C 
ATOM     15  C   UNL     1       5.796   4.325  16.099  0.00  0.00    +0.000 C 
ATOM     16  C   UNL     1       4.688   3.567  16.840  0.00  0.00    +0.000 C 
ATOM     17  N   UNL     1       3.456   5.523  17.625  0.00  0.00    +0.000 N 
ATOM     18  H   UNL     1       3.957   6.090  16.951  0.00  0.00    +0.000 HD
ENDROOT
TORSDOF 0
ENDMDL
MODEL 4
REMARK VINA RESULT:      -7.3      1.189      5.266
REMARK  Name = 
REMARK  2 active torsions:
REMARK  status: ('A' for Active; 'I' for Inactive)
REMARK    1  A    between atoms: C_1  and  C_2
REMARK    2  A    between atoms: C_8  and  C_9
REMARK                            x       y       z     vdW  Elec       q    Type
REMARK                         _______ _______ _______ _____ _____    ______ ____
ROOT
ATOM      1  C   UNL     1       1.258   2.548  21.900  0.00  0.00    +0.000 C 
ATOM      2  C   UNL     1       2.032   3.416  20.957  0.00  0.00    +0.000 A 
ATOM      3  C   UNL     1       2.186   4.779  21.193  0.00  0.00    +0.000 A 
ATOM      4  C   UNL     1       2.913   5.570  20.304  0.00  0.00    +0.000 A 
ATOM      5  C   UNL     1       3.519   5.012  19.172  0.00  0.00    +0.000 A 
ATOM      6  C   UNL     1       3.311   3.651  18.883  0.00  0.00    +0.000 A 
ATOM      7  C   UNL     1       2.600   2.858  19.802  0.00  0.00    +0.000 A 
ATOM      8  C   UNL     1       3.916   3.027  17.633  0.00  0.00    +0.000 C 
ATOM      9  C   UNL     1       2.876   2.246  16.819  0.00  0.00    +0.000 C 
ATOM     10  C   UNL     1       4.594   4.067  16.714  0.00  0.00    +0.000 C 
ATOM     11  C   UNL     1       5.293   5.188  17.511  0.00  0.00    +0.000 C 
ATOM     12  C   UNL     1       6.446   4.638  18.386  0.00  0.00    +0.000 C 
ATOM     13  C   UNL     1       7.212   5.737  19.120  0.00  0.00    +0.000 C 
ATOM     14  C   UNL     1       7.754   6.782  18.153  0.00  0.00    +0.000 C 
ATOM     15  C   UNL     1       6.661   7.348  17.254  0.00  0.00    +0.000 C 
ATOM     16  C   UNL     1       5.869   6.247  16.540  0.00  0.00    +0.000 C 
ATOM     17  N   UNL     1       4.249   5.836  18.319  0.00  0.00    +0.000 N 
ATOM     18  H   UNL     1       4.515   6.717  18.744  0.00  0.00    +0.000 HD
ENDROOT
TORSDOF 0
ENDMDL
MODEL 5
REMARK VINA RESULT:      -7.2      1.660      5.301
REMARK  Name = 
REMARK  2 active torsions:
REMARK  status: ('A' for Active; 'I' for Inactive)
REMARK    1  A    between atoms: C_1  and  C_2
REMARK    2  A    between atoms: C_8  and  C_9
REMARK                            x       y       z     vdW  Elec       q    Type
REMARK                         _______ _______ _______ _____ _____    ______ ____
ROOT
ATOM      1  C   UNL     1       1.092   2.707  21.190  0.00  0.00    +0.000 C 
ATOM      2  C   UNL     1       2.254   3.280  20.439  0.00  0.00    +0.000 A 
ATOM      3  C   UNL     1       3.505   2.671  20.472  0.00  0.00    +0.000 A 
ATOM      4  C   UNL     1       4.573   3.219  19.763  0.00  0.00    +0.000 A 
ATOM      5  C   UNL     1       4.409   4.375  18.990  0.00  0.00    +0.000 A 
ATOM      6  C   UNL     1       3.170   5.040  19.006  0.00  0.00    +0.000 A 
ATOM      7  C   UNL     1       2.093   4.462  19.701  0.00  0.00    +0.000 A 
ATOM      8  C   UNL     1       2.976   6.326  18.215  0.00  0.00    +0.000 C 
ATOM      9  C   UNL     1       2.365   7.442  19.072  0.00  0.00    +0.000 C 
ATOM     10  C   UNL     1       4.287   6.843  17.582  0.00  0.00    +0.000 C 
ATOM     11  C   UNL     1       5.198   5.694  17.100  0.00  0.00    +0.000 C 
ATOM     12  C   UNL     1       4.530   4.862  15.978  0.00  0.00    +0.000 C 
ATOM     13  C   UNL     1       5.443   3.772  15.421  0.00  0.00    +0.000 C 
ATOM     14  C   UNL     1       6.760   4.349  14.918  0.00  0.00    +0.000 C 
ATOM     15  C   UNL     1       7.456   5.192  15.980  0.00  0.00    +0.000 C 
ATOM     16  C   UNL     1       6.532   6.268  16.564  0.00  0.00    +0.000 C 
ATOM     17  N   UNL     1       5.500   4.878  18.285  0.00  0.00    +0.000 N 
ATOM     18  H   UNL     1       6.247   4.204  18.168  0.00  0.00    +0.000 HD
ENDROOT
TORSDOF 0
ENDMDL
MODEL 6
REMARK VINA RESULT:      -7.1      1.804      5.617
REMARK  Name = 
REMARK  2 active torsions:
REMARK  status: ('A' for Active; 'I' for Inactive)
REMARK    1  A    between atoms: C_1  and  C_2
REMARK    2  A    between atoms: C_8  and  C_9
REMARK                            x       y       z     vdW  Elec       q    Type
REMARK                         _______ _______ _______ _____ _____    ______ ____
ROOT
ATOM      1  C   UNL     1       0.333   2.131  18.959  0.00  0.00    +0.000 C 
ATOM      2  C   UNL     1       1.674   2.688  18.591  0.00  0.00    +0.000 A 
ATOM      3  C   UNL     1       2.791   1.864  18.477  0.00  0.00    +0.000 A 
ATOM      4  C   UNL     1       4.029   2.402  18.130  0.00  0.00    +0.000 A 
ATOM      5  C   UNL     1       4.174   3.770  17.870  0.00  0.00    +0.000 A 
ATOM      6  C   UNL     1       3.072   4.624  18.052  0.00  0.00    +0.000 A 
ATOM      7  C   UNL     1       1.821   4.066  18.374  0.00  0.00    +0.000 A 
ATOM      8  C   UNL     1       3.211   6.123  17.825  0.00  0.00    +0.000 C 
ATOM      9  C   UNL     1       2.664   6.937  19.004  0.00  0.00    +0.000 C 
ATOM     10  C   UNL     1       4.670   6.553  17.553  0.00  0.00    +0.000 C 
ATOM     11  C   UNL     1       5.446   5.506  16.728  0.00  0.00    +0.000 C 
ATOM     12  C   UNL     1       4.834   5.314  15.319  0.00  0.00    +0.000 C 
ATOM     13  C   UNL     1       5.634   4.347  14.448  0.00  0.00    +0.000 C 
ATOM     14  C   UNL     1       7.088   4.782  14.321  0.00  0.00    +0.000 C 
ATOM     15  C   UNL     1       7.739   5.001  15.682  0.00  0.00    +0.000 C 
ATOM     16  C   UNL     1       6.923   5.946  16.571  0.00  0.00    +0.000 C 
ATOM     17  N   UNL     1       5.427   4.262  17.511  0.00  0.00    +0.000 N 
ATOM     18  H   UNL     1       6.065   3.541  17.195  0.00  0.00    +0.000 HD
ENDROOT
TORSDOF 0
ENDMDL
MODEL 7
REMARK VINA RESULT:      -7.0      1.771      2.541
REMARK  Name = 
REMARK  2 active torsions:
REMARK  status: ('A' for Active; 'I' for Inactive)
REMARK    1  A    between atoms: C_1  and  C_2
REMARK    2  A    between atoms: C_8  and  C_9
REMARK                            x       y       z     vdW  Elec       q    Type
REMARK                         _______ _______ _______ _____ _____    ______ ____
ROOT
ATOM      1  C   UNL     1       7.927   7.682  17.295  0.00  0.00    +0.000 C 
ATOM      2  C   UNL     1       6.736   6.775  17.323  0.00  0.00    +0.000 A 
ATOM      3  C   UNL     1       6.821   5.460  16.872  0.00  0.00    +0.000 A 
ATOM      4  C   UNL     1       5.701   4.630  16.910  0.00  0.00    +0.000 A 
ATOM      5  C   UNL     1       4.479   5.090  17.417  0.00  0.00    +0.000 A 
ATOM      6  C   UNL     1       4.361   6.435  17.807  0.00  0.00    +0.000 A 
ATOM      7  C   UNL     1       5.505   7.254  17.792  0.00  0.00    +0.000 A 
ATOM      8  C   UNL     1       3.032   6.977  18.316  0.00  0.00    +0.000 C 
ATOM      9  C   UNL     1       2.628   8.273  17.602  0.00  0.00    +0.000 C 
ATOM     10  C   UNL     1       1.882   5.954  18.187  0.00  0.00    +0.000 C 
ATOM     11  C   UNL     1       2.350   4.508  18.448  0.00  0.00    +0.000 C 
ATOM     12  C   UNL     1       2.869   4.323  19.895  0.00  0.00    +0.000 C 
ATOM     13  C   UNL     1       3.258   2.879  20.209  0.00  0.00    +0.000 C 
ATOM     14  C   UNL     1       2.103   1.920  19.950  0.00  0.00    +0.000 C 
ATOM     15  C   UNL     1       1.542   2.070  18.541  0.00  0.00    +0.000 C 
ATOM     16  C   UNL     1       1.179   3.522  18.211  0.00  0.00    +0.000 C 
ATOM     17  N   UNL     1       3.391   4.221  17.449  0.00  0.00    +0.000 N 
ATOM     18  H   UNL     1       3.653   3.246  17.365  0.00  0.00    +0.000 HD
ENDROOT
TORSDOF 0
ENDMDL
MODEL 8
REMARK VINA RESULT:      -6.9      2.202      3.313
REMARK  Name = 
REMARK  2 active torsions:
REMARK  status: ('A' for Active; 'I' for Inactive)
REMARK    1  A    between atoms: C_1  and  C_2
REMARK    2  A    between atoms: C_8  and  C_9
REMARK                            x       y       z     vdW  Elec       q    Type
REMARK                         _______ _______ _______ _____ _____    ______ ____
ROOT
ATOM      1  C   UNL     1       7.061   5.286  15.174  0.00  0.00    +0.000 C 
ATOM      2  C   UNL     1       5.834   4.939  15.960  0.00  0.00    +0.000 A 
ATOM      3  C   UNL     1       5.261   3.673  15.879  0.00  0.00    +0.000 A 
ATOM      4  C   UNL     1       4.120   3.368  16.622  0.00  0.00    +0.000 A 
ATOM      5  C   UNL     1       3.541   4.315  17.475  0.00  0.00    +0.000 A 
ATOM      6  C   UNL     1       4.066   5.619  17.510  0.00  0.00    +0.000 A 
ATOM      7  C   UNL     1       5.234   5.905  16.780  0.00  0.00    +0.000 A 
ATOM      8  C   UNL     1       3.428   6.684  18.391  0.00  0.00    +0.000 C 
ATOM      9  C   UNL     1       3.148   7.979  17.617  0.00  0.00    +0.000 C 
ATOM     10  C   UNL     1       2.118   6.204  19.055  0.00  0.00    +0.000 C 
ATOM     11  C   UNL     1       2.172   4.714  19.450  0.00  0.00    +0.000 C 
ATOM     12  C   UNL     1       3.265   4.440  20.513  0.00  0.00    +0.000 C 
ATOM     13  C   UNL     1       3.283   2.989  20.988  0.00  0.00    +0.000 C 
ATOM     14  C   UNL     1       1.924   2.559  21.526  0.00  0.00    +0.000 C 
ATOM     15  C   UNL     1       0.805   2.820  20.523  0.00  0.00    +0.000 C 
ATOM     16  C   UNL     1       0.803   4.269  20.020  0.00  0.00    +0.000 C 
ATOM     17  N   UNL     1       2.411   3.963  18.209  0.00  0.00    +0.000 N 
ATOM     18  H   UNL     1       2.273   2.961  18.276  0.00  0.00    +0.000 HD
ENDROOT
TORSDOF 0
ENDMDL
MODEL 9
REMARK VINA RESULT:      -6.9      2.217      3.755
REMARK  Name = 
REMARK  2 active torsions:
REMARK  status: ('A' for Active; 'I' for Inactive)
REMARK    1  A    between atoms: C_1  and  C_2
REMARK    2  A    between atoms: C_8  and  C_9
REMARK                            x       y       z     vdW  Elec       q    Type
REMARK                         _______ _______ _______ _____ _____    ______ ____
ROOT
ATOM      1  C   UNL     1       7.015   4.317  15.050  0.00  0.00    +0.000 C 
ATOM      2  C   UNL     1       6.161   4.735  16.207  0.00  0.00    +0.000 A 
ATOM      3  C   UNL     1       6.639   5.616  17.174  0.00  0.00    +0.000 A 
ATOM      4  C   UNL     1       5.827   5.996  18.242  0.00  0.00    +0.000 A 
ATOM      5  C   UNL     1       4.515   5.521  18.355  0.00  0.00    +0.000 A 
ATOM      6  C   UNL     1       4.045   4.575  17.426  0.00  0.00    +0.000 A 
ATOM      7  C   UNL     1       4.863   4.222  16.337  0.00  0.00    +0.000 A 
ATOM      8  C   UNL     1       2.640   4.003  17.552  0.00  0.00    +0.000 C 
ATOM      9  C   UNL     1       2.635   2.470  17.485  0.00  0.00    +0.000 C 
ATOM     10  C   UNL     1       1.926   4.451  18.847  0.00  0.00    +0.000 C 
ATOM     11  C   UNL     1       2.277   5.901  19.238  0.00  0.00    +0.000 C 
ATOM     12  C   UNL     1       1.805   6.916  18.169  0.00  0.00    +0.000 C 
ATOM     13  C   UNL     1       2.061   8.367  18.571  0.00  0.00    +0.000 C 
ATOM     14  C   UNL     1       1.417   8.698  19.912  0.00  0.00    +0.000 C 
ATOM     15  C   UNL     1       1.836   7.718  21.002  0.00  0.00    +0.000 C 
ATOM     16  C   UNL     1       1.610   6.259  20.590  0.00  0.00    +0.000 C 
ATOM     17  N   UNL     1       3.734   5.939  19.429  0.00  0.00    +0.000 N 
ATOM     18  H   UNL     1       4.089   6.773  19.883  0.00  0.00    +0.000 HD
ENDROOT
TORSDOF 0
ENDMDL
