MODEL 1
REMARK VINA RESULT:      -8.0      0.000      0.000
REMARK  Name = 
REMARK  6 active torsions:
REMARK  status: ('A' for Active; 'I' for Inactive)
REMARK    1  A    between atoms: C_1  and  C_2
REMARK    2  A    between atoms: C_4  and  N_5
REMARK    3  A    between atoms: N_5  and  C_6
REMARK    4  A    between atoms: C_6  and  C_7
REMARK    5  A    between atoms: C_7  and  C_8
REMARK    6  A    between atoms: C_16  and  C_17
REMARK                            x       y       z     vdW  Elec       q    Type
REMARK                         _______ _______ _______ _____ _____    ______ ____
ROOT
ATOM      1  C   UNL     1       1.237   2.900  20.881  0.00  0.00    +0.000 C 
ATOM      2  C   UNL     1       2.213   3.880  20.306  0.00  0.00    +0.000 A 
ATOM      3  C   UNL     1       3.522   3.524  20.049  0.00  0.00    +0.000 A 
ATOM      4  C   UNL     1       4.380   4.524  19.630  0.00  0.00    +0.000 A 
ATOM      5  N   UNL     1       3.955   5.782  19.436  0.00  0.00    +0.000 NA
ATOM      6  C   UNL     1       2.651   6.037  19.665  0.00  0.00    +0.000 A 
ATOM      7  N   UNL     1       1.762   5.130  20.104  0.00  0.00    +0.000 NA
ENDROOT
BRANCH   6   8
ATOM      8  C   UNL     1       2.160   7.415  19.435  0.00  0.00    +0.000 A 
ATOM      9  C   UNL     1       2.344   8.063  18.199  0.00  0.00    +0.000 A 
ATOM     10  C   UNL     1       1.870   9.361  17.971  0.00  0.00    +0.000 A 
ATOM     11  C   UNL     1       1.207  10.048  18.985  0.00  0.00    +0.000 A 
ATOM     12 CL   UNL     1       0.637  11.642  18.638  0.00  0.00    +0.000 Cl
ATOM     13  C   UNL     1       1.014   9.434  20.224  0.00  0.00    +0.000 A 
ATOM     14 CL   UNL     1       0.204  10.224  21.532  0.00  0.00    +0.000 Cl
ATOM     15  C   UNL     1       1.488   8.134  20.444  0.00  0.00    +0.000 A 
ENDBRANCH   6   8
BRANCH   4  16
ATOM     16  N   UNL     1       5.734   4.191  19.438  0.00  0.00    +0.000 N 
ATOM     17  H   UNL     1       5.829   3.614  18.608  0.00  0.00    +0.000 HD
BRANCH  16  18
ATOM     18  C   UNL     1       6.667   5.318  19.499  0.00  0.00    +0.000 C 
BRANCH  18  19
ATOM     19  C   UNL     1       7.559   5.341  18.251  0.00  0.00    +0.000 C 
BRANCH  19  20
ATOM     20  C   UNL     1       6.755   5.425  16.976  0.00  0.00    +0.000 A 
ATOM     21  C   UNL     1       5.892   6.495  16.723  0.00  0.00    +0.000 A 
ATOM     22  C   UNL     1       5.183   6.556  15.525  0.00  0.00    +0.000 A 
ATOM     23  C   UNL     1       5.340   5.544  14.581  0.00  0.00    +0.000 A 
ATOM     24  N   UNL     1       6.189   4.476  14.804  0.00  0.00    +0.000 N 
ATOM     25  O   UNL     1       6.324   3.560  13.938  0.00  0.00    +0.000 OA
ATOM     26  C   UNL     1       6.888   4.429  16.000  0.00  0.00    +0.000 A 
ENDBRANCH  19  20
ENDBRANCH  18  19
ENDBRANCH  16  18
ENDBRANCH   4  16
TORSDOF 5
ENDMDL
MODEL 2
REMARK VINA RESULT:      -7.8      1.923      2.548
REMARK  Name = 
REMARK  6 active torsions:
REMARK  status: ('A' for Active; 'I' for Inactive)
REMARK    1  A    between atoms: C_1  and  C_2
REMARK    2  A    between atoms: C_4  and  N_5
REMARK    3  A    between atoms: N_5  and  C_6
REMARK    4  A    between atoms: C_6  and  C_7
REMARK    5  A    between atoms: C_7  and  C_8
REMARK    6  A    between atoms: C_16  and  C_17
REMARK                            x       y       z     vdW  Elec       q    Type
REMARK                         _______ _______ _______ _____ _____    ______ ____
ROOT
ATOM      1  C   UNL     1       1.151   2.552  20.342  0.00  0.00    +0.000 C 
ATOM      2  C   UNL     1       1.938   3.438  19.426  0.00  0.00    +0.000 A 
ATOM      3  C   UNL     1       2.911   2.926  18.591  0.00  0.00    +0.000 A 
ATOM      4  C   UNL     1       3.667   3.831  17.868  0.00  0.00    +0.000 A 
ATOM      5  N   UNL     1       3.439   5.152  17.937  0.00  0.00    +0.000 NA
ATOM      6  C   UNL     1       2.439   5.568  18.741  0.00  0.00    +0.000 A 
ATOM      7  N   UNL     1       1.683   4.756  19.498  0.00  0.00    +0.000 NA
ENDROOT
BRANCH   6   8
ATOM      8  C   UNL     1       2.161   7.020  18.812  0.00  0.00    +0.000 A 
ATOM      9  C   UNL     1       2.385   7.865  17.708  0.00  0.00    +0.000 A 
ATOM     10  C   UNL     1       2.110   9.237  17.764  0.00  0.00    +0.000 A 
ATOM     11  C   UNL     1       1.613   9.800  18.938  0.00  0.00    +0.000 A 
ATOM     12 CL   UNL     1       1.284  11.496  18.940  0.00  0.00    +0.000 Cl
ATOM     13  C   UNL     1       1.385   8.989  20.050  0.00  0.00    +0.000 A 
ATOM     14 CL   UNL     1       0.774   9.614  21.542  0.00  0.00    +0.000 Cl
ATOM     15  C   UNL     1       1.660   7.616  19.986  0.00  0.00    +0.000 A 
ENDBRANCH   6   8
BRANCH   4  16
ATOM     16  N   UNL     1       4.712   3.328  17.072  0.00  0.00    +0.000 N 
ATOM     17  H   UNL     1       4.539   2.349  16.861  0.00  0.00    +0.000 HD
BRANCH  16  18
ATOM     18  C   UNL     1       5.055   4.144  15.906  0.00  0.00    +0.000 C 
BRANCH  18  19
ATOM     19  C   UNL     1       6.577   4.306  15.797  0.00  0.00    +0.000 C 
BRANCH  19  20
ATOM     20  C   UNL     1       7.125   5.272  16.819  0.00  0.00    +0.000 A 
ATOM     21  C   UNL     1       7.166   6.648  16.577  0.00  0.00    +0.000 A 
ATOM     22  C   UNL     1       7.653   7.517  17.550  0.00  0.00    +0.000 A 
ATOM     23  C   UNL     1       8.099   7.006  18.767  0.00  0.00    +0.000 A 
ATOM     24  N   UNL     1       8.066   5.650  19.034  0.00  0.00    +0.000 N 
ATOM     25  O   UNL     1       8.474   5.195  20.145  0.00  0.00    +0.000 OA
ATOM     26  C   UNL     1       7.577   4.798  18.057  0.00  0.00    +0.000 A 
ENDBRANCH  19  20
ENDBRANCH  18  19
ENDBRANCH  16  18
ENDBRANCH   4  16
TORSDOF 5
ENDMDL
MODEL 3
REMARK VINA RESULT:      -7.8      0.886      1.559
REMARK  Name = 
REMARK  6 active torsions:
REMARK  status: ('A' for Active; 'I' for Inactive)
REMARK    1  A    between atoms: C_1  and  C_2
REMARK    2  A    between atoms: C_4  and  N_5
REMARK    3  A    between atoms: N_5  and  C_6
REMARK    4  A    between atoms: C_6  and  C_7
REMARK    5  A    between atoms: C_7  and  C_8
REMARK    6  A    between atoms: C_16  and  C_17
REMARK                            x       y       z     vdW  Elec       q    Type
REMARK                         _______ _______ _______ _____ _____    ______ ____
ROOT
ATOM      1  C   UNL     1       1.622   2.092  18.959  0.00  0.00    +0.000 C 
ATOM      2  C   UNL     1       2.538   3.272  19.081  0.00  0.00    +0.000 A 
ATOM      3  C   UNL     1       3.909   3.126  19.014  0.00  0.00    +0.000 A 
ATOM      4  C   UNL     1       4.678   4.251  19.254  0.00  0.00    +0.000 A 
ATOM      5  N   UNL     1       4.119   5.447  19.499  0.00  0.00    +0.000 NA
ATOM      6  C   UNL     1       2.773   5.513  19.501  0.00  0.00    +0.000 A 
ATOM      7  N   UNL     1       1.957   4.463  19.309  0.00  0.00    +0.000 NA
ENDROOT
BRANCH   6   8
ATOM      8  C   UNL     1       2.141   6.829  19.748  0.00  0.00    +0.000 A 
ATOM      9  C   UNL     1       1.434   7.092  20.936  0.00  0.00    +0.000 A 
ATOM     10  C   UNL     1       0.846   8.339  21.182  0.00  0.00    +0.000 A 
ATOM     11  C   UNL     1       0.942   9.353  20.232  0.00  0.00    +0.000 A 
ATOM     12 CL   UNL     1       0.204  10.872  20.598  0.00  0.00    +0.000 Cl
ATOM     13  C   UNL     1       1.632   9.121  19.041  0.00  0.00    +0.000 A 
ATOM     14 CL   UNL     1       1.791  10.327  17.812  0.00  0.00    +0.000 Cl
ATOM     15  C   UNL     1       2.220   7.871  18.804  0.00  0.00    +0.000 A 
ENDBRANCH   6   8
BRANCH   4  16
ATOM     16  N   UNL     1       6.077   4.101  19.264  0.00  0.00    +0.000 N 
ATOM     17  H   UNL     1       6.371   3.581  18.442  0.00  0.00    +0.000 HD
BRANCH  16  18
ATOM     18  C   UNL     1       6.833   5.331  19.502  0.00  0.00    +0.000 C 
BRANCH  18  19
ATOM     19  C   UNL     1       7.651   5.704  18.258  0.00  0.00    +0.000 C 
BRANCH  19  20
ATOM     20  C   UNL     1       6.821   5.674  16.998  0.00  0.00    +0.000 A 
ATOM     21  C   UNL     1       5.851   6.646  16.737  0.00  0.00    +0.000 A 
ATOM     22  C   UNL     1       5.119   6.606  15.553  0.00  0.00    +0.000 A 
ATOM     23  C   UNL     1       5.360   5.591  14.630  0.00  0.00    +0.000 A 
ATOM     24  N   UNL     1       6.316   4.619  14.861  0.00  0.00    +0.000 N 
ATOM     25  O   UNL     1       6.527   3.699  14.014  0.00  0.00    +0.000 OA
ATOM     26  C   UNL     1       7.037   4.672  16.043  0.00  0.00    +0.000 A 
ENDBRANCH  19  20
ENDBRANCH  18  19
ENDBRANCH  16  18
ENDBRANCH   4  16
TORSDOF 5
ENDMDL
MODEL 4
REMARK VINA RESULT:      -7.7      2.107      2.853
REMARK  Name = 
REMARK  6 active torsions:
REMARK  status: ('A' for Active; 'I' for Inactive)
REMARK    1  A    between atoms: C_1  and  C_2
REMARK    2  A    between atoms: C_4  and  N_5
REMARK    3  A    between atoms: N_5  and  C_6
REMARK    4  A    between atoms: C_6  and  C_7
REMARK    5  A    between atoms: C_7  and  C_8
REMARK    6  A    between atoms: C_16  and  C_17
REMARK                            x       y       z     vdW  Elec       q    Type
REMARK                         _______ _______ _______ _____ _____    ______ ____
ROOT
ATOM      1  C   UNL     1       1.469   2.058  19.514  0.00  0.00    +0.000 C 
ATOM      2  C   UNL     1       2.201   3.102  18.728  0.00  0.00    +0.000 A 
ATOM      3  C   UNL     1       3.181   2.760  17.817  0.00  0.00    +0.000 A 
ATOM      4  C   UNL     1       3.884   3.793  17.225  0.00  0.00    +0.000 A 
ATOM      5  N   UNL     1       3.600   5.079  17.486  0.00  0.00    +0.000 NA
ATOM      6  C   UNL     1       2.598   5.328  18.353  0.00  0.00    +0.000 A 
ATOM      7  N   UNL     1       1.890   4.383  18.993  0.00  0.00    +0.000 NA
ENDROOT
BRANCH   6   8
ATOM      8  C   UNL     1       2.258   6.741  18.636  0.00  0.00    +0.000 A 
ATOM      9  C   UNL     1       2.282   7.719  17.624  0.00  0.00    +0.000 A 
ATOM     10  C   UNL     1       1.948   9.054  17.882  0.00  0.00    +0.000 A 
ATOM     11  C   UNL     1       1.592   9.446  19.171  0.00  0.00    +0.000 A 
ATOM     12 CL   UNL     1       1.181  11.104  19.423  0.00  0.00    +0.000 Cl
ATOM     13  C   UNL     1       1.564   8.500  20.197  0.00  0.00    +0.000 A 
ATOM     14 CL   UNL     1       1.136   8.909  21.822  0.00  0.00    +0.000 Cl
ATOM     15  C   UNL     1       1.897   7.165  19.930  0.00  0.00    +0.000 A 
ENDBRANCH   6   8
BRANCH   4  16
ATOM     16  N   UNL     1       4.936   3.457  16.352  0.00  0.00    +0.000 N 
ATOM     17  H   UNL     1       4.747   2.558  15.920  0.00  0.00    +0.000 HD
BRANCH  16  18
ATOM     18  C   UNL     1       5.324   4.509  15.411  0.00  0.00    +0.000 C 
BRANCH  18  19
ATOM     19  C   UNL     1       6.840   4.738  15.461  0.00  0.00    +0.000 C 
BRANCH  19  20
ATOM     20  C   UNL     1       7.265   5.484  16.702  0.00  0.00    +0.000 A 
ATOM     21  C   UNL     1       7.592   4.813  17.884  0.00  0.00    +0.000 A 
ATOM     22  C   UNL     1       8.006   5.528  19.006  0.00  0.00    +0.000 A 
ATOM     23  C   UNL     1       8.092   6.917  18.942  0.00  0.00    +0.000 A 
ATOM     24  N   UNL     1       7.779   7.605  17.784  0.00  0.00    +0.000 N 
ATOM     25  O   UNL     1       7.862   8.870  17.737  0.00  0.00    +0.000 OA
ATOM     26  C   UNL     1       7.370   6.881  16.676  0.00  0.00    +0.000 A 
ENDBRANCH  19  20
ENDBRANCH  18  19
ENDBRANCH  16  18
ENDBRANCH   4  16
TORSDOF 5
ENDMDL
MODEL 5
REMARK VINA RESULT:      -7.7      1.421      1.799
REMARK  Name = 
REMARK  6 active torsions:
REMARK  status: ('A' for Active; 'I' for Inactive)
REMARK    1  A    between atoms: C_1  and  C_2
REMARK    2  A    between atoms: C_4  and  N_5
REMARK    3  A    between atoms: N_5  and  C_6
REMARK    4  A    between atoms: C_6  and  C_7
REMARK    5  A    between atoms: C_7  and  C_8
REMARK    6  A    between atoms: C_16  and  C_17
REMARK                            x       y       z     vdW  Elec       q    Type
REMARK                         _______ _______ _______ _____ _____    ______ ____
ROOT
ATOM      1  C   UNL     1       2.171   2.439  20.008  0.00  0.00    +0.000 C 
ATOM      2  C   UNL     1       2.996   3.629  19.623  0.00  0.00    +0.000 A 
ATOM      3  C   UNL     1       4.354   3.520  19.399  0.00  0.00    +0.000 A 
ATOM      4  C   UNL     1       5.053   4.690  19.165  0.00  0.00    +0.000 A 
ATOM      5  N   UNL     1       4.436   5.881  19.113  0.00  0.00    +0.000 NA
ATOM      6  C   UNL     1       3.101   5.895  19.297  0.00  0.00    +0.000 A 
ATOM      7  N   UNL     1       2.355   4.809  19.560  0.00  0.00    +0.000 NA
ENDROOT
BRANCH   6   8
ATOM      8  C   UNL     1       2.402   7.198  19.221  0.00  0.00    +0.000 A 
ATOM      9  C   UNL     1       2.382   7.952  18.032  0.00  0.00    +0.000 A 
ATOM     10  C   UNL     1       1.711   9.179  17.949  0.00  0.00    +0.000 A 
ATOM     11  C   UNL     1       1.050   9.687  19.065  0.00  0.00    +0.000 A 
ATOM     12 CL   UNL     1       0.232  11.199  18.896  0.00  0.00    +0.000 Cl
ATOM     13  C   UNL     1       1.056   8.965  20.260  0.00  0.00    +0.000 A 
ATOM     14 CL   UNL     1       0.263   9.532  21.688  0.00  0.00    +0.000 Cl
ATOM     15  C   UNL     1       1.728   7.737  20.334  0.00  0.00    +0.000 A 
ENDBRANCH   6   8
BRANCH   4  16
ATOM     16  N   UNL     1       6.449   4.601  19.011  0.00  0.00    +0.000 N 
ATOM     17  H   UNL     1       6.825   3.934  19.678  0.00  0.00    +0.000 HD
BRANCH  16  18
ATOM     18  C   UNL     1       6.912   4.405  17.636  0.00  0.00    +0.000 C 
BRANCH  18  19
ATOM     19  C   UNL     1       5.775   4.691  16.645  0.00  0.00    +0.000 C 
BRANCH  19  20
ATOM     20  C   UNL     1       6.221   4.551  15.209  0.00  0.00    +0.000 A 
ATOM     21  C   UNL     1       5.558   3.704  14.316  0.00  0.00    +0.000 A 
ATOM     22  C   UNL     1       5.977   3.616  12.991  0.00  0.00    +0.000 A 
ATOM     23  C   UNL     1       7.061   4.378  12.561  0.00  0.00    +0.000 A 
ATOM     24  N   UNL     1       7.732   5.226  13.422  0.00  0.00    +0.000 N 
ATOM     25  O   UNL     1       8.718   5.916  13.019  0.00  0.00    +0.000 OA
ATOM     26  C   UNL     1       7.303   5.304  14.737  0.00  0.00    +0.000 A 
ENDBRANCH  19  20
ENDBRANCH  18  19
ENDBRANCH  16  18
ENDBRANCH   4  16
TORSDOF 5
ENDMDL
MODEL 6
REMARK VINA RESULT:      -7.6      1.988      2.576
REMARK  Name = 
REMARK  6 active torsions:
REMARK  status: ('A' for Active; 'I' for Inactive)
REMARK    1  A    between atoms: C_1  and  C_2
REMARK    2  A    between atoms: C_4  and  N_5
REMARK    3  A    between atoms: N_5  and  C_6
REMARK    4  A    between atoms: C_6  and  C_7
REMARK    5  A    between atoms: C_7  and  C_8
REMARK    6  A    between atoms: C_16  and  C_17
REMARK                            x       y       z     vdW  Elec       q    Type
REMARK                         _______ _______ _______ _____ _____    ______ ____
ROOT
ATOM      1  C   UNL     1       1.831   2.856  21.566  0.00  0.00    +0.000 C 
ATOM      2  C   UNL     1       2.025   3.753  20.382  0.00  0.00    +0.000 A 
ATOM      3  C   UNL     1       2.501   3.264  19.181  0.00  0.00    +0.000 A 
ATOM      4  C   UNL     1       2.760   4.184  18.181  0.00  0.00    +0.000 A 
ATOM      5  N   UNL     1       2.518   5.494  18.349  0.00  0.00    +0.000 NA
ATOM      6  C   UNL     1       2.009   5.883  19.535  0.00  0.00    +0.000 A 
ATOM      7  N   UNL     1       1.761   5.058  20.566  0.00  0.00    +0.000 NA
ENDROOT
BRANCH   6   8
ATOM      8  C   UNL     1       1.717   7.321  19.729  0.00  0.00    +0.000 A 
ATOM      9  C   UNL     1       1.861   8.248  18.679  0.00  0.00    +0.000 A 
ATOM     10  C   UNL     1       1.573   9.607  18.852  0.00  0.00    +0.000 A 
ATOM     11  C   UNL     1       1.142  10.075  20.092  0.00  0.00    +0.000 A 
ATOM     12 CL   UNL     1       0.792  11.760  20.238  0.00  0.00    +0.000 Cl
ATOM     13  C   UNL     1       0.994   9.182  21.154  0.00  0.00    +0.000 A 
ATOM     14 CL   UNL     1       0.468   9.686  22.722  0.00  0.00    +0.000 Cl
ATOM     15  C   UNL     1       1.282   7.822  20.972  0.00  0.00    +0.000 A 
ENDBRANCH   6   8
BRANCH   4  16
ATOM     16  N   UNL     1       3.317   3.709  16.980  0.00  0.00    +0.000 N 
ATOM     17  H   UNL     1       2.883   4.181  16.192  0.00  0.00    +0.000 HD
BRANCH  16  18
ATOM     18  C   UNL     1       4.780   3.689  16.938  0.00  0.00    +0.000 C 
BRANCH  18  19
ATOM     19  C   UNL     1       5.312   4.949  16.242  0.00  0.00    +0.000 C 
BRANCH  19  20
ATOM     20  C   UNL     1       6.322   5.686  17.088  0.00  0.00    +0.000 A 
ATOM     21  C   UNL     1       6.739   6.981  16.768  0.00  0.00    +0.000 A 
ATOM     22  C   UNL     1       7.653   7.645  17.583  0.00  0.00    +0.000 A 
ATOM     23  C   UNL     1       8.150   7.009  18.719  0.00  0.00    +0.000 A 
ATOM     24  N   UNL     1       7.752   5.730  19.060  0.00  0.00    +0.000 N 
ATOM     25  O   UNL     1       8.210   5.160  20.096  0.00  0.00    +0.000 OA
ATOM     26  C   UNL     1       6.841   5.082  18.241  0.00  0.00    +0.000 A 
ENDBRANCH  19  20
ENDBRANCH  18  19
ENDBRANCH  16  18
ENDBRANCH   4  16
TORSDOF 5
ENDMDL
MODEL 7
REMARK VINA RESULT:      -7.6      2.012      2.913
REMARK  Name = 
REMARK  6 active torsions:
REMARK  status: ('A' for Active; 'I' for Inactive)
REMARK    1  A    between atoms: C_1  and  C_2
REMARK    2  A    between atoms: C_4  and  N_5
REMARK    3  A    between atoms: N_5  and  C_6
REMARK    4  A    between atoms: C_6  and  C_7
REMARK    5  A    between atoms: C_7  and  C_8
REMARK    6  A    between atoms: C_16  and  C_17
REMARK                            x       y       z     vdW  Elec       q    Type
REMARK                         _______ _______ _______ _____ _____    ______ ____
ROOT
ATOM      1  C   UNL     1       2.138   2.384  21.648  0.00  0.00    +0.000 C 
ATOM      2  C   UNL     1       2.361   3.302  20.485  0.00  0.00    +0.000 A 
ATOM      3  C   UNL     1       2.945   2.852  19.317  0.00  0.00    +0.000 A 
ATOM      4  C   UNL     1       3.218   3.794  18.342  0.00  0.00    +0.000 A 
ATOM      5  N   UNL     1       2.890   5.086  18.500  0.00  0.00    +0.000 NA
ATOM      6  C   UNL     1       2.280   5.435  19.650  0.00  0.00    +0.000 A 
ATOM      7  N   UNL     1       2.010   4.588  20.657  0.00  0.00    +0.000 NA
ENDROOT
BRANCH   6   8
ATOM      8  C   UNL     1       1.893   6.852  19.831  0.00  0.00    +0.000 A 
ATOM      9  C   UNL     1       1.285   7.301  21.019  0.00  0.00    +0.000 A 
ATOM     10  C   UNL     1       0.928   8.643  21.202  0.00  0.00    +0.000 A 
ATOM     11  C   UNL     1       1.162   9.570  20.188  0.00  0.00    +0.000 A 
ATOM     12 CL   UNL     1       0.709  11.211  20.479  0.00  0.00    +0.000 Cl
ATOM     13  C   UNL     1       1.758   9.154  18.997  0.00  0.00    +0.000 A 
ATOM     14 CL   UNL     1       2.078  10.243  17.692  0.00  0.00    +0.000 Cl
ATOM     15  C   UNL     1       2.115   7.810  18.822  0.00  0.00    +0.000 A 
ENDBRANCH   6   8
BRANCH   4  16
ATOM     16  N   UNL     1       3.883   3.363  17.179  0.00  0.00    +0.000 N 
ATOM     17  H   UNL     1       3.301   2.697  16.680  0.00  0.00    +0.000 HD
BRANCH  16  18
ATOM     18  C   UNL     1       4.429   4.432  16.342  0.00  0.00    +0.000 C 
BRANCH  18  19
ATOM     19  C   UNL     1       5.950   4.281  16.208  0.00  0.00    +0.000 C 
BRANCH  19  20
ATOM     20  C   UNL     1       6.701   5.230  17.110  0.00  0.00    +0.000 A 
ATOM     21  C   UNL     1       7.024   6.528  16.702  0.00  0.00    +0.000 A 
ATOM     22  C   UNL     1       7.695   7.389  17.566  0.00  0.00    +0.000 A 
ATOM     23  C   UNL     1       8.042   6.948  18.842  0.00  0.00    +0.000 A 
ATOM     24  N   UNL     1       7.732   5.671  19.273  0.00  0.00    +0.000 N 
ATOM     25  O   UNL     1       8.053   5.281  20.436  0.00  0.00    +0.000 OA
ATOM     26  C   UNL     1       7.063   4.827  18.401  0.00  0.00    +0.000 A 
ENDBRANCH  19  20
ENDBRANCH  18  19
ENDBRANCH  16  18
ENDBRANCH   4  16
TORSDOF 5
ENDMDL
MODEL 8
REMARK VINA RESULT:      -7.6      2.031      3.123
REMARK  Name = 
REMARK  6 active torsions:
REMARK  status: ('A' for Active; 'I' for Inactive)
REMARK    1  A    between atoms: C_1  and  C_2
REMARK    2  A    between atoms: C_4  and  N_5
REMARK    3  A    between atoms: N_5  and  C_6
REMARK    4  A    between atoms: C_6  and  C_7
REMARK    5  A    between atoms: C_7  and  C_8
REMARK    6  A    between atoms: C_16  and  C_17
REMARK                            x       y       z     vdW  Elec       q    Type
REMARK                         _______ _______ _______ _____ _____    ______ ____
ROOT
ATOM      1  C   UNL     1       4.141   2.229  20.585  0.00  0.00    +0.000 C 
ATOM      2  C   UNL     1       3.812   3.209  19.502  0.00  0.00    +0.000 A 
ATOM      3  C   UNL     1       4.126   2.954  18.182  0.00  0.00    +0.000 A 
ATOM      4  C   UNL     1       3.892   3.965  17.268  0.00  0.00    +0.000 A 
ATOM      5  N   UNL     1       3.339   5.132  17.635  0.00  0.00    +0.000 NA
ATOM      6  C   UNL     1       3.019   5.284  18.935  0.00  0.00    +0.000 A 
ATOM      7  N   UNL     1       3.244   4.365  19.889  0.00  0.00    +0.000 NA
ENDROOT
BRANCH   6   8
ATOM      8  C   UNL     1       2.389   6.557  19.353  0.00  0.00    +0.000 A 
ATOM      9  C   UNL     1       1.742   6.682  20.597  0.00  0.00    +0.000 A 
ATOM     10  C   UNL     1       1.156   7.888  21.004  0.00  0.00    +0.000 A 
ATOM     11  C   UNL     1       1.195   8.998  20.164  0.00  0.00    +0.000 A 
ATOM     12 CL   UNL     1       0.463  10.459  20.728  0.00  0.00    +0.000 Cl
ATOM     13  C   UNL     1       1.823   8.904  18.922  0.00  0.00    +0.000 A 
ATOM     14 CL   UNL     1       1.908  10.236  17.823  0.00  0.00    +0.000 Cl
ATOM     15  C   UNL     1       2.410   7.695  18.523  0.00  0.00    +0.000 A 
ENDBRANCH   6   8
BRANCH   4  16
ATOM     16  N   UNL     1       4.279   3.746  15.933  0.00  0.00    +0.000 N 
ATOM     17  H   UNL     1       3.453   3.623  15.354  0.00  0.00    +0.000 HD
BRANCH  16  18
ATOM     18  C   UNL     1       5.249   4.705  15.402  0.00  0.00    +0.000 C 
BRANCH  18  19
ATOM     19  C   UNL     1       6.668   4.335  15.856  0.00  0.00    +0.000 C 
BRANCH  19  20
ATOM     20  C   UNL     1       7.193   5.277  16.912  0.00  0.00    +0.000 A 
ATOM     21  C   UNL     1       7.191   6.662  16.725  0.00  0.00    +0.000 A 
ATOM     22  C   UNL     1       7.658   7.507  17.729  0.00  0.00    +0.000 A 
ATOM     23  C   UNL     1       8.128   6.962  18.922  0.00  0.00    +0.000 A 
ATOM     24  N   UNL     1       8.138   5.596  19.135  0.00  0.00    +0.000 N 
ATOM     25  O   UNL     1       8.568   5.111  20.225  0.00  0.00    +0.000 OA
ATOM     26  C   UNL     1       7.669   4.768  18.128  0.00  0.00    +0.000 A 
ENDBRANCH  19  20
ENDBRANCH  18  19
ENDBRANCH  16  18
ENDBRANCH   4  16
TORSDOF 5
ENDMDL
MODEL 9
REMARK VINA RESULT:      -7.6      4.577      6.434
REMARK  Name = 
REMARK  6 active torsions:
REMARK  status: ('A' for Active; 'I' for Inactive)
REMARK    1  A    between atoms: C_1  and  C_2
REMARK    2  A    between atoms: C_4  and  N_5
REMARK    3  A    between atoms: N_5  and  C_6
REMARK    4  A    between atoms: C_6  and  C_7
REMARK    5  A    between atoms: C_7  and  C_8
REMARK    6  A    between atoms: C_16  and  C_17
REMARK                            x       y       z     vdW  Elec       q    Type
REMARK                         _______ _______ _______ _____ _____    ______ ____
ROOT
ATOM      1  C   UNL     1       6.113   3.453  14.027  0.00  0.00    +0.000 C 
ATOM      2  C   UNL     1       6.091   4.302  15.261  0.00  0.00    +0.000 A 
ATOM      3  C   UNL     1       6.948   5.375  15.409  0.00  0.00    +0.000 A 
ATOM      4  C   UNL     1       6.938   6.029  16.628  0.00  0.00    +0.000 A 
ATOM      5  N   UNL     1       6.101   5.669  17.614  0.00  0.00    +0.000 NA
ATOM      6  C   UNL     1       5.264   4.641  17.371  0.00  0.00    +0.000 A 
ATOM      7  N   UNL     1       5.234   3.935  16.229  0.00  0.00    +0.000 NA
ENDROOT
BRANCH   6   8
ATOM      8  C   UNL     1       4.319   4.245  18.440  0.00  0.00    +0.000 A 
ATOM      9  C   UNL     1       4.223   2.910  18.878  0.00  0.00    +0.000 A 
ATOM     10  C   UNL     1       3.341   2.531  19.898  0.00  0.00    +0.000 A 
ATOM     11  C   UNL     1       2.522   3.485  20.499  0.00  0.00    +0.000 A 
ATOM     12 CL   UNL     1       1.464   2.957  21.759  0.00  0.00    +0.000 Cl
ATOM     13  C   UNL     1       2.591   4.815  20.084  0.00  0.00    +0.000 A 
ATOM     14 CL   UNL     1       1.605   6.055  20.778  0.00  0.00    +0.000 Cl
ATOM     15  C   UNL     1       3.478   5.187  19.064  0.00  0.00    +0.000 A 
ENDBRANCH   6   8
BRANCH   4  16
ATOM     16  N   UNL     1       7.860   7.075  16.820  0.00  0.00    +0.000 N 
ATOM     17  H   UNL     1       8.121   7.469  15.921  0.00  0.00    +0.000 HD
BRANCH  16  18
ATOM     18  C   UNL     1       7.474   8.067  17.825  0.00  0.00    +0.000 C 
BRANCH  18  19
ATOM     19  C   UNL     1       8.678   8.430  18.705  0.00  0.00    +0.000 C 
BRANCH  19  20
ATOM     20  C   UNL     1       8.893   9.922  18.790  0.00  0.00    +0.000 A 
ATOM     21  C   UNL     1       8.643  10.761  17.701  0.00  0.00    +0.000 A 
ATOM     22  C   UNL     1       8.827  12.137  17.818  0.00  0.00    +0.000 A 
ATOM     23  C   UNL     1       9.262  12.671  19.029  0.00  0.00    +0.000 A 
ATOM     24  N   UNL     1       9.514  11.864  20.123  0.00  0.00    +0.000 N 
ATOM     25  O   UNL     1       9.910  12.361  21.221  0.00  0.00    +0.000 OA
ATOM     26  C   UNL     1       9.325  10.498  19.992  0.00  0.00    +0.000 A 
ENDBRANCH  19  20
ENDBRANCH  18  19
ENDBRANCH  16  18
ENDBRANCH   4  16
TORSDOF 5
ENDMDL
