MODEL 1
REMARK VINA RESULT:      -8.3      0.000      0.000
REMARK  Name = 
REMARK  9 active torsions:
REMARK  status: ('A' for Active; 'I' for Inactive)
REMARK    1  A    between atoms: C_2  and  C_3
REMARK    2  A    between atoms: C_2  and  C_4
REMARK    3  A    between atoms: C_4  and  O_5
REMARK    4  A    between atoms: O_5  and  C_6
REMARK    5  A    between atoms: C_9  and  C_10
REMARK    6  A    between atoms: C_16  and  C_17
REMARK    7  A    between atoms: C_22  and  O_23
REMARK    8  A    between atoms: O_23  and  C_24
REMARK    9  A    between atoms: C_25  and  O_26
REMARK                            x       y       z     vdW  Elec       q    Type
REMARK                         _______ _______ _______ _____ _____    ______ ____
ROOT
ATOM      1  C   UNL     1       2.757   4.845  18.524  0.00  0.00    +0.000 A 
ATOM      2  N   UNL     1       1.653   4.048  18.599  0.00  0.00    +0.000 NA
ATOM      3  C   UNL     1       1.787   2.744  18.388  0.00  0.00    +0.000 A 
ATOM      4  N   UNL     1       0.661   1.961  18.549  0.00  0.00    +0.000 N 
ATOM      5  N   UNL     1       2.915   2.158  18.028  0.00  0.00    +0.000 NA
ATOM      6  C   UNL     1       4.007   2.957  17.982  0.00  0.00    +0.000 A 
ATOM      7  C   UNL     1       4.027   4.321  18.247  0.00  0.00    +0.000 A 
ATOM      8  H   UNL     1      -0.169   2.532  18.492  0.00  0.00    +0.000 HD
ATOM      9  H   UNL     1       0.716   1.143  17.957  0.00  0.00    +0.000 HD
ENDROOT
BRANCH   1  13
ATOM     10  C   UNL     1       1.548   8.960  19.117  0.00  0.00    +0.000 A 
ATOM     11  C   UNL     1       2.044   8.511  17.900  0.00  0.00    +0.000 A 
ATOM     12  C   UNL     1       2.463   7.187  17.762  0.00  0.00    +0.000 A 
ATOM     13  C   UNL     1       2.429   6.264  18.833  0.00  0.00    +0.000 A 
ATOM     14  C   UNL     1       2.047   6.785  20.084  0.00  0.00    +0.000 A 
ATOM     15  C   UNL     1       1.586   8.100  20.217  0.00  0.00    +0.000 A 
BRANCH  14  16
ATOM     16  O   UNL     1       2.070   6.070  21.251  0.00  0.00    +0.000 OA
ATOM     17  H   UNL     1       2.821   5.465  21.248  0.00  0.00    +0.000 HD
ENDBRANCH  14  16
BRANCH  10  18
ATOM     18  O   UNL     1       0.998  10.195  19.339  0.00  0.00    +0.000 OA
BRANCH  18  19
ATOM     19  C   UNL     1      -0.410  10.205  19.597  0.00  0.00    +0.000 C 
BRANCH  19  21
ATOM     20  C   UNL     1      -1.720  10.017  17.486  0.00  0.00    +0.000 C 
ATOM     21  C   UNL     1      -1.138  10.791  18.415  0.00  0.00    +0.000 C 
ATOM     22  C   UNL     1      -1.140  12.291  18.312  0.00  0.00    +0.000 C 
ENDBRANCH  19  21
ENDBRANCH  18  19
ENDBRANCH  10  18
ENDBRANCH   1  13
BRANCH   7  23
ATOM     23  C   UNL     1       5.310   5.081  18.189  0.00  0.00    +0.000 A 
ATOM     24  C   UNL     1       6.052   5.278  19.376  0.00  0.00    +0.000 A 
ATOM     25  C   UNL     1       7.337   5.823  19.355  0.00  0.00    +0.000 A 
ATOM     26  C   UNL     1       7.921   6.159  18.139  0.00  0.00    +0.000 A 
ATOM     27  C   UNL     1       7.186   6.047  16.961  0.00  0.00    +0.000 A 
ATOM     28  C   UNL     1       5.870   5.566  16.980  0.00  0.00    +0.000 A 
BRANCH  28  29
ATOM     29  O   UNL     1       5.056   5.514  15.879  0.00  0.00    +0.000 OA
ATOM     30  C   UNL     1       5.489   4.815  14.722  0.00  0.00    +0.000 C 
ENDBRANCH  28  29
ENDBRANCH   7  23
TORSDOF 7
ENDMDL
MODEL 2
REMARK VINA RESULT:      -8.1      1.056      1.439
REMARK  Name = 
REMARK  9 active torsions:
REMARK  status: ('A' for Active; 'I' for Inactive)
REMARK    1  A    between atoms: C_2  and  C_3
REMARK    2  A    between atoms: C_2  and  C_4
REMARK    3  A    between atoms: C_4  and  O_5
REMARK    4  A    between atoms: O_5  and  C_6
REMARK    5  A    between atoms: C_9  and  C_10
REMARK    6  A    between atoms: C_16  and  C_17
REMARK    7  A    between atoms: C_22  and  O_23
REMARK    8  A    between atoms: O_23  and  C_24
REMARK    9  A    between atoms: C_25  and  O_26
REMARK                            x       y       z     vdW  Elec       q    Type
REMARK                         _______ _______ _______ _____ _____    ______ ____
ROOT
ATOM      1  C   UNL     1       2.801   4.740  18.560  0.00  0.00    +0.000 A 
ATOM      2  N   UNL     1       1.717   3.912  18.618  0.00  0.00    +0.000 NA
ATOM      3  C   UNL     1       1.870   2.632  18.298  0.00  0.00    +0.000 A 
ATOM      4  N   UNL     1       0.769   1.812  18.443  0.00  0.00    +0.000 N 
ATOM      5  N   UNL     1       2.993   2.104  17.846  0.00  0.00    +0.000 NA
ATOM      6  C   UNL     1       4.065   2.930  17.818  0.00  0.00    +0.000 A 
ATOM      7  C   UNL     1       4.068   4.270  18.189  0.00  0.00    +0.000 A 
ATOM      8  H   UNL     1      -0.075   2.365  18.467  0.00  0.00    +0.000 HD
ATOM      9  H   UNL     1       0.815   1.044  17.786  0.00  0.00    +0.000 HD
ENDROOT
BRANCH   1  13
ATOM     10  C   UNL     1       1.539   8.768  19.522  0.00  0.00    +0.000 A 
ATOM     11  C   UNL     1       2.018   8.432  18.262  0.00  0.00    +0.000 A 
ATOM     12  C   UNL     1       2.455   7.132  18.005  0.00  0.00    +0.000 A 
ATOM     13  C   UNL     1       2.456   6.121  18.994  0.00  0.00    +0.000 A 
ATOM     14  C   UNL     1       2.091   6.528  20.291  0.00  0.00    +0.000 A 
ATOM     15  C   UNL     1       1.611   7.819  20.543  0.00  0.00    +0.000 A 
BRANCH  14  16
ATOM     16  O   UNL     1       2.147   5.718  21.393  0.00  0.00    +0.000 OA
ATOM     17  H   UNL     1       3.068   5.525  21.609  0.00  0.00    +0.000 HD
ENDBRANCH  14  16
BRANCH  10  18
ATOM     18  O   UNL     1       0.974   9.970  19.857  0.00  0.00    +0.000 OA
BRANCH  18  19
ATOM     19  C   UNL     1      -0.314   9.894  20.476  0.00  0.00    +0.000 C 
BRANCH  19  21
ATOM     20  C   UNL     1      -0.613  10.262  22.922  0.00  0.00    +0.000 C 
ATOM     21  C   UNL     1      -0.337  10.762  21.708  0.00  0.00    +0.000 C 
ATOM     22  C   UNL     1      -0.074  12.227  21.494  0.00  0.00    +0.000 C 
ENDBRANCH  19  21
ENDBRANCH  18  19
ENDBRANCH  10  18
ENDBRANCH   1  13
BRANCH   7  23
ATOM     23  C   UNL     1       5.330   5.063  18.138  0.00  0.00    +0.000 A 
ATOM     24  C   UNL     1       6.067   5.269  19.327  0.00  0.00    +0.000 A 
ATOM     25  C   UNL     1       7.338   5.847  19.311  0.00  0.00    +0.000 A 
ATOM     26  C   UNL     1       7.913   6.209  18.099  0.00  0.00    +0.000 A 
ATOM     27  C   UNL     1       7.181   6.088  16.919  0.00  0.00    +0.000 A 
ATOM     28  C   UNL     1       5.878   5.572  16.933  0.00  0.00    +0.000 A 
BRANCH  28  29
ATOM     29  O   UNL     1       5.066   5.510  15.832  0.00  0.00    +0.000 OA
ATOM     30  C   UNL     1       5.463   4.728  14.715  0.00  0.00    +0.000 C 
ENDBRANCH  28  29
ENDBRANCH   7  23
TORSDOF 7
ENDMDL
MODEL 3
REMARK VINA RESULT:      -7.9      1.590      2.251
REMARK  Name = 
REMARK  9 active torsions:
REMARK  status: ('A' for Active; 'I' for Inactive)
REMARK    1  A    between atoms: C_2  and  C_3
REMARK    2  A    between atoms: C_2  and  C_4
REMARK    3  A    between atoms: C_4  and  O_5
REMARK    4  A    between atoms: O_5  and  C_6
REMARK    5  A    between atoms: C_9  and  C_10
REMARK    6  A    between atoms: C_16  and  C_17
REMARK    7  A    between atoms: C_22  and  O_23
REMARK    8  A    between atoms: O_23  and  C_24
REMARK    9  A    between atoms: C_25  and  O_26
REMARK                            x       y       z     vdW  Elec       q    Type
REMARK                         _______ _______ _______ _____ _____    ______ ____
ROOT
ATOM      1  C   UNL     1       3.144   4.739  19.496  0.00  0.00    +0.000 A 
ATOM      2  N   UNL     1       2.394   4.289  20.543  0.00  0.00    +0.000 NA
ATOM      3  C   UNL     1       2.581   3.050  20.980  0.00  0.00    +0.000 A 
ATOM      4  N   UNL     1       1.858   2.657  22.089  0.00  0.00    +0.000 N 
ATOM      5  N   UNL     1       3.399   2.176  20.421  0.00  0.00    +0.000 NA
ATOM      6  C   UNL     1       4.154   2.644  19.400  0.00  0.00    +0.000 A 
ATOM      7  C   UNL     1       4.115   3.934  18.885  0.00  0.00    +0.000 A 
ATOM      8  H   UNL     1       1.059   3.262  22.213  0.00  0.00    +0.000 HD
ATOM      9  H   UNL     1       1.699   1.659  22.069  0.00  0.00    +0.000 HD
ENDROOT
BRANCH   1  13
ATOM     10  C   UNL     1       2.074   8.735  18.218  0.00  0.00    +0.000 A 
ATOM     11  C   UNL     1       2.838   7.892  17.421  0.00  0.00    +0.000 A 
ATOM     12  C   UNL     1       3.197   6.626  17.887  0.00  0.00    +0.000 A 
ATOM     13  C   UNL     1       2.834   6.159  19.172  0.00  0.00    +0.000 A 
ATOM     14  C   UNL     1       2.176   7.086  20.002  0.00  0.00    +0.000 A 
ATOM     15  C   UNL     1       1.776   8.340  19.523  0.00  0.00    +0.000 A 
BRANCH  14  16
ATOM     16  O   UNL     1       1.855   6.850  21.312  0.00  0.00    +0.000 OA
ATOM     17  H   UNL     1       2.659   6.823  21.844  0.00  0.00    +0.000 HD
ENDBRANCH  14  16
BRANCH  10  18
ATOM     18  O   UNL     1       1.562   9.944  17.824  0.00  0.00    +0.000 OA
BRANCH  18  19
ATOM     19  C   UNL     1       0.878  10.683  18.842  0.00  0.00    +0.000 C 
BRANCH  19  21
ATOM     20  C   UNL     1      -1.358  10.179  17.866  0.00  0.00    +0.000 C 
ATOM     21  C   UNL     1      -0.489  11.080  18.348  0.00  0.00    +0.000 C 
ATOM     22  C   UNL     1      -0.808  12.549  18.387  0.00  0.00    +0.000 C 
ENDBRANCH  19  21
ENDBRANCH  18  19
ENDBRANCH  10  18
ENDBRANCH   1  13
BRANCH   7  23
ATOM     23  C   UNL     1       5.027   4.330  17.773  0.00  0.00    +0.000 A 
ATOM     24  C   UNL     1       4.646   4.067  16.437  0.00  0.00    +0.000 A 
ATOM     25  C   UNL     1       5.371   4.570  15.355  0.00  0.00    +0.000 A 
ATOM     26  C   UNL     1       6.482   5.372  15.586  0.00  0.00    +0.000 A 
ATOM     27  C   UNL     1       6.926   5.586  16.889  0.00  0.00    +0.000 A 
ATOM     28  C   UNL     1       6.244   5.028  17.980  0.00  0.00    +0.000 A 
BRANCH  28  29
ATOM     29  O   UNL     1       6.671   5.116  19.278  0.00  0.00    +0.000 OA
ATOM     30  C   UNL     1       7.919   5.731  19.563  0.00  0.00    +0.000 C 
ENDBRANCH  28  29
ENDBRANCH   7  23
TORSDOF 7
ENDMDL
MODEL 4
REMARK VINA RESULT:      -7.8      1.174      1.372
REMARK  Name = 
REMARK  9 active torsions:
REMARK  status: ('A' for Active; 'I' for Inactive)
REMARK    1  A    between atoms: C_2  and  C_3
REMARK    2  A    between atoms: C_2  and  C_4
REMARK    3  A    between atoms: C_4  and  O_5
REMARK    4  A    between atoms: O_5  and  C_6
REMARK    5  A    between atoms: C_9  and  C_10
REMARK    6  A    between atoms: C_16  and  C_17
REMARK    7  A    between atoms: C_22  and  O_23
REMARK    8  A    between atoms: O_23  and  C_24
REMARK    9  A    between atoms: C_25  and  O_26
REMARK                            x       y       z     vdW  Elec       q    Type
REMARK                         _______ _______ _______ _____ _____    ______ ____
ROOT
ATOM      1  C   UNL     1       2.753   4.839  18.540  0.00  0.00    +0.000 A 
ATOM      2  N   UNL     1       1.653   4.033  18.577  0.00  0.00    +0.000 NA
ATOM      3  C   UNL     1       1.784   2.752  18.252  0.00  0.00    +0.000 A 
ATOM      4  N   UNL     1       0.664   1.953  18.376  0.00  0.00    +0.000 N 
ATOM      5  N   UNL     1       2.903   2.204  17.813  0.00  0.00    +0.000 NA
ATOM      6  C   UNL     1       3.991   3.009  17.805  0.00  0.00    +0.000 A 
ATOM      7  C   UNL     1       4.016   4.345  18.184  0.00  0.00    +0.000 A 
ATOM      8  H   UNL     1      -0.168   2.524  18.391  0.00  0.00    +0.000 HD
ATOM      9  H   UNL     1       0.705   1.189  17.715  0.00  0.00    +0.000 HD
ENDROOT
BRANCH   1  13
ATOM     10  C   UNL     1       1.556   8.885  19.511  0.00  0.00    +0.000 A 
ATOM     11  C   UNL     1       2.036   8.545  18.253  0.00  0.00    +0.000 A 
ATOM     12  C   UNL     1       2.451   7.239  17.992  0.00  0.00    +0.000 A 
ATOM     13  C   UNL     1       2.431   6.224  18.978  0.00  0.00    +0.000 A 
ATOM     14  C   UNL     1       2.066   6.633  20.274  0.00  0.00    +0.000 A 
ATOM     15  C   UNL     1       1.608   7.931  20.529  0.00  0.00    +0.000 A 
BRANCH  14  16
ATOM     16  O   UNL     1       2.103   5.817  21.374  0.00  0.00    +0.000 OA
ATOM     17  H   UNL     1       2.021   4.896  21.099  0.00  0.00    +0.000 HD
ENDBRANCH  14  16
BRANCH  10  18
ATOM     18  O   UNL     1       1.011  10.095  19.849  0.00  0.00    +0.000 OA
BRANCH  18  19
ATOM     19  C   UNL     1       0.818  11.007  18.763  0.00  0.00    +0.000 C 
BRANCH  19  21
ATOM     20  C   UNL     1       2.581  12.631  18.085  0.00  0.00    +0.000 C 
ATOM     21  C   UNL     1       1.661  12.238  18.978  0.00  0.00    +0.000 C 
ATOM     22  C   UNL     1       1.441  12.976  20.269  0.00  0.00    +0.000 C 
ENDBRANCH  19  21
ENDBRANCH  18  19
ENDBRANCH  10  18
ENDBRANCH   1  13
BRANCH   7  23
ATOM     23  C   UNL     1       5.295   5.113  18.157  0.00  0.00    +0.000 A 
ATOM     24  C   UNL     1       6.031   5.277  19.354  0.00  0.00    +0.000 A 
ATOM     25  C   UNL     1       7.313   5.829  19.355  0.00  0.00    +0.000 A 
ATOM     26  C   UNL     1       7.901   6.205  18.154  0.00  0.00    +0.000 A 
ATOM     27  C   UNL     1       7.173   6.127  16.969  0.00  0.00    +0.000 A 
ATOM     28  C   UNL     1       5.859   5.638  16.966  0.00  0.00    +0.000 A 
BRANCH  28  29
ATOM     29  O   UNL     1       5.050   5.617  15.861  0.00  0.00    +0.000 OA
ATOM     30  C   UNL     1       5.455   4.884  14.714  0.00  0.00    +0.000 C 
ENDBRANCH  28  29
ENDBRANCH   7  23
TORSDOF 7
ENDMDL
MODEL 5
REMARK VINA RESULT:      -7.8      1.933      2.624
REMARK  Name = 
REMARK  9 active torsions:
REMARK  status: ('A' for Active; 'I' for Inactive)
REMARK    1  A    between atoms: C_2  and  C_3
REMARK    2  A    between atoms: C_2  and  C_4
REMARK    3  A    between atoms: C_4  and  O_5
REMARK    4  A    between atoms: O_5  and  C_6
REMARK    5  A    between atoms: C_9  and  C_10
REMARK    6  A    between atoms: C_16  and  C_17
REMARK    7  A    between atoms: C_22  and  O_23
REMARK    8  A    between atoms: O_23  and  C_24
REMARK    9  A    between atoms: C_25  and  O_26
REMARK                            x       y       z     vdW  Elec       q    Type
REMARK                         _______ _______ _______ _____ _____    ______ ____
ROOT
ATOM      1  C   UNL     1       3.225   4.714  19.477  0.00  0.00    +0.000 A 
ATOM      2  N   UNL     1       2.453   4.323  20.532  0.00  0.00    +0.000 NA
ATOM      3  C   UNL     1       2.599   3.093  21.011  0.00  0.00    +0.000 A 
ATOM      4  N   UNL     1       1.855   2.760  22.127  0.00  0.00    +0.000 N 
ATOM      5  N   UNL     1       3.392   2.175  20.487  0.00  0.00    +0.000 NA
ATOM      6  C   UNL     1       4.169   2.586  19.458  0.00  0.00    +0.000 A 
ATOM      7  C   UNL     1       4.174   3.859  18.901  0.00  0.00    +0.000 A 
ATOM      8  H   UNL     1       1.075   3.393  22.224  0.00  0.00    +0.000 HD
ATOM      9  H   UNL     1       1.665   1.767  22.137  0.00  0.00    +0.000 HD
ENDROOT
BRANCH   1  13
ATOM     10  C   UNL     1       2.317   8.699  18.049  0.00  0.00    +0.000 A 
ATOM     11  C   UNL     1       3.124   7.829  17.327  0.00  0.00    +0.000 A 
ATOM     12  C   UNL     1       3.427   6.568  17.842  0.00  0.00    +0.000 A 
ATOM     13  C   UNL     1       2.962   6.131  19.105  0.00  0.00    +0.000 A 
ATOM     14  C   UNL     1       2.260   7.084  19.866  0.00  0.00    +0.000 A 
ATOM     15  C   UNL     1       1.917   8.334  19.336  0.00  0.00    +0.000 A 
BRANCH  14  16
ATOM     16  O   UNL     1       1.839   6.879  21.153  0.00  0.00    +0.000 OA
ATOM     17  H   UNL     1       1.004   7.340  21.299  0.00  0.00    +0.000 HD
ENDBRANCH  14  16
BRANCH  10  18
ATOM     18  O   UNL     1       1.854   9.907  17.596  0.00  0.00    +0.000 OA
BRANCH  18  19
ATOM     19  C   UNL     1       0.966  10.597  18.481  0.00  0.00    +0.000 C 
BRANCH  19  21
ATOM     20  C   UNL     1       2.491  12.539  18.153  0.00  0.00    +0.000 C 
ATOM     21  C   UNL     1       1.591  11.898  18.914  0.00  0.00    +0.000 C 
ATOM     22  C   UNL     1       1.179  12.416  20.263  0.00  0.00    +0.000 C 
ENDBRANCH  19  21
ENDBRANCH  18  19
ENDBRANCH  10  18
ENDBRANCH   1  13
BRANCH   7  23
ATOM     23  C   UNL     1       5.106   4.189  17.784  0.00  0.00    +0.000 A 
ATOM     24  C   UNL     1       4.728   3.890  16.454  0.00  0.00    +0.000 A 
ATOM     25  C   UNL     1       5.477   4.334  15.363  0.00  0.00    +0.000 A 
ATOM     26  C   UNL     1       6.608   5.112  15.575  0.00  0.00    +0.000 A 
ATOM     27  C   UNL     1       7.047   5.359  16.874  0.00  0.00    +0.000 A 
ATOM     28  C   UNL     1       6.341   4.859  17.977  0.00  0.00    +0.000 A 
BRANCH  28  29
ATOM     29  O   UNL     1       6.760   4.981  19.276  0.00  0.00    +0.000 OA
ATOM     30  C   UNL     1       7.926   5.738  19.565  0.00  0.00    +0.000 C 
ENDBRANCH  28  29
ENDBRANCH   7  23
TORSDOF 7
ENDMDL
MODEL 6
REMARK VINA RESULT:      -7.2      2.330      4.107
REMARK  Name = 
REMARK  9 active torsions:
REMARK  status: ('A' for Active; 'I' for Inactive)
REMARK    1  A    between atoms: C_2  and  C_3
REMARK    2  A    between atoms: C_2  and  C_4
REMARK    3  A    between atoms: C_4  and  O_5
REMARK    4  A    between atoms: O_5  and  C_6
REMARK    5  A    between atoms: C_9  and  C_10
REMARK    6  A    between atoms: C_16  and  C_17
REMARK    7  A    between atoms: C_22  and  O_23
REMARK    8  A    between atoms: O_23  and  C_24
REMARK    9  A    between atoms: C_25  and  O_26
REMARK                            x       y       z     vdW  Elec       q    Type
REMARK                         _______ _______ _______ _____ _____    ______ ____
ROOT
ATOM      1  C   UNL     1       4.217   5.800  17.700  0.00  0.00    +0.000 A 
ATOM      2  N   UNL     1       5.304   6.331  17.068  0.00  0.00    +0.000 NA
ATOM      3  C   UNL     1       6.154   5.513  16.459  0.00  0.00    +0.000 A 
ATOM      4  N   UNL     1       7.198   6.094  15.766  0.00  0.00    +0.000 N 
ATOM      5  N   UNL     1       6.070   4.195  16.482  0.00  0.00    +0.000 NA
ATOM      6  C   UNL     1       4.975   3.684  17.091  0.00  0.00    +0.000 A 
ATOM      7  C   UNL     1       3.970   4.420  17.707  0.00  0.00    +0.000 A 
ATOM      8  H   UNL     1       7.344   7.039  16.088  0.00  0.00    +0.000 HD
ATOM      9  H   UNL     1       7.995   5.470  15.746  0.00  0.00    +0.000 HD
ENDROOT
BRANCH   1  13
ATOM     10  C   UNL     1       1.481   8.862  19.072  0.00  0.00    +0.000 A 
ATOM     11  C   UNL     1       2.143   8.963  17.855  0.00  0.00    +0.000 A 
ATOM     12  C   UNL     1       3.049   7.975  17.468  0.00  0.00    +0.000 A 
ATOM     13  C   UNL     1       3.353   6.861  18.285  0.00  0.00    +0.000 A 
ATOM     14  C   UNL     1       2.768   6.858  19.565  0.00  0.00    +0.000 A 
ATOM     15  C   UNL     1       1.826   7.824  19.940  0.00  0.00    +0.000 A 
BRANCH  14  16
ATOM     16  O   UNL     1       3.040   5.926  20.531  0.00  0.00    +0.000 OA
ATOM     17  H   UNL     1       2.228   5.698  21.000  0.00  0.00    +0.000 HD
ENDBRANCH  14  16
BRANCH  10  18
ATOM     18  O   UNL     1       0.487   9.701  19.503  0.00  0.00    +0.000 OA
BRANCH  18  19
ATOM     19  C   UNL     1       0.183  10.793  18.631  0.00  0.00    +0.000 C 
BRANCH  19  21
ATOM     20  C   UNL     1      -1.712   9.937  17.259  0.00  0.00    +0.000 C 
ATOM     21  C   UNL     1      -1.271  10.740  18.239  0.00  0.00    +0.000 C 
ATOM     22  C   UNL     1      -2.194  11.668  18.980  0.00  0.00    +0.000 C 
ENDBRANCH  19  21
ENDBRANCH  18  19
ENDBRANCH  10  18
ENDBRANCH   1  13
BRANCH   7  23
ATOM     23  C   UNL     1       2.796   3.730  18.317  0.00  0.00    +0.000 A 
ATOM     24  C   UNL     1       1.533   3.826  17.689  0.00  0.00    +0.000 A 
ATOM     25  C   UNL     1       0.444   3.062  18.112  0.00  0.00    +0.000 A 
ATOM     26  C   UNL     1       0.602   2.162  19.159  0.00  0.00    +0.000 A 
ATOM     27  C   UNL     1       1.812   2.101  19.846  0.00  0.00    +0.000 A 
ATOM     28  C   UNL     1       2.891   2.914  19.473  0.00  0.00    +0.000 A 
BRANCH  28  29
ATOM     29  O   UNL     1       4.077   2.977  20.155  0.00  0.00    +0.000 OA
ATOM     30  C   UNL     1       4.760   1.775  20.479  0.00  0.00    +0.000 C 
ENDBRANCH  28  29
ENDBRANCH   7  23
TORSDOF 7
ENDMDL
MODEL 7
REMARK VINA RESULT:      -7.2      3.684      6.766
REMARK  Name = 
REMARK  9 active torsions:
REMARK  status: ('A' for Active; 'I' for Inactive)
REMARK    1  A    between atoms: C_2  and  C_3
REMARK    2  A    between atoms: C_2  and  C_4
REMARK    3  A    between atoms: C_4  and  O_5
REMARK    4  A    between atoms: O_5  and  C_6
REMARK    5  A    between atoms: C_9  and  C_10
REMARK    6  A    between atoms: C_16  and  C_17
REMARK    7  A    between atoms: C_22  and  O_23
REMARK    8  A    between atoms: O_23  and  C_24
REMARK    9  A    between atoms: C_25  and  O_26
REMARK                            x       y       z     vdW  Elec       q    Type
REMARK                         _______ _______ _______ _____ _____    ______ ____
ROOT
ATOM      1  C   UNL     1       6.430   5.720  16.496  0.00  0.00    +0.000 A 
ATOM      2  N   UNL     1       7.088   5.278  15.386  0.00  0.00    +0.000 NA
ATOM      3  C   UNL     1       6.456   4.464  14.548  0.00  0.00    +0.000 A 
ATOM      4  N   UNL     1       7.129   4.099  13.398  0.00  0.00    +0.000 N 
ATOM      5  N   UNL     1       5.244   3.980  14.749  0.00  0.00    +0.000 NA
ATOM      6  C   UNL     1       4.595   4.448  15.840  0.00  0.00    +0.000 A 
ATOM      7  C   UNL     1       5.105   5.353  16.763  0.00  0.00    +0.000 A 
ATOM      8  H   UNL     1       8.121   4.248  13.515  0.00  0.00    +0.000 HD
ATOM      9  H   UNL     1       6.818   3.189  13.084  0.00  0.00    +0.000 HD
ENDROOT
BRANCH   1  13
ATOM     10  C   UNL     1       8.578   8.702  18.787  0.00  0.00    +0.000 A 
ATOM     11  C   UNL     1       8.084   8.970  17.517  0.00  0.00    +0.000 A 
ATOM     12  C   UNL     1       7.434   7.969  16.794  0.00  0.00    +0.000 A 
ATOM     13  C   UNL     1       7.272   6.655  17.293  0.00  0.00    +0.000 A 
ATOM     14  C   UNL     1       7.900   6.382  18.522  0.00  0.00    +0.000 A 
ATOM     15  C   UNL     1       8.514   7.393  19.270  0.00  0.00    +0.000 A 
BRANCH  14  16
ATOM     16  O   UNL     1       7.948   5.140  19.099  0.00  0.00    +0.000 OA
ATOM     17  H   UNL     1       7.274   4.573  18.706  0.00  0.00    +0.000 HD
ENDBRANCH  14  16
BRANCH  10  18
ATOM     18  O   UNL     1       9.123   9.630  19.635  0.00  0.00    +0.000 OA
BRANCH  18  19
ATOM     19  C   UNL     1       9.091  10.982  19.169  0.00  0.00    +0.000 C 
BRANCH  19  21
ATOM     20  C   UNL     1      11.146  11.621  17.913  0.00  0.00    +0.000 C 
ATOM     21  C   UNL     1      10.496  11.522  19.082  0.00  0.00    +0.000 C 
ATOM     22  C   UNL     1      11.142  11.906  20.384  0.00  0.00    +0.000 C 
ENDBRANCH  19  21
ENDBRANCH  18  19
ENDBRANCH  10  18
ENDBRANCH   1  13
BRANCH   7  23
ATOM     23  C   UNL     1       4.268   5.811  17.910  0.00  0.00    +0.000 A 
ATOM     24  C   UNL     1       3.521   7.006  17.790  0.00  0.00    +0.000 A 
ATOM     25  C   UNL     1       2.590   7.388  18.757  0.00  0.00    +0.000 A 
ATOM     26  C   UNL     1       2.364   6.568  19.856  0.00  0.00    +0.000 A 
ATOM     27  C   UNL     1       3.138   5.425  20.041  0.00  0.00    +0.000 A 
ATOM     28  C   UNL     1       4.124   5.069  19.110  0.00  0.00    +0.000 A 
BRANCH  28  29
ATOM     29  O   UNL     1       4.985   4.015  19.269  0.00  0.00    +0.000 OA
ATOM     30  C   UNL     1       4.473   2.749  19.658  0.00  0.00    +0.000 C 
ENDBRANCH  28  29
ENDBRANCH   7  23
TORSDOF 7
ENDMDL
MODEL 8
REMARK VINA RESULT:      -7.1      1.128      1.158
REMARK  Name = 
REMARK  9 active torsions:
REMARK  status: ('A' for Active; 'I' for Inactive)
REMARK    1  A    between atoms: C_2  and  C_3
REMARK    2  A    between atoms: C_2  and  C_4
REMARK    3  A    between atoms: C_4  and  O_5
REMARK    4  A    between atoms: O_5  and  C_6
REMARK    5  A    between atoms: C_9  and  C_10
REMARK    6  A    between atoms: C_16  and  C_17
REMARK    7  A    between atoms: C_22  and  O_23
REMARK    8  A    between atoms: O_23  and  C_24
REMARK    9  A    between atoms: C_25  and  O_26
REMARK                            x       y       z     vdW  Elec       q    Type
REMARK                         _______ _______ _______ _____ _____    ______ ____
ROOT
ATOM      1  C   UNL     1       2.839   4.987  19.360  0.00  0.00    +0.000 A 
ATOM      2  N   UNL     1       1.721   4.401  19.878  0.00  0.00    +0.000 NA
ATOM      3  C   UNL     1       1.759   3.111  20.191  0.00  0.00    +0.000 A 
ATOM      4  N   UNL     1       0.632   2.574  20.784  0.00  0.00    +0.000 N 
ATOM      5  N   UNL     1       2.790   2.317  19.963  0.00  0.00    +0.000 NA
ATOM      6  C   UNL     1       3.899   2.917  19.473  0.00  0.00    +0.000 A 
ATOM      7  C   UNL     1       4.026   4.266  19.166  0.00  0.00    +0.000 A 
ATOM      8  H   UNL     1      -0.168   3.162  20.603  0.00  0.00    +0.000 HD
ATOM      9  H   UNL     1       0.558   1.589  20.565  0.00  0.00    +0.000 HD
ENDROOT
BRANCH   1  13
ATOM     10  C   UNL     1       2.048   9.111  18.307  0.00  0.00    +0.000 A 
ATOM     11  C   UNL     1       2.729   8.255  17.451  0.00  0.00    +0.000 A 
ATOM     12  C   UNL     1       3.001   6.944  17.846  0.00  0.00    +0.000 A 
ATOM     13  C   UNL     1       2.631   6.440  19.114  0.00  0.00    +0.000 A 
ATOM     14  C   UNL     1       2.064   7.370  20.005  0.00  0.00    +0.000 A 
ATOM     15  C   UNL     1       1.750   8.673  19.599  0.00  0.00    +0.000 A 
BRANCH  14  16
ATOM     16  O   UNL     1       1.753   7.092  21.310  0.00  0.00    +0.000 OA
ATOM     17  H   UNL     1       2.547   6.811  21.780  0.00  0.00    +0.000 HD
ENDBRANCH  14  16
BRANCH  10  18
ATOM     18  O   UNL     1       1.621  10.373  17.987  0.00  0.00    +0.000 OA
BRANCH  18  19
ATOM     19  C   UNL     1       0.953  11.081  19.036  0.00  0.00    +0.000 C 
BRANCH  19  21
ATOM     20  C   UNL     1      -1.390  10.545  18.383  0.00  0.00    +0.000 C 
ATOM     21  C   UNL     1      -0.434  11.463  18.587  0.00  0.00    +0.000 C 
ATOM     22  C   UNL     1      -0.673  12.927  18.341  0.00  0.00    +0.000 C 
ENDBRANCH  19  21
ENDBRANCH  18  19
ENDBRANCH  10  18
ENDBRANCH   1  13
BRANCH   7  23
ATOM     23  C   UNL     1       5.320   4.806  18.658  0.00  0.00    +0.000 A 
ATOM     24  C   UNL     1       6.209   5.437  19.559  0.00  0.00    +0.000 A 
ATOM     25  C   UNL     1       7.502   5.800  19.179  0.00  0.00    +0.000 A 
ATOM     26  C   UNL     1       7.947   5.515  17.893  0.00  0.00    +0.000 A 
ATOM     27  C   UNL     1       7.070   4.964  16.962  0.00  0.00    +0.000 A 
ATOM     28  C   UNL     1       5.748   4.659  17.314  0.00  0.00    +0.000 A 
BRANCH  28  29
ATOM     29  O   UNL     1       4.804   4.203  16.432  0.00  0.00    +0.000 OA
ATOM     30  C   UNL     1       5.060   4.275  15.037  0.00  0.00    +0.000 C 
ENDBRANCH  28  29
ENDBRANCH   7  23
TORSDOF 7
ENDMDL
MODEL 9
REMARK VINA RESULT:      -7.1      2.578      4.390
REMARK  Name = 
REMARK  9 active torsions:
REMARK  status: ('A' for Active; 'I' for Inactive)
REMARK    1  A    between atoms: C_2  and  C_3
REMARK    2  A    between atoms: C_2  and  C_4
REMARK    3  A    between atoms: C_4  and  O_5
REMARK    4  A    between atoms: O_5  and  C_6
REMARK    5  A    between atoms: C_9  and  C_10
REMARK    6  A    between atoms: C_16  and  C_17
REMARK    7  A    between atoms: C_22  and  O_23
REMARK    8  A    between atoms: O_23  and  C_24
REMARK    9  A    between atoms: C_25  and  O_26
REMARK                            x       y       z     vdW  Elec       q    Type
REMARK                         _______ _______ _______ _____ _____    ______ ____
ROOT
ATOM      1  C   UNL     1       4.253   5.914  17.784  0.00  0.00    +0.000 A 
ATOM      2  N   UNL     1       5.353   6.469  17.196  0.00  0.00    +0.000 NA
ATOM      3  C   UNL     1       6.226   5.673  16.590  0.00  0.00    +0.000 A 
ATOM      4  N   UNL     1       7.285   6.278  15.942  0.00  0.00    +0.000 N 
ATOM      5  N   UNL     1       6.152   4.354  16.578  0.00  0.00    +0.000 NA
ATOM      6  C   UNL     1       5.043   3.820  17.141  0.00  0.00    +0.000 A 
ATOM      7  C   UNL     1       4.016   4.533  17.748  0.00  0.00    +0.000 A 
ATOM      8  H   UNL     1       7.415   7.216  16.292  0.00  0.00    +0.000 HD
ATOM      9  H   UNL     1       8.086   5.661  15.928  0.00  0.00    +0.000 HD
ENDROOT
BRANCH   1  13
ATOM     10  C   UNL     1       1.461   8.926  19.154  0.00  0.00    +0.000 A 
ATOM     11  C   UNL     1       2.168   9.069  17.967  0.00  0.00    +0.000 A 
ATOM     12  C   UNL     1       3.090   8.095  17.581  0.00  0.00    +0.000 A 
ATOM     13  C   UNL     1       3.365   6.954  18.371  0.00  0.00    +0.000 A 
ATOM     14  C   UNL     1       2.732   6.908  19.627  0.00  0.00    +0.000 A 
ATOM     15  C   UNL     1       1.774   7.859  19.998  0.00  0.00    +0.000 A 
BRANCH  14  16
ATOM     16  O   UNL     1       2.969   5.943  20.570  0.00  0.00    +0.000 OA
ATOM     17  H   UNL     1       3.859   5.588  20.455  0.00  0.00    +0.000 HD
ENDBRANCH  14  16
BRANCH  10  18
ATOM     18  O   UNL     1       0.449   9.748  19.575  0.00  0.00    +0.000 OA
BRANCH  18  19
ATOM     19  C   UNL     1      -0.302   9.275  20.698  0.00  0.00    +0.000 C 
BRANCH  19  21
ATOM     20  C   UNL     1      -0.141  11.593  21.597  0.00  0.00    +0.000 C 
ATOM     21  C   UNL     1      -0.213  10.273  21.824  0.00  0.00    +0.000 C 
ATOM     22  C   UNL     1      -0.168   9.703  23.214  0.00  0.00    +0.000 C 
ENDBRANCH  19  21
ENDBRANCH  18  19
ENDBRANCH  10  18
ENDBRANCH   1  13
BRANCH   7  23
ATOM     23  C   UNL     1       2.831   3.820  18.307  0.00  0.00    +0.000 A 
ATOM     24  C   UNL     1       1.578   3.947  17.662  0.00  0.00    +0.000 A 
ATOM     25  C   UNL     1       0.481   3.168  18.033  0.00  0.00    +0.000 A 
ATOM     26  C   UNL     1       0.619   2.222  19.041  0.00  0.00    +0.000 A 
ATOM     27  C   UNL     1       1.818   2.126  19.745  0.00  0.00    +0.000 A 
ATOM     28  C   UNL     1       2.904   2.952  19.426  0.00  0.00    +0.000 A 
BRANCH  28  29
ATOM     29  O   UNL     1       4.079   2.982  20.130  0.00  0.00    +0.000 OA
ATOM     30  C   UNL     1       4.724   1.761  20.463  0.00  0.00    +0.000 C 
ENDBRANCH  28  29
ENDBRANCH   7  23
TORSDOF 7
ENDMDL
