MODEL 1
REMARK VINA RESULT:      -5.5      0.000      0.000
REMARK  Name = 
REMARK  7 active torsions:
REMARK  status: ('A' for Active; 'I' for Inactive)
REMARK    1  A    between atoms: C_1  and  O_2
REMARK    2  A    between atoms: O_2  and  C_3
REMARK    3  A    between atoms: C_6  and  C_8
REMARK    4  A    between atoms: C_8  and  C_9
REMARK    5  A    between atoms: C_9  and  C_10
REMARK    6  A    between atoms: C_9  and  C_11
REMARK    7  A    between atoms: N_16  and  C_17
REMARK                            x       y       z     vdW  Elec       q    Type
REMARK                         _______ _______ _______ _____ _____    ______ ____
ROOT
ATOM      1  C   UNL     1      -3.736  13.090  20.943  0.00  0.00    +0.000 C 
ATOM      2  C   UNL     1      -3.208  12.452  22.274  0.00  0.00    +0.000 C 
ATOM      3  N   UNL     1      -3.653  13.143  23.507  0.00  0.00    +0.000 N 
ATOM      4  C   UNL     1      -3.097  14.388  23.757  0.00  0.00    +0.000 C 
ATOM      5  O   UNL     1      -2.254  14.866  22.994  0.00  0.00    +0.000 OA
ATOM      6  C   UNL     1      -4.719  12.522  24.312  0.00  0.00    +0.000 C 
ATOM      7  C   UNL     1      -6.035  13.306  24.271  0.00  0.00    +0.000 C 
ATOM      8  C   UNL     1      -6.910  12.600  23.285  0.00  0.00    +0.000 C 
ATOM      9  O   UNL     1      -7.669  11.684  23.562  0.00  0.00    +0.000 OA
ATOM     10  N   UNL     1      -6.495  13.024  22.013  0.00  0.00    +0.000 N 
ATOM     11  C   UNL     1      -7.123  14.229  21.473  0.00  0.00    +0.000 C 
ATOM     12  C   UNL     1      -6.116  12.085  21.034  0.00  0.00    +0.000 A 
ATOM     13  C   UNL     1      -7.085  11.201  20.554  0.00  0.00    +0.000 A 
ATOM     14  C   UNL     1      -7.030  10.814  19.223  0.00  0.00    +0.000 A 
ATOM     15  C   UNL     1      -6.018  11.313  18.410  0.00  0.00    +0.000 A 
ATOM     16  C   UNL     1      -4.959  12.054  18.959  0.00  0.00    +0.000 A 
ATOM     17  C   UNL     1      -4.939  12.373  20.318  0.00  0.00    +0.000 A 
ENDROOT
BRANCH   1  19
ATOM     18  C   UNL     1      -1.497  12.354  20.423  0.00  0.00    +0.000 C 
ATOM     19  O   UNL     1      -2.657  13.047  19.983  0.00  0.00    +0.000 OA
ENDBRANCH   1  19
BRANCH   4  20
ATOM     20  C   UNL     1      -3.624  15.222  24.921  0.00  0.00    +0.000 C 
BRANCH  20  21
ATOM     21  C   UNL     1      -3.690  16.730  24.666  0.00  0.00    +0.000 C 
ATOM     22  C   UNL     1      -5.005  17.376  25.094  0.00  0.00    +0.000 C 
ATOM     23  C   UNL     1      -2.533  17.403  25.413  0.00  0.00    +0.000 C 
ENDBRANCH  20  21
ENDBRANCH   4  20
TORSDOF 3
ENDMDL
MODEL 2
REMARK VINA RESULT:      -5.4     12.217     14.894
REMARK  Name = 
REMARK  7 active torsions:
REMARK  status: ('A' for Active; 'I' for Inactive)
REMARK    1  A    between atoms: C_1  and  O_2
REMARK    2  A    between atoms: O_2  and  C_3
REMARK    3  A    between atoms: C_6  and  C_8
REMARK    4  A    between atoms: C_8  and  C_9
REMARK    5  A    between atoms: C_9  and  C_10
REMARK    6  A    between atoms: C_9  and  C_11
REMARK    7  A    between atoms: N_16  and  C_17
REMARK                            x       y       z     vdW  Elec       q    Type
REMARK                         _______ _______ _______ _____ _____    ______ ____
ROOT
ATOM      1  C   UNL     1       8.874  15.558  20.268  0.00  0.00    +0.000 C 
ATOM      2  C   UNL     1       9.662  14.966  21.487  0.00  0.00    +0.000 C 
ATOM      3  N   UNL     1       9.292  13.575  21.841  0.00  0.00    +0.000 N 
ATOM      4  C   UNL     1       8.046  13.391  22.419  0.00  0.00    +0.000 C 
ATOM      5  O   UNL     1       7.308  14.353  22.645  0.00  0.00    +0.000 OA
ATOM      6  C   UNL     1      10.211  12.489  21.461  0.00  0.00    +0.000 C 
ATOM      7  C   UNL     1       9.647  11.583  20.360  0.00  0.00    +0.000 C 
ATOM      8  C   UNL     1      10.281  12.035  19.084  0.00  0.00    +0.000 C 
ATOM      9  O   UNL     1      11.339  11.609  18.646  0.00  0.00    +0.000 OA
ATOM     10  N   UNL     1       9.566  13.168  18.666  0.00  0.00    +0.000 N 
ATOM     11  C   UNL     1       8.393  12.944  17.822  0.00  0.00    +0.000 C 
ATOM     12  C   UNL     1      10.234  14.382  18.411  0.00  0.00    +0.000 A 
ATOM     13  C   UNL     1      11.151  14.425  17.358  0.00  0.00    +0.000 A 
ATOM     14  C   UNL     1      11.267  15.598  16.627  0.00  0.00    +0.000 A 
ATOM     15  C   UNL     1      10.474  16.689  16.960  0.00  0.00    +0.000 A 
ATOM     16  C   UNL     1       9.695  16.678  18.128  0.00  0.00    +0.000 A 
ATOM     17  C   UNL     1       9.638  15.543  18.938  0.00  0.00    +0.000 A 
ENDROOT
BRANCH   1  19
ATOM     18  C   UNL     1       9.043  17.382  21.840  0.00  0.00    +0.000 C 
ATOM     19  O   UNL     1       8.568  16.936  20.577  0.00  0.00    +0.000 OA
ENDBRANCH   1  19
BRANCH   4  20
ATOM     20  C   UNL     1       7.537  11.973  22.664  0.00  0.00    +0.000 C 
BRANCH  20  21
ATOM     21  C   UNL     1       7.595  11.502  24.119  0.00  0.00    +0.000 C 
ATOM     22  C   UNL     1       8.539  12.317  25.000  0.00  0.00    +0.000 C 
ATOM     23  C   UNL     1       6.181  11.560  24.708  0.00  0.00    +0.000 C 
ENDBRANCH  20  21
ENDBRANCH   4  20
TORSDOF 3
ENDMDL
MODEL 3
REMARK VINA RESULT:      -5.2     10.920     14.331
REMARK  Name = 
REMARK  7 active torsions:
REMARK  status: ('A' for Active; 'I' for Inactive)
REMARK    1  A    between atoms: C_1  and  O_2
REMARK    2  A    between atoms: O_2  and  C_3
REMARK    3  A    between atoms: C_6  and  C_8
REMARK    4  A    between atoms: C_8  and  C_9
REMARK    5  A    between atoms: C_9  and  C_10
REMARK    6  A    between atoms: C_9  and  C_11
REMARK    7  A    between atoms: N_16  and  C_17
REMARK                            x       y       z     vdW  Elec       q    Type
REMARK                         _______ _______ _______ _____ _____    ______ ____
ROOT
ATOM      1  C   UNL     1       4.292   3.453  18.572  0.00  0.00    +0.000 C 
ATOM      2  C   UNL     1       5.651   4.215  18.396  0.00  0.00    +0.000 C 
ATOM      3  N   UNL     1       5.779   4.956  17.119  0.00  0.00    +0.000 N 
ATOM      4  C   UNL     1       5.935   4.195  15.971  0.00  0.00    +0.000 C 
ATOM      5  O   UNL     1       5.989   2.963  16.035  0.00  0.00    +0.000 OA
ATOM      6  C   UNL     1       5.626   6.421  17.141  0.00  0.00    +0.000 C 
ATOM      7  C   UNL     1       4.346   6.900  16.445  0.00  0.00    +0.000 C 
ATOM      8  C   UNL     1       3.359   7.174  17.534  0.00  0.00    +0.000 C 
ATOM      9  O   UNL     1       3.238   8.246  18.107  0.00  0.00    +0.000 OA
ATOM     10  N   UNL     1       2.820   5.932  17.902  0.00  0.00    +0.000 N 
ATOM     11  C   UNL     1       1.645   5.469  17.165  0.00  0.00    +0.000 C 
ATOM     12  C   UNL     1       2.865   5.501  19.242  0.00  0.00    +0.000 A 
ATOM     13  C   UNL     1       2.148   6.228  20.196  0.00  0.00    +0.000 A 
ATOM     14  C   UNL     1       1.569   5.544  21.255  0.00  0.00    +0.000 A 
ATOM     15  C   UNL     1       1.717   4.164  21.336  0.00  0.00    +0.000 A 
ATOM     16  C   UNL     1       2.587   3.485  20.469  0.00  0.00    +0.000 A 
ATOM     17  C   UNL     1       3.262   4.167  19.455  0.00  0.00    +0.000 A 
ENDROOT
BRANCH   1  19
ATOM     18  C   UNL     1       3.973   1.060  18.566  0.00  0.00    +0.000 C 
ATOM     19  O   UNL     1       4.586   2.180  19.190  0.00  0.00    +0.000 OA
ENDBRANCH   1  19
BRANCH   4  20
ATOM     20  C   UNL     1       5.916   4.881  14.609  0.00  0.00    +0.000 C 
BRANCH  20  21
ATOM     21  C   UNL     1       6.659   4.141  13.494  0.00  0.00    +0.000 C 
ATOM     22  C   UNL     1       5.741   3.484  12.466  0.00  0.00    +0.000 C 
ATOM     23  C   UNL     1       7.584   5.134  12.781  0.00  0.00    +0.000 C 
ENDBRANCH  20  21
ENDBRANCH   4  20
TORSDOF 3
ENDMDL
MODEL 4
REMARK VINA RESULT:      -5.2      3.872      7.312
REMARK  Name = 
REMARK  7 active torsions:
REMARK  status: ('A' for Active; 'I' for Inactive)
REMARK    1  A    between atoms: C_1  and  O_2
REMARK    2  A    between atoms: O_2  and  C_3
REMARK    3  A    between atoms: C_6  and  C_8
REMARK    4  A    between atoms: C_8  and  C_9
REMARK    5  A    between atoms: C_9  and  C_10
REMARK    6  A    between atoms: C_9  and  C_11
REMARK    7  A    between atoms: N_16  and  C_17
REMARK                            x       y       z     vdW  Elec       q    Type
REMARK                         _______ _______ _______ _____ _____    ______ ____
ROOT
ATOM      1  C   UNL     1      -0.883  11.900  22.123  0.00  0.00    +0.000 C 
ATOM      2  C   UNL     1       0.410  11.513  21.325  0.00  0.00    +0.000 C 
ATOM      3  N   UNL     1       0.223  11.424  19.858  0.00  0.00    +0.000 N 
ATOM      4  C   UNL     1      -0.517  10.349  19.390  0.00  0.00    +0.000 C 
ATOM      5  O   UNL     1      -0.965   9.505  20.170  0.00  0.00    +0.000 OA
ATOM      6  C   UNL     1       0.734  12.522  19.019  0.00  0.00    +0.000 C 
ATOM      7  C   UNL     1      -0.382  13.353  18.375  0.00  0.00    +0.000 C 
ATOM      8  C   UNL     1      -0.521  14.583  19.214  0.00  0.00    +0.000 C 
ATOM      9  O   UNL     1       0.107  15.616  19.039  0.00  0.00    +0.000 OA
ATOM     10  N   UNL     1      -1.291  14.218  20.329  0.00  0.00    +0.000 N 
ATOM     11  C   UNL     1      -2.743  14.328  20.203  0.00  0.00    +0.000 C 
ATOM     12  C   UNL     1      -0.809  14.437  21.634  0.00  0.00    +0.000 A 
ATOM     13  C   UNL     1      -0.610  15.754  22.054  0.00  0.00    +0.000 A 
ATOM     14  C   UNL     1      -0.851  16.071  23.383  0.00  0.00    +0.000 A 
ATOM     15  C   UNL     1      -1.281  15.076  24.253  0.00  0.00    +0.000 A 
ATOM     16  C   UNL     1      -1.301  13.732  23.849  0.00  0.00    +0.000 A 
ATOM     17  C   UNL     1      -0.965  13.373  22.542  0.00  0.00    +0.000 A 
ENDROOT
BRANCH   1  19
ATOM     18  C   UNL     1      -0.255   9.843  23.221  0.00  0.00    +0.000 C 
ATOM     19  O   UNL     1      -0.903  11.104  23.329  0.00  0.00    +0.000 OA
ENDBRANCH   1  19
BRANCH   4  20
ATOM     20  C   UNL     1      -0.881  10.279  17.910  0.00  0.00    +0.000 C 
BRANCH  20  21
ATOM     21  C   UNL     1      -2.367  10.068  17.612  0.00  0.00    +0.000 C 
ATOM     22  C   UNL     1      -3.268  11.192  18.120  0.00  0.00    +0.000 C 
ATOM     23  C   UNL     1      -2.547   9.927  16.096  0.00  0.00    +0.000 C 
ENDBRANCH  20  21
ENDBRANCH   4  20
TORSDOF 3
ENDMDL
MODEL 5
REMARK VINA RESULT:      -5.2      2.868      5.733
REMARK  Name = 
REMARK  7 active torsions:
REMARK  status: ('A' for Active; 'I' for Inactive)
REMARK    1  A    between atoms: C_1  and  O_2
REMARK    2  A    between atoms: O_2  and  C_3
REMARK    3  A    between atoms: C_6  and  C_8
REMARK    4  A    between atoms: C_8  and  C_9
REMARK    5  A    between atoms: C_9  and  C_10
REMARK    6  A    between atoms: C_9  and  C_11
REMARK    7  A    between atoms: N_16  and  C_17
REMARK                            x       y       z     vdW  Elec       q    Type
REMARK                         _______ _______ _______ _____ _____    ______ ____
ROOT
ATOM      1  C   UNL     1      -4.219  12.372  20.663  0.00  0.00    +0.000 C 
ATOM      2  C   UNL     1      -2.914  13.224  20.496  0.00  0.00    +0.000 C 
ATOM      3  N   UNL     1      -1.690  12.429  20.240  0.00  0.00    +0.000 N 
ATOM      4  C   UNL     1      -1.198  11.686  21.301  0.00  0.00    +0.000 C 
ATOM      5  O   UNL     1      -1.750  11.720  22.404  0.00  0.00    +0.000 OA
ATOM      6  C   UNL     1      -1.151  12.397  18.869  0.00  0.00    +0.000 C 
ATOM      7  C   UNL     1      -1.299  11.026  18.199  0.00  0.00    +0.000 C 
ATOM      8  C   UNL     1      -2.494  11.128  17.305  0.00  0.00    +0.000 C 
ATOM      9  O   UNL     1      -2.460  11.497  16.141  0.00  0.00    +0.000 OA
ATOM     10  N   UNL     1      -3.619  10.966  18.128  0.00  0.00    +0.000 N 
ATOM     11  C   UNL     1      -4.093   9.601  18.349  0.00  0.00    +0.000 C 
ATOM     12  C   UNL     1      -4.637  11.939  18.149  0.00  0.00    +0.000 A 
ATOM     13  C   UNL     1      -5.374  12.150  16.981  0.00  0.00    +0.000 A 
ATOM     14  C   UNL     1      -6.717  12.477  17.094  0.00  0.00    +0.000 A 
ATOM     15  C   UNL     1      -7.289  12.583  18.357  0.00  0.00    +0.000 A 
ATOM     16  C   UNL     1      -6.489  12.541  19.510  0.00  0.00    +0.000 A 
ATOM     17  C   UNL     1      -5.115  12.314  19.418  0.00  0.00    +0.000 A 
ENDROOT
BRANCH   1  19
ATOM     18  C   UNL     1      -4.400  14.112  22.326  0.00  0.00    +0.000 C 
ATOM     19  O   UNL     1      -4.994  12.968  21.727  0.00  0.00    +0.000 OA
ENDBRANCH   1  19
BRANCH   4  20
ATOM     20  C   UNL     1      -0.035  10.726  21.066  0.00  0.00    +0.000 C 
BRANCH  20  21
ATOM     21  C   UNL     1      -0.183   9.350  21.721  0.00  0.00    +0.000 C 
ATOM     22  C   UNL     1       0.739   8.282  21.137  0.00  0.00    +0.000 C 
ATOM     23  C   UNL     1       0.096   9.490  23.221  0.00  0.00    +0.000 C 
ENDBRANCH  20  21
ENDBRANCH   4  20
TORSDOF 3
ENDMDL
MODEL 6
REMARK VINA RESULT:      -5.2      2.562      3.854
REMARK  Name = 
REMARK  7 active torsions:
REMARK  status: ('A' for Active; 'I' for Inactive)
REMARK    1  A    between atoms: C_1  and  O_2
REMARK    2  A    between atoms: O_2  and  C_3
REMARK    3  A    between atoms: C_6  and  C_8
REMARK    4  A    between atoms: C_8  and  C_9
REMARK    5  A    between atoms: C_9  and  C_10
REMARK    6  A    between atoms: C_9  and  C_11
REMARK    7  A    between atoms: N_16  and  C_17
REMARK                            x       y       z     vdW  Elec       q    Type
REMARK                         _______ _______ _______ _____ _____    ______ ____
ROOT
ATOM      1  C   UNL     1      -3.420  13.052  19.936  0.00  0.00    +0.000 C 
ATOM      2  C   UNL     1      -4.112  12.601  21.268  0.00  0.00    +0.000 C 
ATOM      3  N   UNL     1      -5.546  12.960  21.368  0.00  0.00    +0.000 N 
ATOM      4  C   UNL     1      -5.840  14.303  21.544  0.00  0.00    +0.000 C 
ATOM      5  O   UNL     1      -4.937  15.138  21.639  0.00  0.00    +0.000 OA
ATOM      6  C   UNL     1      -6.548  11.899  21.167  0.00  0.00    +0.000 C 
ATOM      7  C   UNL     1      -7.349  12.068  19.870  0.00  0.00    +0.000 C 
ATOM      8  C   UNL     1      -6.735  11.133  18.878  0.00  0.00    +0.000 C 
ATOM      9  O   UNL     1      -7.070   9.968  18.724  0.00  0.00    +0.000 OA
ATOM     10  N   UNL     1      -5.592  11.776  18.381  0.00  0.00    +0.000 N 
ATOM     11  C   UNL     1      -5.766  12.647  17.220  0.00  0.00    +0.000 C 
ATOM     12  C   UNL     1      -4.332  11.148  18.445  0.00  0.00    +0.000 A 
ATOM     13  C   UNL     1      -4.139   9.977  17.708  0.00  0.00    +0.000 A 
ATOM     14  C   UNL     1      -2.889   9.739  17.155  0.00  0.00    +0.000 A 
ATOM     15  C   UNL     1      -1.872  10.667  17.348  0.00  0.00    +0.000 A 
ATOM     16  C   UNL     1      -2.041  11.740  18.237  0.00  0.00    +0.000 A 
ATOM     17  C   UNL     1      -3.260  11.945  18.885  0.00  0.00    +0.000 A 
ENDROOT
BRANCH   1  19
ATOM     18  C   UNL     1      -1.826  13.592  21.666  0.00  0.00    +0.000 C 
ATOM     19  O   UNL     1      -2.096  13.525  20.273  0.00  0.00    +0.000 OA
ENDBRANCH   1  19
BRANCH   4  20
ATOM     20  C   UNL     1      -7.294  14.762  21.498  0.00  0.00    +0.000 C 
BRANCH  20  21
ATOM     21  C   UNL     1      -7.916  15.097  22.856  0.00  0.00    +0.000 C 
ATOM     22  C   UNL     1      -7.366  14.267  24.013  0.00  0.00    +0.000 C 
ATOM     23  C   UNL     1      -7.681  16.584  23.148  0.00  0.00    +0.000 C 
ENDBRANCH  20  21
ENDBRANCH   4  20
TORSDOF 3
ENDMDL
MODEL 7
REMARK VINA RESULT:      -5.1     10.253     13.393
REMARK  Name = 
REMARK  7 active torsions:
REMARK  status: ('A' for Active; 'I' for Inactive)
REMARK    1  A    between atoms: C_1  and  O_2
REMARK    2  A    between atoms: O_2  and  C_3
REMARK    3  A    between atoms: C_6  and  C_8
REMARK    4  A    between atoms: C_8  and  C_9
REMARK    5  A    between atoms: C_9  and  C_10
REMARK    6  A    between atoms: C_9  and  C_11
REMARK    7  A    between atoms: N_16  and  C_17
REMARK                            x       y       z     vdW  Elec       q    Type
REMARK                         _______ _______ _______ _____ _____    ______ ____
ROOT
ATOM      1  C   UNL     1       3.054   6.214  19.108  0.00  0.00    +0.000 C 
ATOM      2  C   UNL     1       3.069   6.430  17.555  0.00  0.00    +0.000 C 
ATOM      3  N   UNL     1       4.364   6.122  16.905  0.00  0.00    +0.000 N 
ATOM      4  C   UNL     1       5.406   7.003  17.145  0.00  0.00    +0.000 C 
ATOM      5  O   UNL     1       5.235   8.004  17.847  0.00  0.00    +0.000 OA
ATOM      6  C   UNL     1       4.485   4.864  16.148  0.00  0.00    +0.000 C 
ATOM      7  C   UNL     1       5.415   3.847  16.820  0.00  0.00    +0.000 C 
ATOM      8  C   UNL     1       4.526   2.876  17.530  0.00  0.00    +0.000 C 
ATOM      9  O   UNL     1       4.069   1.861  17.028  0.00  0.00    +0.000 OA
ATOM     10  N   UNL     1       4.150   3.490  18.734  0.00  0.00    +0.000 N 
ATOM     11  C   UNL     1       5.027   3.291  19.887  0.00  0.00    +0.000 C 
ATOM     12  C   UNL     1       2.790   3.643  19.066  0.00  0.00    +0.000 A 
ATOM     13  C   UNL     1       2.027   2.491  19.277  0.00  0.00    +0.000 A 
ATOM     14  C   UNL     1       1.024   2.526  20.234  0.00  0.00    +0.000 A 
ATOM     15  C   UNL     1       0.808   3.696  20.953  0.00  0.00    +0.000 A 
ATOM     16  C   UNL     1       1.466   4.885  20.599  0.00  0.00    +0.000 A 
ATOM     17  C   UNL     1       2.409   4.900  19.570  0.00  0.00    +0.000 A 
ENDROOT
BRANCH   1  19
ATOM     18  C   UNL     1       1.939   8.329  18.780  0.00  0.00    +0.000 C 
ATOM     19  O   UNL     1       2.295   7.297  19.690  0.00  0.00    +0.000 OA
ENDBRANCH   1  19
BRANCH   4  20
ATOM     20  C   UNL     1       6.804   6.666  16.637  0.00  0.00    +0.000 C 
BRANCH  20  21
ATOM     21  C   UNL     1       7.932   6.849  17.656  0.00  0.00    +0.000 C 
ATOM     22  C   UNL     1       8.173   8.301  18.062  0.00  0.00    +0.000 C 
ATOM     23  C   UNL     1       7.598   6.026  18.906  0.00  0.00    +0.000 C 
ENDBRANCH  20  21
ENDBRANCH   4  20
TORSDOF 3
ENDMDL
MODEL 8
REMARK VINA RESULT:      -5.0     12.498     15.040
REMARK  Name = 
REMARK  7 active torsions:
REMARK  status: ('A' for Active; 'I' for Inactive)
REMARK    1  A    between atoms: C_1  and  O_2
REMARK    2  A    between atoms: O_2  and  C_3
REMARK    3  A    between atoms: C_6  and  C_8
REMARK    4  A    between atoms: C_8  and  C_9
REMARK    5  A    between atoms: C_9  and  C_10
REMARK    6  A    between atoms: C_9  and  C_11
REMARK    7  A    between atoms: N_16  and  C_17
REMARK                            x       y       z     vdW  Elec       q    Type
REMARK                         _______ _______ _______ _____ _____    ______ ____
ROOT
ATOM      1  C   UNL     1       9.424  12.535  20.725  0.00  0.00    +0.000 C 
ATOM      2  C   UNL     1      10.731  13.374  20.507  0.00  0.00    +0.000 C 
ATOM      3  N   UNL     1      10.532  14.640  19.764  0.00  0.00    +0.000 N 
ATOM      4  C   UNL     1      10.250  14.529  18.412  0.00  0.00    +0.000 C 
ATOM      5  O   UNL     1      10.199  13.423  17.867  0.00  0.00    +0.000 OA
ATOM      6  C   UNL     1      10.539  15.904  20.520  0.00  0.00    +0.000 C 
ATOM      7  C   UNL     1       9.162  16.575  20.580  0.00  0.00    +0.000 C 
ATOM      8  C   UNL     1       8.591  16.233  21.919  0.00  0.00    +0.000 C 
ATOM      9  O   UNL     1       8.760  16.892  22.933  0.00  0.00    +0.000 OA
ATOM     10  N   UNL     1       8.071  14.935  21.808  0.00  0.00    +0.000 N 
ATOM     11  C   UNL     1       6.687  14.805  21.357  0.00  0.00    +0.000 C 
ATOM     12  C   UNL     1       8.484  13.921  22.694  0.00  0.00    +0.000 A 
ATOM     13  C   UNL     1       8.172  14.058  24.049  0.00  0.00    +0.000 A 
ATOM     14  C   UNL     1       7.883  12.917  24.783  0.00  0.00    +0.000 A 
ATOM     15  C   UNL     1       7.911  11.678  24.154  0.00  0.00    +0.000 A 
ATOM     16  C   UNL     1       8.399  11.551  22.843  0.00  0.00    +0.000 A 
ATOM     17  C   UNL     1       8.793  12.675  22.116  0.00  0.00    +0.000 A 
ENDROOT
BRANCH   1  19
ATOM     18  C   UNL     1       9.292  10.568  19.331  0.00  0.00    +0.000 C 
ATOM     19  O   UNL     1       9.766  11.143  20.542  0.00  0.00    +0.000 OA
ENDBRANCH   1  19
BRANCH   4  20
ATOM     20  C   UNL     1       9.880  15.780  17.620  0.00  0.00    +0.000 C 
BRANCH  20  21
ATOM     21  C   UNL     1      11.054  16.498  16.948  0.00  0.00    +0.000 C 
ATOM     22  C   UNL     1      11.258  17.934  17.426  0.00  0.00    +0.000 C 
ATOM     23  C   UNL     1      12.332  15.694  17.209  0.00  0.00    +0.000 C 
ENDBRANCH  20  21
ENDBRANCH   4  20
TORSDOF 3
ENDMDL
MODEL 9
REMARK VINA RESULT:      -5.0      2.107      6.096
REMARK  Name = 
REMARK  7 active torsions:
REMARK  status: ('A' for Active; 'I' for Inactive)
REMARK    1  A    between atoms: C_1  and  O_2
REMARK    2  A    between atoms: O_2  and  C_3
REMARK    3  A    between atoms: C_6  and  C_8
REMARK    4  A    between atoms: C_8  and  C_9
REMARK    5  A    between atoms: C_9  and  C_10
REMARK    6  A    between atoms: C_9  and  C_11
REMARK    7  A    between atoms: N_16  and  C_17
REMARK                            x       y       z     vdW  Elec       q    Type
REMARK                         _______ _______ _______ _____ _____    ______ ____
ROOT
ATOM      1  C   UNL     1      -4.672  14.198  21.706  0.00  0.00    +0.000 C 
ATOM      2  C   UNL     1      -4.171  12.783  22.157  0.00  0.00    +0.000 C 
ATOM      3  N   UNL     1      -2.764  12.487  21.801  0.00  0.00    +0.000 N 
ATOM      4  C   UNL     1      -2.493  12.274  20.459  0.00  0.00    +0.000 C 
ATOM      5  O   UNL     1      -3.398  12.305  19.621  0.00  0.00    +0.000 OA
ATOM      6  C   UNL     1      -1.746  12.547  22.864  0.00  0.00    +0.000 C 
ATOM      7  C   UNL     1      -0.774  13.721  22.699  0.00  0.00    +0.000 C 
ATOM      8  C   UNL     1      -1.247  14.788  23.635  0.00  0.00    +0.000 C 
ATOM      9  O   UNL     1      -0.898  14.892  24.800  0.00  0.00    +0.000 OA
ATOM     10  N   UNL     1      -2.310  15.438  22.990  0.00  0.00    +0.000 N 
ATOM     11  C   UNL     1      -1.975  16.565  22.121  0.00  0.00    +0.000 C 
ATOM     12  C   UNL     1      -3.568  15.547  23.614  0.00  0.00    +0.000 A 
ATOM     13  C   UNL     1      -3.661  16.303  24.786  0.00  0.00    +0.000 A 
ATOM     14  C   UNL     1      -4.823  17.022  25.022  0.00  0.00    +0.000 A 
ATOM     15  C   UNL     1      -5.855  16.972  24.092  0.00  0.00    +0.000 A 
ATOM     16  C   UNL     1      -5.807  16.070  23.017  0.00  0.00    +0.000 A 
ATOM     17  C   UNL     1      -4.689  15.260  22.814  0.00  0.00    +0.000 A 
ENDROOT
BRANCH   1  19
ATOM     18  C   UNL     1      -6.547  12.727  21.319  0.00  0.00    +0.000 C 
ATOM     19  O   UNL     1      -6.028  14.048  21.229  0.00  0.00    +0.000 OA
ENDBRANCH   1  19
BRANCH   4  20
ATOM     20  C   UNL     1      -1.045  12.119  20.003  0.00  0.00    +0.000 C 
BRANCH  20  21
ATOM     21  C   UNL     1      -0.558  10.676  19.853  0.00  0.00    +0.000 C 
ATOM     22  C   UNL     1      -0.381  10.227  18.404  0.00  0.00    +0.000 C 
ATOM     23  C   UNL     1       0.778  10.532  20.591  0.00  0.00    +0.000 C 
ENDBRANCH  20  21
ENDBRANCH   4  20
TORSDOF 3
ENDMDL
