MODEL 1
REMARK VINA RESULT:      -8.2      0.000      0.000
REMARK  Name = 
REMARK  3 active torsions:
REMARK  status: ('A' for Active; 'I' for Inactive)
REMARK    1  A    between atoms: C_13  and  C_14
REMARK    2  A    between atoms: C_14  and  O_15
REMARK    3  A    between atoms: O_15  and  C_16
REMARK                            x       y       z     vdW  Elec       q    Type
REMARK                         _______ _______ _______ _____ _____    ______ ____
ROOT
ATOM      1 CL   UNL     1       1.010  12.291  18.540  0.00  0.00    +0.000 Cl
ATOM      2  C   UNL     1       1.184  10.673  19.193  0.00  0.00    +0.000 A 
ATOM      3  C   UNL     1       0.676  10.363  20.472  0.00  0.00    +0.000 A 
ATOM      4  N   UNL     1       0.820   9.108  20.993  0.00  0.00    +0.000 NA
ATOM      5  C   UNL     1       1.438   8.141  20.266  0.00  0.00    +0.000 A 
ATOM      6  N   UNL     1       1.606   6.866  20.697  0.00  0.00    +0.000 NA
ATOM      7  C   UNL     1       2.200   6.112  19.735  0.00  0.00    +0.000 A 
ATOM      8  N   UNL     1       2.462   4.717  19.884  0.00  0.00    +0.000 N 
ATOM      9  C   UNL     1       2.456   4.080  21.195  0.00  0.00    +0.000 C 
ATOM     10  C   UNL     1       1.425   2.950  21.196  0.00  0.00    +0.000 C 
ATOM     11  N   UNL     1       1.679   2.031  20.075  0.00  0.00    +0.000 NA
ATOM     12  C   UNL     1       1.581   2.745  18.791  0.00  0.00    +0.000 C 
ATOM     13  C   UNL     1       2.645   3.857  18.717  0.00  0.00    +0.000 C 
ATOM     14  S   UNL     1       2.564   7.017  18.342  0.00  0.00    +0.000 S 
ATOM     15  C   UNL     1       1.920   8.411  18.999  0.00  0.00    +0.000 A 
ATOM     16  C   UNL     1       1.821   9.677  18.440  0.00  0.00    +0.000 A 
ATOM     17  H   UNL     1       0.954   1.277  20.093  0.00  0.00    +0.000 HD
ENDROOT
BRANCH  13  18
ATOM     18  C   UNL     1       4.070   3.301  18.661  0.00  0.00    +0.000 C 
BRANCH  18  19
ATOM     19  O   UNL     1       4.962   4.316  18.371  0.00  0.00    +0.000 OA
BRANCH  19  20
ATOM     20  C   UNL     1       5.644   4.439  17.206  0.00  0.00    +0.000 A 
ATOM     21  C   UNL     1       4.972   4.197  16.003  0.00  0.00    +0.000 A 
ATOM     22  C   UNL     1       5.647   4.314  14.786  0.00  0.00    +0.000 A 
ATOM     23  C   UNL     1       6.995   4.675  14.786  0.00  0.00    +0.000 A 
ATOM     24  N   UNL     1       7.640   4.910  15.960  0.00  0.00    +0.000 NA
ATOM     25  C   UNL     1       7.005   4.801  17.156  0.00  0.00    +0.000 A 
ENDBRANCH  19  20
ENDBRANCH  18  19
ENDBRANCH  13  18
TORSDOF 3
ENDMDL
MODEL 2
REMARK VINA RESULT:      -7.9      1.864      4.732
REMARK  Name = 
REMARK  3 active torsions:
REMARK  status: ('A' for Active; 'I' for Inactive)
REMARK    1  A    between atoms: C_13  and  C_14
REMARK    2  A    between atoms: C_14  and  O_15
REMARK    3  A    between atoms: O_15  and  C_16
REMARK                            x       y       z     vdW  Elec       q    Type
REMARK                         _______ _______ _______ _____ _____    ______ ____
ROOT
ATOM      1 CL   UNL     1      -0.346  10.630  20.657  0.00  0.00    +0.000 Cl
ATOM      2  C   UNL     1       0.773   9.733  19.649  0.00  0.00    +0.000 A 
ATOM      3  C   UNL     1       1.170  10.244  18.396  0.00  0.00    +0.000 A 
ATOM      4  N   UNL     1       2.030   9.543  17.599  0.00  0.00    +0.000 NA
ATOM      5  C   UNL     1       2.528   8.352  18.023  0.00  0.00    +0.000 A 
ATOM      6  N   UNL     1       3.401   7.602  17.307  0.00  0.00    +0.000 NA
ATOM      7  C   UNL     1       3.768   6.498  18.008  0.00  0.00    +0.000 A 
ATOM      8  N   UNL     1       4.716   5.544  17.528  0.00  0.00    +0.000 N 
ATOM      9  C   UNL     1       5.077   5.478  16.118  0.00  0.00    +0.000 C 
ATOM     10  C   UNL     1       6.587   5.677  15.980  0.00  0.00    +0.000 C 
ATOM     11  N   UNL     1       7.306   4.720  16.837  0.00  0.00    +0.000 NA
ATOM     12  C   UNL     1       6.941   4.919  18.249  0.00  0.00    +0.000 C 
ATOM     13  C   UNL     1       5.434   4.667  18.450  0.00  0.00    +0.000 C 
ATOM     14  S   UNL     1       2.993   6.408  19.519  0.00  0.00    +0.000 S 
ATOM     15  C   UNL     1       2.177   7.842  19.259  0.00  0.00    +0.000 A 
ATOM     16  C   UNL     1       1.285   8.504  20.090  0.00  0.00    +0.000 A 
ATOM     17  H   UNL     1       8.333   4.888  16.731  0.00  0.00    +0.000 HD
ENDROOT
BRANCH  13  18
ATOM     18  C   UNL     1       5.050   3.202  18.228  0.00  0.00    +0.000 C 
BRANCH  18  19
ATOM     19  O   UNL     1       3.677   3.060  18.284  0.00  0.00    +0.000 OA
BRANCH  19  20
ATOM     20  C   UNL     1       2.956   2.942  19.426  0.00  0.00    +0.000 A 
ATOM     21  C   UNL     1       1.575   3.158  19.377  0.00  0.00    +0.000 A 
ATOM     22  C   UNL     1       0.806   3.044  20.538  0.00  0.00    +0.000 A 
ATOM     23  C   UNL     1       1.430   2.712  21.741  0.00  0.00    +0.000 A 
ATOM     24  N   UNL     1       2.773   2.503  21.778  0.00  0.00    +0.000 NA
ATOM     25  C   UNL     1       3.542   2.608  20.663  0.00  0.00    +0.000 A 
ENDBRANCH  19  20
ENDBRANCH  18  19
ENDBRANCH  13  18
TORSDOF 3
ENDMDL
MODEL 3
REMARK VINA RESULT:      -7.8      1.389      1.743
REMARK  Name = 
REMARK  3 active torsions:
REMARK  status: ('A' for Active; 'I' for Inactive)
REMARK    1  A    between atoms: C_13  and  C_14
REMARK    2  A    between atoms: C_14  and  O_15
REMARK    3  A    between atoms: O_15  and  C_16
REMARK                            x       y       z     vdW  Elec       q    Type
REMARK                         _______ _______ _______ _____ _____    ______ ____
ROOT
ATOM      1 CL   UNL     1       0.777  12.177  19.596  0.00  0.00    +0.000 Cl
ATOM      2  C   UNL     1       1.112  10.482  19.894  0.00  0.00    +0.000 A 
ATOM      3  C   UNL     1       0.864   9.919  21.164  0.00  0.00    +0.000 A 
ATOM      4  N   UNL     1       1.135   8.602  21.406  0.00  0.00    +0.000 NA
ATOM      5  C   UNL     1       1.628   7.818  20.412  0.00  0.00    +0.000 A 
ATOM      6  N   UNL     1       1.906   6.499  20.560  0.00  0.00    +0.000 NA
ATOM      7  C   UNL     1       2.327   5.966  19.383  0.00  0.00    +0.000 A 
ATOM      8  N   UNL     1       2.647   4.584  19.219  0.00  0.00    +0.000 N 
ATOM      9  C   UNL     1       2.905   3.725  20.367  0.00  0.00    +0.000 C 
ATOM     10  C   UNL     1       1.921   2.553  20.344  0.00  0.00    +0.000 C 
ATOM     11  N   UNL     1       1.982   1.866  19.044  0.00  0.00    +0.000 NA
ATOM     12  C   UNL     1       1.624   2.790  17.955  0.00  0.00    +0.000 C 
ATOM     13  C   UNL     1       2.627   3.959  17.899  0.00  0.00    +0.000 C 
ATOM     14  S   UNL     1       2.397   7.125  18.140  0.00  0.00    +0.000 S 
ATOM     15  C   UNL     1       1.854   8.338  19.152  0.00  0.00    +0.000 A 
ATOM     16  C   UNL     1       1.620   9.675  18.866  0.00  0.00    +0.000 A 
ATOM     17  H   UNL     1       1.292   1.079  19.053  0.00  0.00    +0.000 HD
ENDROOT
BRANCH  13  18
ATOM     18  C   UNL     1       4.029   3.508  17.483  0.00  0.00    +0.000 C 
BRANCH  18  19
ATOM     19  O   UNL     1       4.729   4.573  16.948  0.00  0.00    +0.000 OA
BRANCH  19  20
ATOM     20  C   UNL     1       5.775   5.192  17.549  0.00  0.00    +0.000 A 
ATOM     21  C   UNL     1       6.371   6.283  16.909  0.00  0.00    +0.000 A 
ATOM     22  C   UNL     1       7.451   6.941  17.502  0.00  0.00    +0.000 A 
ATOM     23  C   UNL     1       7.925   6.497  18.737  0.00  0.00    +0.000 A 
ATOM     24  N   UNL     1       7.339   5.437  19.353  0.00  0.00    +0.000 NA
ATOM     25  C   UNL     1       6.288   4.780  18.796  0.00  0.00    +0.000 A 
ENDBRANCH  19  20
ENDBRANCH  18  19
ENDBRANCH  13  18
TORSDOF 3
ENDMDL
MODEL 4
REMARK VINA RESULT:      -7.8      1.531      2.022
REMARK  Name = 
REMARK  3 active torsions:
REMARK  status: ('A' for Active; 'I' for Inactive)
REMARK    1  A    between atoms: C_13  and  C_14
REMARK    2  A    between atoms: C_14  and  O_15
REMARK    3  A    between atoms: O_15  and  C_16
REMARK                            x       y       z     vdW  Elec       q    Type
REMARK                         _______ _______ _______ _____ _____    ______ ____
ROOT
ATOM      1 CL   UNL     1       0.455  11.823  19.985  0.00  0.00    +0.000 Cl
ATOM      2  C   UNL     1       0.937  10.144  20.133  0.00  0.00    +0.000 A 
ATOM      3  C   UNL     1       0.712   9.441  21.335  0.00  0.00    +0.000 A 
ATOM      4  N   UNL     1       1.098   8.136  21.461  0.00  0.00    +0.000 NA
ATOM      5  C   UNL     1       1.684   7.500  20.414  0.00  0.00    +0.000 A 
ATOM      6  N   UNL     1       2.079   6.202  20.446  0.00  0.00    +0.000 NA
ATOM      7  C   UNL     1       2.574   5.825  19.239  0.00  0.00    +0.000 A 
ATOM      8  N   UNL     1       3.023   4.499  18.956  0.00  0.00    +0.000 N 
ATOM      9  C   UNL     1       3.332   3.559  20.026  0.00  0.00    +0.000 C 
ATOM     10  C   UNL     1       2.461   2.313  19.862  0.00  0.00    +0.000 C 
ATOM     11  N   UNL     1       2.615   1.762  18.505  0.00  0.00    +0.000 NA
ATOM     12  C   UNL     1       2.199   2.751  17.497  0.00  0.00    +0.000 C 
ATOM     13  C   UNL     1       3.091   4.005  17.583  0.00  0.00    +0.000 C 
ATOM     14  S   UNL     1       2.566   7.100  18.113  0.00  0.00    +0.000 S 
ATOM     15  C   UNL     1       1.891   8.156  19.216  0.00  0.00    +0.000 A 
ATOM     16  C   UNL     1       1.541   9.489  19.050  0.00  0.00    +0.000 A 
ATOM     17  H   UNL     1       2.000   0.920  18.418  0.00  0.00    +0.000 HD
ENDROOT
BRANCH  13  18
ATOM     18  C   UNL     1       4.538   3.723  17.171  0.00  0.00    +0.000 C 
BRANCH  18  19
ATOM     19  O   UNL     1       5.098   4.854  16.608  0.00  0.00    +0.000 OA
BRANCH  19  20
ATOM     20  C   UNL     1       6.059   5.614  17.189  0.00  0.00    +0.000 A 
ATOM     21  C   UNL     1       6.718   5.120  18.319  0.00  0.00    +0.000 A 
ATOM     22  C   UNL     1       7.712   5.880  18.940  0.00  0.00    +0.000 A 
ATOM     23  C   UNL     1       8.038   7.133  18.419  0.00  0.00    +0.000 A 
ATOM     24  N   UNL     1       7.394   7.604  17.319  0.00  0.00    +0.000 NA
ATOM     25  C   UNL     1       6.423   6.884  16.698  0.00  0.00    +0.000 A 
ENDBRANCH  19  20
ENDBRANCH  18  19
ENDBRANCH  13  18
TORSDOF 3
ENDMDL
MODEL 5
REMARK VINA RESULT:      -7.7      1.836      4.779
REMARK  Name = 
REMARK  3 active torsions:
REMARK  status: ('A' for Active; 'I' for Inactive)
REMARK    1  A    between atoms: C_13  and  C_14
REMARK    2  A    between atoms: C_14  and  O_15
REMARK    3  A    between atoms: O_15  and  C_16
REMARK                            x       y       z     vdW  Elec       q    Type
REMARK                         _______ _______ _______ _____ _____    ______ ____
ROOT
ATOM      1 CL   UNL     1      -0.308  10.533  20.662  0.00  0.00    +0.000 Cl
ATOM      2  C   UNL     1       0.833   9.675  19.644  0.00  0.00    +0.000 A 
ATOM      3  C   UNL     1       1.323  10.271  18.463  0.00  0.00    +0.000 A 
ATOM      4  N   UNL     1       2.202   9.602  17.659  0.00  0.00    +0.000 NA
ATOM      5  C   UNL     1       2.627   8.360  18.007  0.00  0.00    +0.000 A 
ATOM      6  N   UNL     1       3.512   7.635  17.278  0.00  0.00    +0.000 NA
ATOM      7  C   UNL     1       3.794   6.462  17.902  0.00  0.00    +0.000 A 
ATOM      8  N   UNL     1       4.731   5.511  17.395  0.00  0.00    +0.000 N 
ATOM      9  C   UNL     1       5.172   5.547  16.006  0.00  0.00    +0.000 C 
ATOM     10  C   UNL     1       6.695   5.692  15.971  0.00  0.00    +0.000 C 
ATOM     11  N   UNL     1       7.324   4.636  16.781  0.00  0.00    +0.000 NA
ATOM     12  C   UNL     1       6.884   4.732  18.183  0.00  0.00    +0.000 C 
ATOM     13  C   UNL     1       5.359   4.530  18.277  0.00  0.00    +0.000 C 
ATOM     14  S   UNL     1       2.927   6.280  19.354  0.00  0.00    +0.000 S 
ATOM     15  C   UNL     1       2.184   7.764  19.172  0.00  0.00    +0.000 A 
ATOM     16  C   UNL     1       1.271   8.393  20.006  0.00  0.00    +0.000 A 
ATOM     17  H   UNL     1       8.361   4.767  16.748  0.00  0.00    +0.000 HD
ENDROOT
BRANCH  13  18
ATOM     18  C   UNL     1       4.933   3.107  17.908  0.00  0.00    +0.000 C 
BRANCH  18  19
ATOM     19  O   UNL     1       4.466   2.448  19.030  0.00  0.00    +0.000 OA
BRANCH  19  20
ATOM     20  C   UNL     1       3.238   2.622  19.576  0.00  0.00    +0.000 A 
ATOM     21  C   UNL     1       3.136   2.832  20.955  0.00  0.00    +0.000 A 
ATOM     22  C   UNL     1       1.884   3.014  21.546  0.00  0.00    +0.000 A 
ATOM     23  C   UNL     1       0.740   2.985  20.747  0.00  0.00    +0.000 A 
ATOM     24  N   UNL     1       0.849   2.781  19.407  0.00  0.00    +0.000 NA
ATOM     25  C   UNL     1       2.055   2.601  18.809  0.00  0.00    +0.000 A 
ENDBRANCH  19  20
ENDBRANCH  18  19
ENDBRANCH  13  18
TORSDOF 3
ENDMDL
MODEL 6
REMARK VINA RESULT:      -7.7      1.728      2.188
REMARK  Name = 
REMARK  3 active torsions:
REMARK  status: ('A' for Active; 'I' for Inactive)
REMARK    1  A    between atoms: C_13  and  C_14
REMARK    2  A    between atoms: C_14  and  O_15
REMARK    3  A    between atoms: O_15  and  C_16
REMARK                            x       y       z     vdW  Elec       q    Type
REMARK                         _______ _______ _______ _____ _____    ______ ____
ROOT
ATOM      1 CL   UNL     1      -0.732  11.674  19.810  0.00  0.00    +0.000 Cl
ATOM      2  C   UNL     1       0.206  10.196  19.915  0.00  0.00    +0.000 A 
ATOM      3  C   UNL     1       0.181   9.418  21.092  0.00  0.00    +0.000 A 
ATOM      4  N   UNL     1       0.921   8.273  21.185  0.00  0.00    +0.000 NA
ATOM      5  C   UNL     1       1.671   7.865  20.130  0.00  0.00    +0.000 A 
ATOM      6  N   UNL     1       2.418   6.732  20.129  0.00  0.00    +0.000 NA
ATOM      7  C   UNL     1       3.009   6.551  18.920  0.00  0.00    +0.000 A 
ATOM      8  N   UNL     1       3.818   5.418  18.605  0.00  0.00    +0.000 N 
ATOM      9  C   UNL     1       4.374   4.569  19.651  0.00  0.00    +0.000 C 
ATOM     10  C   UNL     1       3.894   3.133  19.435  0.00  0.00    +0.000 C 
ATOM     11  N   UNL     1       4.208   2.694  18.065  0.00  0.00    +0.000 NA
ATOM     12  C   UNL     1       3.536   3.558  17.080  0.00  0.00    +0.000 C 
ATOM     13  C   UNL     1       4.034   5.010  17.219  0.00  0.00    +0.000 C 
ATOM     14  S   UNL     1       2.647   7.809  17.833  0.00  0.00    +0.000 S 
ATOM     15  C   UNL     1       1.692   8.593  18.956  0.00  0.00    +0.000 A 
ATOM     16  C   UNL     1       0.979   9.776  18.823  0.00  0.00    +0.000 A 
ATOM     17  H   UNL     1       3.858   1.716  17.942  0.00  0.00    +0.000 HD
ENDROOT
BRANCH  13  18
ATOM     18  C   UNL     1       5.505   5.164  16.823  0.00  0.00    +0.000 C 
BRANCH  18  19
ATOM     19  O   UNL     1       5.868   4.154  15.953  0.00  0.00    +0.000 OA
BRANCH  19  20
ATOM     20  C   UNL     1       6.412   4.346  14.726  0.00  0.00    +0.000 A 
ATOM     21  C   UNL     1       5.909   3.617  13.643  0.00  0.00    +0.000 A 
ATOM     22  C   UNL     1       6.449   3.793  12.367  0.00  0.00    +0.000 A 
ATOM     23  C   UNL     1       7.492   4.703  12.187  0.00  0.00    +0.000 A 
ATOM     24  N   UNL     1       7.973   5.409  13.244  0.00  0.00    +0.000 NA
ATOM     25  C   UNL     1       7.465   5.254  14.495  0.00  0.00    +0.000 A 
ENDBRANCH  19  20
ENDBRANCH  18  19
ENDBRANCH  13  18
TORSDOF 3
ENDMDL
MODEL 7
REMARK VINA RESULT:      -7.6      1.468      1.861
REMARK  Name = 
REMARK  3 active torsions:
REMARK  status: ('A' for Active; 'I' for Inactive)
REMARK    1  A    between atoms: C_13  and  C_14
REMARK    2  A    between atoms: C_14  and  O_15
REMARK    3  A    between atoms: O_15  and  C_16
REMARK                            x       y       z     vdW  Elec       q    Type
REMARK                         _______ _______ _______ _____ _____    ______ ____
ROOT
ATOM      1 CL   UNL     1       0.271  12.844  19.672  0.00  0.00    +0.000 Cl
ATOM      2  C   UNL     1       0.578  11.170  20.093  0.00  0.00    +0.000 A 
ATOM      3  C   UNL     1       0.166  10.663  21.344  0.00  0.00    +0.000 A 
ATOM      4  N   UNL     1       0.414   9.363  21.683  0.00  0.00    +0.000 NA
ATOM      5  C   UNL     1       1.044   8.542  20.804  0.00  0.00    +0.000 A 
ATOM      6  N   UNL     1       1.312   7.235  21.051  0.00  0.00    +0.000 NA
ATOM      7  C   UNL     1       1.893   6.655  19.969  0.00  0.00    +0.000 A 
ATOM      8  N   UNL     1       2.245   5.272  19.916  0.00  0.00    +0.000 N 
ATOM      9  C   UNL     1       2.354   4.471  21.129  0.00  0.00    +0.000 C 
ATOM     10  C   UNL     1       1.393   3.285  21.030  0.00  0.00    +0.000 C 
ATOM     11  N   UNL     1       1.635   2.538  19.784  0.00  0.00    +0.000 NA
ATOM     12  C   UNL     1       1.419   3.405  18.614  0.00  0.00    +0.000 C 
ATOM     13  C   UNL     1       2.409   4.586  18.637  0.00  0.00    +0.000 C 
ATOM     14  S   UNL     1       2.119   7.755  18.692  0.00  0.00    +0.000 S 
ATOM     15  C   UNL     1       1.434   9.006  19.562  0.00  0.00    +0.000 A 
ATOM     16  C   UNL     1       1.228  10.325  19.182  0.00  0.00    +0.000 A 
ATOM     17  H   UNL     1       0.957   1.742  19.739  0.00  0.00    +0.000 HD
ENDROOT
BRANCH  13  18
ATOM     18  C   UNL     1       3.859   4.138  18.435  0.00  0.00    +0.000 C 
BRANCH  18  19
ATOM     19  O   UNL     1       4.479   4.950  17.504  0.00  0.00    +0.000 OA
BRANCH  19  20
ATOM     20  C   UNL     1       5.616   5.654  17.726  0.00  0.00    +0.000 A 
ATOM     21  C   UNL     1       6.472   5.246  18.754  0.00  0.00    +0.000 A 
ATOM     22  C   UNL     1       7.650   5.952  19.007  0.00  0.00    +0.000 A 
ATOM     23  C   UNL     1       7.963   7.063  18.223  0.00  0.00    +0.000 A 
ATOM     24  N   UNL     1       7.126   7.451  17.224  0.00  0.00    +0.000 NA
ATOM     25  C   UNL     1       5.973   6.781  16.959  0.00  0.00    +0.000 A 
ENDBRANCH  19  20
ENDBRANCH  18  19
ENDBRANCH  13  18
TORSDOF 3
ENDMDL
MODEL 8
REMARK VINA RESULT:      -7.5      1.296      1.551
REMARK  Name = 
REMARK  3 active torsions:
REMARK  status: ('A' for Active; 'I' for Inactive)
REMARK    1  A    between atoms: C_13  and  C_14
REMARK    2  A    between atoms: C_14  and  O_15
REMARK    3  A    between atoms: O_15  and  C_16
REMARK                            x       y       z     vdW  Elec       q    Type
REMARK                         _______ _______ _______ _____ _____    ______ ____
ROOT
ATOM      1 CL   UNL     1       0.269  11.919  20.206  0.00  0.00    +0.000 Cl
ATOM      2  C   UNL     1       0.761  10.239  20.293  0.00  0.00    +0.000 A 
ATOM      3  C   UNL     1       0.433   9.457  21.421  0.00  0.00    +0.000 A 
ATOM      4  N   UNL     1       0.825   8.151  21.500  0.00  0.00    +0.000 NA
ATOM      5  C   UNL     1       1.518   7.589  20.477  0.00  0.00    +0.000 A 
ATOM      6  N   UNL     1       1.928   6.296  20.464  0.00  0.00    +0.000 NA
ATOM      7  C   UNL     1       2.542   6.002  19.289  0.00  0.00    +0.000 A 
ATOM      8  N   UNL     1       3.037   4.702  18.968  0.00  0.00    +0.000 N 
ATOM      9  C   UNL     1       3.257   3.698  20.001  0.00  0.00    +0.000 C 
ATOM     10  C   UNL     1       2.425   2.456  19.674  0.00  0.00    +0.000 C 
ATOM     11  N   UNL     1       2.716   1.995  18.307  0.00  0.00    +0.000 NA
ATOM     12  C   UNL     1       2.384   3.044  17.328  0.00  0.00    +0.000 C 
ATOM     13  C   UNL     1       3.244   4.298  17.579  0.00  0.00    +0.000 C 
ATOM     14  S   UNL     1       2.623   7.346  18.251  0.00  0.00    +0.000 S 
ATOM     15  C   UNL     1       1.829   8.323  19.349  0.00  0.00    +0.000 A 
ATOM     16  C   UNL     1       1.476   9.661  19.234  0.00  0.00    +0.000 A 
ATOM     17  H   UNL     1       2.126   1.155  18.108  0.00  0.00    +0.000 HD
ENDROOT
BRANCH  13  18
ATOM     18  C   UNL     1       4.728   4.056  17.292  0.00  0.00    +0.000 C 
BRANCH  18  19
ATOM     19  O   UNL     1       4.896   3.655  15.980  0.00  0.00    +0.000 OA
BRANCH  19  20
ATOM     20  C   UNL     1       5.834   4.147  15.134  0.00  0.00    +0.000 A 
ATOM     21  C   UNL     1       5.828   3.723  13.801  0.00  0.00    +0.000 A 
ATOM     22  C   UNL     1       6.782   4.212  12.905  0.00  0.00    +0.000 A 
ATOM     23  C   UNL     1       7.736   5.125  13.355  0.00  0.00    +0.000 A 
ATOM     24  N   UNL     1       7.733   5.533  14.651  0.00  0.00    +0.000 NA
ATOM     25  C   UNL     1       6.816   5.072  15.542  0.00  0.00    +0.000 A 
ENDBRANCH  19  20
ENDBRANCH  18  19
ENDBRANCH  13  18
TORSDOF 3
ENDMDL
MODEL 9
REMARK VINA RESULT:      -7.4      1.259      1.427
REMARK  Name = 
REMARK  3 active torsions:
REMARK  status: ('A' for Active; 'I' for Inactive)
REMARK    1  A    between atoms: C_13  and  C_14
REMARK    2  A    between atoms: C_14  and  O_15
REMARK    3  A    between atoms: O_15  and  C_16
REMARK                            x       y       z     vdW  Elec       q    Type
REMARK                         _______ _______ _______ _____ _____    ______ ____
ROOT
ATOM      1 CL   UNL     1      -0.482  13.430  19.380  0.00  0.00    +0.000 Cl
ATOM      2  C   UNL     1      -0.029  11.783  19.774  0.00  0.00    +0.000 A 
ATOM      3  C   UNL     1      -0.582  11.142  20.903  0.00  0.00    +0.000 A 
ATOM      4  N   UNL     1      -0.223   9.863  21.222  0.00  0.00    +0.000 NA
ATOM      5  C   UNL     1       0.658   9.191  20.437  0.00  0.00    +0.000 A 
ATOM      6  N   UNL     1       1.053   7.914  20.669  0.00  0.00    +0.000 NA
ATOM      7  C   UNL     1       1.888   7.488  19.687  0.00  0.00    +0.000 A 
ATOM      8  N   UNL     1       2.428   6.167  19.636  0.00  0.00    +0.000 N 
ATOM      9  C   UNL     1       2.430   5.304  20.811  0.00  0.00    +0.000 C 
ATOM     10  C   UNL     1       1.672   4.016  20.483  0.00  0.00    +0.000 C 
ATOM     11  N   UNL     1       2.229   3.394  19.270  0.00  0.00    +0.000 NA
ATOM     12  C   UNL     1       2.106   4.306  18.121  0.00  0.00    +0.000 C 
ATOM     13  C   UNL     1       2.907   5.598  18.379  0.00  0.00    +0.000 C 
ATOM     14  S   UNL     1       2.184   8.694  18.525  0.00  0.00    +0.000 S 
ATOM     15  C   UNL     1       1.193   9.785  19.310  0.00  0.00    +0.000 A 
ATOM     16  C   UNL     1       0.880  11.091  18.960  0.00  0.00    +0.000 A 
ATOM     17  H   UNL     1       1.684   2.525  19.064  0.00  0.00    +0.000 HD
ENDROOT
BRANCH  13  18
ATOM     18  C   UNL     1       4.417   5.350  18.427  0.00  0.00    +0.000 C 
BRANCH  18  19
ATOM     19  O   UNL     1       4.763   4.364  17.523  0.00  0.00    +0.000 OA
BRANCH  19  20
ATOM     20  C   UNL     1       5.562   4.548  16.443  0.00  0.00    +0.000 A 
ATOM     21  C   UNL     1       5.213   3.938  15.234  0.00  0.00    +0.000 A 
ATOM     22  C   UNL     1       6.017   4.108  14.105  0.00  0.00    +0.000 A 
ATOM     23  C   UNL     1       7.168   4.892  14.198  0.00  0.00    +0.000 A 
ATOM     24  N   UNL     1       7.498   5.483  15.377  0.00  0.00    +0.000 NA
ATOM     25  C   UNL     1       6.733   5.331  16.489  0.00  0.00    +0.000 A 
ENDBRANCH  19  20
ENDBRANCH  18  19
ENDBRANCH  13  18
TORSDOF 3
ENDMDL
