MODEL 1
REMARK VINA RESULT:      -7.3      0.000      0.000
REMARK  Name = 
REMARK  16 active torsions:
REMARK  status: ('A' for Active; 'I' for Inactive)
REMARK    1  A    between atoms: C_1  and  C_2
REMARK    2  A    between atoms: C_2  and  C_3
REMARK    3  A    between atoms: C_3  and  O_4
REMARK    4  A    between atoms: C_3  and  C_21
REMARK    5  A    between atoms: O_4  and  P_5
REMARK    6  A    between atoms: P_5  and  C_7
REMARK    7  A    between atoms: P_5  and  O_14
REMARK    8  A    between atoms: C_7  and  C_8
REMARK    9  A    between atoms: C_8  and  CA_9
REMARK   10  A    between atoms: CA_9  and  N_10
REMARK   11  A    between atoms: CA_9  and  C_11
REMARK   12  A    between atoms: C_11  and  OXT_13
REMARK   13  A    between atoms: O_14  and  C_15
REMARK   14  A    between atoms: N_23  and  C_24
REMARK   15  A    between atoms: C_24  and  C_25
REMARK   16  A    between atoms: C_25  and  O_27
REMARK                            x       y       z     vdW  Elec       q    Type
REMARK                         _______ _______ _______ _____ _____    ______ ____
ROOT
ATOM      1  P   UNL     1       4.008   5.207  18.044  0.00  0.00    +0.000 P 
ATOM      2  O   UNL     1       2.726   4.768  17.340  0.00  0.00    +0.000 OA
ENDROOT
BRANCH   1   3
ATOM      3  O   UNL     1       4.824   4.374  16.766  0.00  0.00    +0.000 OA
BRANCH   3   4
ATOM      4  C   UNL     1       6.194   4.745  16.553  0.00  0.00    +0.000 C 
BRANCH   4   5
ATOM      5  C   UNL     1       6.723   4.671  15.092  0.00  0.00    +0.000 C 
ATOM      6  O   UNL     1       7.648   5.375  14.681  0.00  0.00    +0.000 OA
ATOM      7  N   UNL     1       6.139   3.719  14.290  0.00  0.00    +0.000 N 
ATOM      8  H   UNL     1       5.175   3.481  14.511  0.00  0.00    +0.000 HD
BRANCH   7   9
ATOM      9  C   UNL     1       6.497   3.727  12.885  0.00  0.00    +0.000 C 
BRANCH   9  10
ATOM     10  C   UNL     1       5.544   2.927  12.016  0.00  0.00    +0.000 C 
ATOM     11  O   UNL     1       5.797   1.833  11.529  0.00  0.00    +0.000 OA
BRANCH  10  12
ATOM     12  O   UNL     1       4.350   3.545  11.841  0.00  0.00    +0.000 OA
ATOM     13  H   UNL     1       4.368   4.267  11.181  0.00  0.00    +0.000 HD
ENDBRANCH  10  12
ENDBRANCH   9  10
ENDBRANCH   7   9
ENDBRANCH   4   5
BRANCH   4  15
ATOM     14  C   UNL     1       7.589   6.204  18.189  0.00  0.00    +0.000 C 
ATOM     15  C   UNL     1       6.558   6.152  17.080  0.00  0.00    +0.000 C 
ENDBRANCH   4  15
ENDBRANCH   3   4
ENDBRANCH   1   3
BRANCH   1  16
ATOM     16  C   UNL     1       4.606   3.889  19.237  0.00  0.00    +0.000 C 
BRANCH  16  17
ATOM     17  C   UNL     1       3.979   2.506  19.111  0.00  0.00    +0.000 C 
BRANCH  17  18
ATOM     18  CA  UNL     1       2.618   2.326  19.791  0.00  0.00    +0.000 C 
BRANCH  18  19
ATOM     19  N   UNL     1       2.256   3.479  20.665  0.00  0.00    +0.000 NA
ATOM     20  H1  UNL     1       1.462   3.968  20.243  0.00  0.00    +0.000 HD
ATOM     21  H2  UNL     1       3.033   4.146  20.634  0.00  0.00    +0.000 HD
ENDBRANCH  18  19
BRANCH  18  22
ATOM     22  C   UNL     1       1.511   2.159  18.729  0.00  0.00    +0.000 C 
ATOM     23  O   UNL     1       0.317   2.270  18.923  0.00  0.00    +0.000 OA
BRANCH  22  24
ATOM     24  OXT UNL     1       2.053   1.894  17.509  0.00  0.00    +0.000 OA
ATOM     25  HXT UNL     1       1.867   2.690  16.952  0.00  0.00    +0.000 HD
ENDBRANCH  22  24
ENDBRANCH  18  22
ENDBRANCH  17  18
ENDBRANCH  16  17
ENDBRANCH   1  16
BRANCH   1  26
ATOM     26  O   UNL     1       3.193   6.040  19.323  0.00  0.00    +0.000 OA
BRANCH  26  27
ATOM     27  C   UNL     1       2.526   7.249  19.220  0.00  0.00    +0.000 A 
ATOM     28  C   UNL     1       1.739   7.840  20.215  0.00  0.00    +0.000 A 
ATOM     29  C   UNL     1       1.039   9.028  19.986  0.00  0.00    +0.000 A 
ATOM     30  C   UNL     1       1.181   9.689  18.776  0.00  0.00    +0.000 A 
ATOM     31  C   UNL     1       2.023   9.156  17.801  0.00  0.00    +0.000 A 
ATOM     32  C   UNL     1       2.687   7.939  18.018  0.00  0.00    +0.000 A 
ENDBRANCH  26  27
ENDBRANCH   1  26
TORSDOF 15
ENDMDL
MODEL 2
REMARK VINA RESULT:      -7.0      1.692      4.199
REMARK  Name = 
REMARK  16 active torsions:
REMARK  status: ('A' for Active; 'I' for Inactive)
REMARK    1  A    between atoms: C_1  and  C_2
REMARK    2  A    between atoms: C_2  and  C_3
REMARK    3  A    between atoms: C_3  and  O_4
REMARK    4  A    between atoms: C_3  and  C_21
REMARK    5  A    between atoms: O_4  and  P_5
REMARK    6  A    between atoms: P_5  and  C_7
REMARK    7  A    between atoms: P_5  and  O_14
REMARK    8  A    between atoms: C_7  and  C_8
REMARK    9  A    between atoms: C_8  and  CA_9
REMARK   10  A    between atoms: CA_9  and  N_10
REMARK   11  A    between atoms: CA_9  and  C_11
REMARK   12  A    between atoms: C_11  and  OXT_13
REMARK   13  A    between atoms: O_14  and  C_15
REMARK   14  A    between atoms: N_23  and  C_24
REMARK   15  A    between atoms: C_24  and  C_25
REMARK   16  A    between atoms: C_25  and  O_27
REMARK                            x       y       z     vdW  Elec       q    Type
REMARK                         _______ _______ _______ _____ _____    ______ ____
ROOT
ATOM      1  P   UNL     1       4.259   3.873  17.182  0.00  0.00    +0.000 P 
ATOM      2  O   UNL     1       5.413   3.915  18.181  0.00  0.00    +0.000 OA
ENDROOT
BRANCH   1   3
ATOM      3  O   UNL     1       5.084   5.174  16.395  0.00  0.00    +0.000 OA
BRANCH   3   4
ATOM      4  C   UNL     1       6.482   4.964  16.142  0.00  0.00    +0.000 C 
BRANCH   4   5
ATOM      5  C   UNL     1       6.903   4.756  14.658  0.00  0.00    +0.000 C 
ATOM      6  O   UNL     1       7.812   5.396  14.127  0.00  0.00    +0.000 OA
ATOM      7  N   UNL     1       6.239   3.761  13.979  0.00  0.00    +0.000 N 
ATOM      8  H   UNL     1       5.287   3.572  14.285  0.00  0.00    +0.000 HD
BRANCH   7   9
ATOM      9  C   UNL     1       6.495   3.646  12.557  0.00  0.00    +0.000 C 
BRANCH   9  10
ATOM     10  C   UNL     1       5.475   2.791  11.828  0.00  0.00    +0.000 C 
ATOM     11  O   UNL     1       4.377   3.181  11.456  0.00  0.00    +0.000 OA
BRANCH  10  12
ATOM     12  O   UNL     1       5.914   1.527  11.606  0.00  0.00    +0.000 OA
ATOM     13  H   UNL     1       5.221   0.842  11.699  0.00  0.00    +0.000 HD
ENDBRANCH  10  12
ENDBRANCH   9  10
ENDBRANCH   7   9
ENDBRANCH   4   5
BRANCH   4  15
ATOM     14  C   UNL     1       6.705   7.265  17.327  0.00  0.00    +0.000 C 
ATOM     15  C   UNL     1       7.401   6.069  16.708  0.00  0.00    +0.000 C 
ENDBRANCH   4  15
ENDBRANCH   3   4
ENDBRANCH   1   3
BRANCH   1  16
ATOM     16  C   UNL     1       2.903   5.074  17.670  0.00  0.00    +0.000 C 
BRANCH  16  17
ATOM     17  C   UNL     1       3.291   6.213  18.604  0.00  0.00    +0.000 C 
BRANCH  17  18
ATOM     18  CA  UNL     1       2.133   7.067  19.131  0.00  0.00    +0.000 C 
BRANCH  18  19
ATOM     19  N   UNL     1       2.246   7.350  20.590  0.00  0.00    +0.000 NA
ATOM     20  H1  UNL     1       2.283   6.458  21.091  0.00  0.00    +0.000 HD
ATOM     21  H2  UNL     1       1.371   7.792  20.889  0.00  0.00    +0.000 HD
ENDBRANCH  18  19
BRANCH  18  22
ATOM     22  C   UNL     1       2.083   8.414  18.380  0.00  0.00    +0.000 C 
ATOM     23  O   UNL     1       2.554   8.635  17.282  0.00  0.00    +0.000 OA
BRANCH  22  24
ATOM     24  OXT UNL     1       1.403   9.344  19.107  0.00  0.00    +0.000 OA
ATOM     25  HXT UNL     1       1.856   9.384  19.985  0.00  0.00    +0.000 HD
ENDBRANCH  22  24
ENDBRANCH  18  22
ENDBRANCH  17  18
ENDBRANCH  16  17
ENDBRANCH   1  16
BRANCH   1  26
ATOM     26  O   UNL     1       3.433   2.572  17.969  0.00  0.00    +0.000 OA
BRANCH  26  27
ATOM     27  C   UNL     1       2.662   2.664  19.116  0.00  0.00    +0.000 A 
ATOM     28  C   UNL     1       1.275   2.839  19.162  0.00  0.00    +0.000 A 
ATOM     29  C   UNL     1       0.596   3.001  20.372  0.00  0.00    +0.000 A 
ATOM     30  C   UNL     1       1.291   2.911  21.569  0.00  0.00    +0.000 A 
ATOM     31  C   UNL     1       2.661   2.659  21.546  0.00  0.00    +0.000 A 
ATOM     32  C   UNL     1       3.346   2.543  20.327  0.00  0.00    +0.000 A 
ENDBRANCH  26  27
ENDBRANCH   1  26
TORSDOF 15
ENDMDL
MODEL 3
REMARK VINA RESULT:      -6.8      1.052      1.451
REMARK  Name = 
REMARK  16 active torsions:
REMARK  status: ('A' for Active; 'I' for Inactive)
REMARK    1  A    between atoms: C_1  and  C_2
REMARK    2  A    between atoms: C_2  and  C_3
REMARK    3  A    between atoms: C_3  and  O_4
REMARK    4  A    between atoms: C_3  and  C_21
REMARK    5  A    between atoms: O_4  and  P_5
REMARK    6  A    between atoms: P_5  and  C_7
REMARK    7  A    between atoms: P_5  and  O_14
REMARK    8  A    between atoms: C_7  and  C_8
REMARK    9  A    between atoms: C_8  and  CA_9
REMARK   10  A    between atoms: CA_9  and  N_10
REMARK   11  A    between atoms: CA_9  and  C_11
REMARK   12  A    between atoms: C_11  and  OXT_13
REMARK   13  A    between atoms: O_14  and  C_15
REMARK   14  A    between atoms: N_23  and  C_24
REMARK   15  A    between atoms: C_24  and  C_25
REMARK   16  A    between atoms: C_25  and  O_27
REMARK                            x       y       z     vdW  Elec       q    Type
REMARK                         _______ _______ _______ _____ _____    ______ ____
ROOT
ATOM      1  P   UNL     1       3.527   5.534  17.939  0.00  0.00    +0.000 P 
ATOM      2  O   UNL     1       2.342   4.738  17.396  0.00  0.00    +0.000 OA
ENDROOT
BRANCH   1   3
ATOM      3  O   UNL     1       4.438   4.746  16.697  0.00  0.00    +0.000 OA
BRANCH   3   4
ATOM      4  C   UNL     1       5.799   5.181  16.549  0.00  0.00    +0.000 C 
BRANCH   4   5
ATOM      5  C   UNL     1       6.488   4.879  15.187  0.00  0.00    +0.000 C 
ATOM      6  O   UNL     1       7.617   5.287  14.907  0.00  0.00    +0.000 OA
ATOM      7  N   UNL     1       5.787   4.068  14.326  0.00  0.00    +0.000 N 
ATOM      8  H   UNL     1       4.774   4.108  14.403  0.00  0.00    +0.000 HD
BRANCH   7   9
ATOM      9  C   UNL     1       6.328   3.895  12.992  0.00  0.00    +0.000 C 
BRANCH   9  10
ATOM     10  C   UNL     1       5.443   3.060  12.087  0.00  0.00    +0.000 C 
ATOM     11  O   UNL     1       4.352   3.414  11.659  0.00  0.00    +0.000 OA
BRANCH  10  12
ATOM     12  O   UNL     1       5.995   1.861  11.774  0.00  0.00    +0.000 OA
ATOM     13  H   UNL     1       5.630   1.109  12.282  0.00  0.00    +0.000 HD
ENDBRANCH  10  12
ENDBRANCH   9  10
ENDBRANCH   7   9
ENDBRANCH   4   5
BRANCH   4  15
ATOM     14  C   UNL     1       7.267   7.049  17.600  0.00  0.00    +0.000 C 
ATOM     15  C   UNL     1       6.015   6.685  16.827  0.00  0.00    +0.000 C 
ENDBRANCH   4  15
ENDBRANCH   3   4
ENDBRANCH   1   3
BRANCH   1  16
ATOM     16  C   UNL     1       4.475   4.541  19.216  0.00  0.00    +0.000 C 
BRANCH  16  17
ATOM     17  C   UNL     1       3.698   4.062  20.437  0.00  0.00    +0.000 C 
BRANCH  17  18
ATOM     18  CA  UNL     1       3.182   2.620  20.375  0.00  0.00    +0.000 C 
BRANCH  18  19
ATOM     19  N   UNL     1       1.737   2.544  20.016  0.00  0.00    +0.000 NA
ATOM     20  H1  UNL     1       1.419   1.581  20.157  0.00  0.00    +0.000 HD
ATOM     21  H2  UNL     1       1.660   2.709  19.008  0.00  0.00    +0.000 HD
ENDBRANCH  18  19
BRANCH  18  22
ATOM     22  C   UNL     1       3.983   1.815  19.331  0.00  0.00    +0.000 C 
ATOM     23  O   UNL     1       3.649   1.611  18.181  0.00  0.00    +0.000 OA
BRANCH  22  24
ATOM     24  OXT UNL     1       5.155   1.371  19.863  0.00  0.00    +0.000 OA
ATOM     25  HXT UNL     1       5.029   1.387  20.844  0.00  0.00    +0.000 HD
ENDBRANCH  22  24
ENDBRANCH  18  22
ENDBRANCH  17  18
ENDBRANCH  16  17
ENDBRANCH   1  16
BRANCH   1  26
ATOM     26  O   UNL     1       2.616   6.321  19.181  0.00  0.00    +0.000 OA
BRANCH  26  27
ATOM     27  C   UNL     1       2.140   7.622  19.150  0.00  0.00    +0.000 A 
ATOM     28  C   UNL     1       1.483   8.281  20.195  0.00  0.00    +0.000 A 
ATOM     29  C   UNL     1       0.967   9.570  20.038  0.00  0.00    +0.000 A 
ATOM     30  C   UNL     1       1.170  10.254  18.850  0.00  0.00    +0.000 A 
ATOM     31  C   UNL     1       1.890   9.642  17.824  0.00  0.00    +0.000 A 
ATOM     32  C   UNL     1       2.366   8.331  17.970  0.00  0.00    +0.000 A 
ENDBRANCH  26  27
ENDBRANCH   1  26
TORSDOF 15
ENDMDL
MODEL 4
REMARK VINA RESULT:      -6.8      2.140      4.502
REMARK  Name = 
REMARK  16 active torsions:
REMARK  status: ('A' for Active; 'I' for Inactive)
REMARK    1  A    between atoms: C_1  and  C_2
REMARK    2  A    between atoms: C_2  and  C_3
REMARK    3  A    between atoms: C_3  and  O_4
REMARK    4  A    between atoms: C_3  and  C_21
REMARK    5  A    between atoms: O_4  and  P_5
REMARK    6  A    between atoms: P_5  and  C_7
REMARK    7  A    between atoms: P_5  and  O_14
REMARK    8  A    between atoms: C_7  and  C_8
REMARK    9  A    between atoms: C_8  and  CA_9
REMARK   10  A    between atoms: CA_9  and  N_10
REMARK   11  A    between atoms: CA_9  and  C_11
REMARK   12  A    between atoms: C_11  and  OXT_13
REMARK   13  A    between atoms: O_14  and  C_15
REMARK   14  A    between atoms: N_23  and  C_24
REMARK   15  A    between atoms: C_24  and  C_25
REMARK   16  A    between atoms: C_25  and  O_27
REMARK                            x       y       z     vdW  Elec       q    Type
REMARK                         _______ _______ _______ _____ _____    ______ ____
ROOT
ATOM      1  P   UNL     1       3.938   5.807  17.497  0.00  0.00    +0.000 P 
ATOM      2  O   UNL     1       4.568   5.143  18.720  0.00  0.00    +0.000 OA
ENDROOT
BRANCH   1   3
ATOM      3  O   UNL     1       5.567   6.115  17.004  0.00  0.00    +0.000 OA
BRANCH   3   4
ATOM      4  C   UNL     1       6.347   4.957  16.669  0.00  0.00    +0.000 C 
BRANCH   4   5
ATOM      5  C   UNL     1       6.855   4.854  15.202  0.00  0.00    +0.000 C 
ATOM      6  O   UNL     1       7.813   5.506  14.781  0.00  0.00    +0.000 OA
ATOM      7  N   UNL     1       6.210   3.937  14.406  0.00  0.00    +0.000 N 
ATOM      8  H   UNL     1       5.236   3.754  14.638  0.00  0.00    +0.000 HD
BRANCH   7   9
ATOM      9  C   UNL     1       6.552   3.927  12.997  0.00  0.00    +0.000 C 
BRANCH   9  10
ATOM     10  C   UNL     1       5.623   3.068  12.158  0.00  0.00    +0.000 C 
ATOM     11  O   UNL     1       4.502   3.401  11.798  0.00  0.00    +0.000 OA
BRANCH  10  12
ATOM     12  O   UNL     1       6.174   1.875  11.821  0.00  0.00    +0.000 OA
ATOM     13  H   UNL     1       6.778   1.510  12.499  0.00  0.00    +0.000 HD
ENDBRANCH  10  12
ENDBRANCH   9  10
ENDBRANCH   7   9
ENDBRANCH   4   5
BRANCH   4  15
ATOM     14  C   UNL     1       7.809   5.780  18.653  0.00  0.00    +0.000 C 
ATOM     15  C   UNL     1       7.579   4.739  17.576  0.00  0.00    +0.000 C 
ENDBRANCH   4  15
ENDBRANCH   3   4
ENDBRANCH   1   3
BRANCH   1  16
ATOM     16  C   UNL     1       3.710   7.648  17.774  0.00  0.00    +0.000 C 
BRANCH  16  17
ATOM     17  C   UNL     1       2.296   8.198  17.638  0.00  0.00    +0.000 C 
BRANCH  17  18
ATOM     18  CA  UNL     1       1.975   9.431  18.491  0.00  0.00    +0.000 C 
BRANCH  18  19
ATOM     19  N   UNL     1       1.031  10.366  17.814  0.00  0.00    +0.000 NA
ATOM     20  H1  UNL     1       1.471  10.704  16.954  0.00  0.00    +0.000 HD
ATOM     21  H2  UNL     1       0.933  11.193  18.411  0.00  0.00    +0.000 HD
ENDBRANCH  18  19
BRANCH  18  22
ATOM     22  C   UNL     1       1.349   9.000  19.833  0.00  0.00    +0.000 C 
ATOM     23  O   UNL     1       1.687   8.043  20.501  0.00  0.00    +0.000 OA
BRANCH  22  24
ATOM     24  OXT UNL     1       0.364   9.864  20.203  0.00  0.00    +0.000 OA
ATOM     25  HXT UNL     1       0.718  10.360  20.982  0.00  0.00    +0.000 HD
ENDBRANCH  22  24
ENDBRANCH  18  22
ENDBRANCH  17  18
ENDBRANCH  16  17
ENDBRANCH   1  16
BRANCH   1  26
ATOM     26  O   UNL     1       2.309   5.499  17.990  0.00  0.00    +0.000 OA
BRANCH  26  27
ATOM     27  C   UNL     1       1.866   4.417  18.734  0.00  0.00    +0.000 A 
ATOM     28  C   UNL     1       1.596   3.136  18.240  0.00  0.00    +0.000 A 
ATOM     29  C   UNL     1       1.075   2.131  19.059  0.00  0.00    +0.000 A 
ATOM     30  C   UNL     1       0.889   2.371  20.412  0.00  0.00    +0.000 A 
ATOM     31  C   UNL     1       1.227   3.617  20.937  0.00  0.00    +0.000 A 
ATOM     32  C   UNL     1       1.706   4.638  20.103  0.00  0.00    +0.000 A 
ENDBRANCH  26  27
ENDBRANCH   1  26
TORSDOF 15
ENDMDL
MODEL 5
REMARK VINA RESULT:      -6.7      2.664      4.785
REMARK  Name = 
REMARK  16 active torsions:
REMARK  status: ('A' for Active; 'I' for Inactive)
REMARK    1  A    between atoms: C_1  and  C_2
REMARK    2  A    between atoms: C_2  and  C_3
REMARK    3  A    between atoms: C_3  and  O_4
REMARK    4  A    between atoms: C_3  and  C_21
REMARK    5  A    between atoms: O_4  and  P_5
REMARK    6  A    between atoms: P_5  and  C_7
REMARK    7  A    between atoms: P_5  and  O_14
REMARK    8  A    between atoms: C_7  and  C_8
REMARK    9  A    between atoms: C_8  and  CA_9
REMARK   10  A    between atoms: CA_9  and  N_10
REMARK   11  A    between atoms: CA_9  and  C_11
REMARK   12  A    between atoms: C_11  and  OXT_13
REMARK   13  A    between atoms: O_14  and  C_15
REMARK   14  A    between atoms: N_23  and  C_24
REMARK   15  A    between atoms: C_24  and  C_25
REMARK   16  A    between atoms: C_25  and  O_27
REMARK                            x       y       z     vdW  Elec       q    Type
REMARK                         _______ _______ _______ _____ _____    ______ ____
ROOT
ATOM      1  P   UNL     1       3.727   6.240  17.636  0.00  0.00    +0.000 P 
ATOM      2  O   UNL     1       4.506   5.364  18.614  0.00  0.00    +0.000 OA
ENDROOT
BRANCH   1   3
ATOM      3  O   UNL     1       5.271   6.904  17.225  0.00  0.00    +0.000 OA
BRANCH   3   4
ATOM      4  C   UNL     1       6.408   6.092  17.558  0.00  0.00    +0.000 C 
BRANCH   4   5
ATOM      5  C   UNL     1       7.031   5.251  16.406  0.00  0.00    +0.000 C 
ATOM      6  O   UNL     1       7.919   4.418  16.596  0.00  0.00    +0.000 OA
ATOM      7  N   UNL     1       6.485   5.443  15.159  0.00  0.00    +0.000 N 
ATOM      8  H   UNL     1       6.094   6.365  14.982  0.00  0.00    +0.000 HD
BRANCH   7   9
ATOM      9  C   UNL     1       7.143   4.794  14.042  0.00  0.00    +0.000 C 
BRANCH   9  10
ATOM     10  C   UNL     1       6.217   3.906  13.231  0.00  0.00    +0.000 C 
ATOM     11  O   UNL     1       6.578   3.164  12.327  0.00  0.00    +0.000 OA
BRANCH  10  12
ATOM     12  O   UNL     1       4.922   4.001  13.624  0.00  0.00    +0.000 OA
ATOM     13  H   UNL     1       4.802   4.414  14.503  0.00  0.00    +0.000 HD
ENDBRANCH  10  12
ENDBRANCH   9  10
ENDBRANCH   7   9
ENDBRANCH   4   5
BRANCH   4  15
ATOM     14  C   UNL     1       7.866   8.241  17.637  0.00  0.00    +0.000 C 
ATOM     15  C   UNL     1       7.571   6.871  18.212  0.00  0.00    +0.000 C 
ENDBRANCH   4  15
ENDBRANCH   3   4
ENDBRANCH   1   3
BRANCH   1  16
ATOM     16  C   UNL     1       3.269   7.881  18.420  0.00  0.00    +0.000 C 
BRANCH  16  17
ATOM     17  C   UNL     1       1.956   8.516  17.980  0.00  0.00    +0.000 C 
BRANCH  17  18
ATOM     18  CA  UNL     1       1.689   9.930  18.508  0.00  0.00    +0.000 C 
BRANCH  18  19
ATOM     19  N   UNL     1       2.120  10.990  17.551  0.00  0.00    +0.000 NA
ATOM     20  H1  UNL     1       1.310  11.578  17.334  0.00  0.00    +0.000 HD
ATOM     21  H2  UNL     1       2.366  10.530  16.670  0.00  0.00    +0.000 HD
ENDBRANCH  18  19
BRANCH  18  22
ATOM     22  C   UNL     1       0.184  10.116  18.789  0.00  0.00    +0.000 C 
ATOM     23  O   UNL     1      -0.405   9.746  19.786  0.00  0.00    +0.000 OA
BRANCH  22  24
ATOM     24  OXT UNL     1      -0.415  10.791  17.770  0.00  0.00    +0.000 OA
ATOM     25  HXT UNL     1      -0.799  10.098  17.177  0.00  0.00    +0.000 HD
ENDBRANCH  22  24
ENDBRANCH  18  22
ENDBRANCH  17  18
ENDBRANCH  16  17
ENDBRANCH   1  16
BRANCH   1  26
ATOM     26  O   UNL     1       2.183   5.577  18.046  0.00  0.00    +0.000 OA
BRANCH  26  27
ATOM     27  C   UNL     1       1.931   4.626  19.021  0.00  0.00    +0.000 A 
ATOM     28  C   UNL     1       2.035   4.818  20.403  0.00  0.00    +0.000 A 
ATOM     29  C   UNL     1       1.837   3.770  21.306  0.00  0.00    +0.000 A 
ATOM     30  C   UNL     1       1.453   2.522  20.839  0.00  0.00    +0.000 A 
ATOM     31  C   UNL     1       1.269   2.332  19.471  0.00  0.00    +0.000 A 
ATOM     32  C   UNL     1       1.514   3.374  18.565  0.00  0.00    +0.000 A 
ENDBRANCH  26  27
ENDBRANCH   1  26
TORSDOF 15
ENDMDL
MODEL 6
REMARK VINA RESULT:      -6.7      2.241      4.542
REMARK  Name = 
REMARK  16 active torsions:
REMARK  status: ('A' for Active; 'I' for Inactive)
REMARK    1  A    between atoms: C_1  and  C_2
REMARK    2  A    between atoms: C_2  and  C_3
REMARK    3  A    between atoms: C_3  and  O_4
REMARK    4  A    between atoms: C_3  and  C_21
REMARK    5  A    between atoms: O_4  and  P_5
REMARK    6  A    between atoms: P_5  and  C_7
REMARK    7  A    between atoms: P_5  and  O_14
REMARK    8  A    between atoms: C_7  and  C_8
REMARK    9  A    between atoms: C_8  and  CA_9
REMARK   10  A    between atoms: CA_9  and  N_10
REMARK   11  A    between atoms: CA_9  and  C_11
REMARK   12  A    between atoms: C_11  and  OXT_13
REMARK   13  A    between atoms: O_14  and  C_15
REMARK   14  A    between atoms: N_23  and  C_24
REMARK   15  A    between atoms: C_24  and  C_25
REMARK   16  A    between atoms: C_25  and  O_27
REMARK                            x       y       z     vdW  Elec       q    Type
REMARK                         _______ _______ _______ _____ _____    ______ ____
ROOT
ATOM      1  P   UNL     1       5.205   4.927  18.888  0.00  0.00    +0.000 P 
ATOM      2  O   UNL     1       6.391   4.982  19.849  0.00  0.00    +0.000 OA
ENDROOT
BRANCH   1   3
ATOM      3  O   UNL     1       5.844   6.400  18.244  0.00  0.00    +0.000 OA
BRANCH   3   4
ATOM      4  C   UNL     1       7.143   6.304  17.639  0.00  0.00    +0.000 C 
BRANCH   4   5
ATOM      5  C   UNL     1       7.332   5.209  16.550  0.00  0.00    +0.000 C 
ATOM      6  O   UNL     1       8.009   4.196  16.735  0.00  0.00    +0.000 OA
ATOM      7  N   UNL     1       6.640   5.403  15.378  0.00  0.00    +0.000 N 
ATOM      8  H   UNL     1       6.461   6.370  15.121  0.00  0.00    +0.000 HD
BRANCH   7   9
ATOM      9  C   UNL     1       6.915   4.486  14.289  0.00  0.00    +0.000 C 
BRANCH   9  10
ATOM     10  C   UNL     1       7.732   5.107  13.171  0.00  0.00    +0.000 C 
ATOM     11  O   UNL     1       8.622   5.930  13.333  0.00  0.00    +0.000 OA
BRANCH  10  12
ATOM     12  O   UNL     1       7.386   4.638  11.946  0.00  0.00    +0.000 OA
ATOM     13  H   UNL     1       7.461   5.300  11.230  0.00  0.00    +0.000 HD
ENDBRANCH  10  12
ENDBRANCH   9  10
ENDBRANCH   7   9
ENDBRANCH   4   5
BRANCH   4  15
ATOM     14  C   UNL     1       8.184   8.657  18.001  0.00  0.00    +0.000 C 
ATOM     15  C   UNL     1       7.653   7.627  17.024  0.00  0.00    +0.000 C 
ENDBRANCH   4  15
ENDBRANCH   3   4
ENDBRANCH   1   3
BRANCH   1  16
ATOM     16  C   UNL     1       3.747   5.894  19.563  0.00  0.00    +0.000 C 
BRANCH  16  17
ATOM     17  C   UNL     1       3.146   6.962  18.657  0.00  0.00    +0.000 C 
BRANCH  17  18
ATOM     18  CA  UNL     1       1.860   7.622  19.167  0.00  0.00    +0.000 C 
BRANCH  18  19
ATOM     19  N   UNL     1       1.826   7.739  20.653  0.00  0.00    +0.000 NA
ATOM     20  H1  UNL     1       0.948   8.192  20.922  0.00  0.00    +0.000 HD
ATOM     21  H2  UNL     1       2.564   8.392  20.929  0.00  0.00    +0.000 HD
ENDBRANCH  18  19
BRANCH  18  22
ATOM     22  C   UNL     1       1.717   9.037  18.568  0.00  0.00    +0.000 C 
ATOM     23  O   UNL     1       1.283  10.014  19.147  0.00  0.00    +0.000 OA
BRANCH  22  24
ATOM     24  OXT UNL     1       2.174   9.064  17.286  0.00  0.00    +0.000 OA
ATOM     25  HXT UNL     1       3.160   9.018  17.350  0.00  0.00    +0.000 HD
ENDBRANCH  22  24
ENDBRANCH  18  22
ENDBRANCH  17  18
ENDBRANCH  16  17
ENDBRANCH   1  16
BRANCH   1  26
ATOM     26  O   UNL     1       4.566   3.454  19.533  0.00  0.00    +0.000 OA
BRANCH  26  27
ATOM     27  C   UNL     1       3.227   3.155  19.726  0.00  0.00    +0.000 A 
ATOM     28  C   UNL     1       2.566   3.108  20.958  0.00  0.00    +0.000 A 
ATOM     29  C   UNL     1       1.228   2.717  21.057  0.00  0.00    +0.000 A 
ATOM     30  C   UNL     1       0.505   2.440  19.907  0.00  0.00    +0.000 A 
ATOM     31  C   UNL     1       1.126   2.557  18.665  0.00  0.00    +0.000 A 
ATOM     32  C   UNL     1       2.481   2.905  18.574  0.00  0.00    +0.000 A 
ENDBRANCH  26  27
ENDBRANCH   1  26
TORSDOF 15
ENDMDL
MODEL 7
REMARK VINA RESULT:      -6.7      1.690      2.083
REMARK  Name = 
REMARK  16 active torsions:
REMARK  status: ('A' for Active; 'I' for Inactive)
REMARK    1  A    between atoms: C_1  and  C_2
REMARK    2  A    between atoms: C_2  and  C_3
REMARK    3  A    between atoms: C_3  and  O_4
REMARK    4  A    between atoms: C_3  and  C_21
REMARK    5  A    between atoms: O_4  and  P_5
REMARK    6  A    between atoms: P_5  and  C_7
REMARK    7  A    between atoms: P_5  and  O_14
REMARK    8  A    between atoms: C_7  and  C_8
REMARK    9  A    between atoms: C_8  and  CA_9
REMARK   10  A    between atoms: CA_9  and  N_10
REMARK   11  A    between atoms: CA_9  and  C_11
REMARK   12  A    between atoms: C_11  and  OXT_13
REMARK   13  A    between atoms: O_14  and  C_15
REMARK   14  A    between atoms: N_23  and  C_24
REMARK   15  A    between atoms: C_24  and  C_25
REMARK   16  A    between atoms: C_25  and  O_27
REMARK                            x       y       z     vdW  Elec       q    Type
REMARK                         _______ _______ _______ _____ _____    ______ ____
ROOT
ATOM      1  P   UNL     1       4.057   6.186  18.221  0.00  0.00    +0.000 P 
ATOM      2  O   UNL     1       4.134   5.508  16.855  0.00  0.00    +0.000 OA
ENDROOT
BRANCH   1   3
ATOM      3  O   UNL     1       5.527   5.339  18.563  0.00  0.00    +0.000 OA
BRANCH   3   4
ATOM      4  C   UNL     1       6.707   5.856  17.929  0.00  0.00    +0.000 C 
BRANCH   4   5
ATOM      5  C   UNL     1       7.239   5.075  16.692  0.00  0.00    +0.000 C 
ATOM      6  O   UNL     1       8.090   4.188  16.780  0.00  0.00    +0.000 OA
ATOM      7  N   UNL     1       6.653   5.387  15.488  0.00  0.00    +0.000 N 
ATOM      8  H   UNL     1       6.303   6.338  15.396  0.00  0.00    +0.000 HD
BRANCH   7   9
ATOM      9  C   UNL     1       7.231   4.793  14.298  0.00  0.00    +0.000 C 
BRANCH   9  10
ATOM     10  C   UNL     1       6.242   3.969  13.495  0.00  0.00    +0.000 C 
ATOM     11  O   UNL     1       5.028   4.001  13.642  0.00  0.00    +0.000 OA
BRANCH  10  12
ATOM     12  O   UNL     1       6.845   3.190  12.562  0.00  0.00    +0.000 OA
ATOM     13  H   UNL     1       6.351   2.373  12.348  0.00  0.00    +0.000 HD
ENDBRANCH  10  12
ENDBRANCH   9  10
ENDBRANCH   7   9
ENDBRANCH   4   5
BRANCH   4  15
ATOM     14  C   UNL     1       7.866   8.158  17.604  0.00  0.00    +0.000 C 
ATOM     15  C   UNL     1       6.597   7.336  17.499  0.00  0.00    +0.000 C 
ENDBRANCH   4  15
ENDBRANCH   3   4
ENDBRANCH   1   3
BRANCH   1  16
ATOM     16  C   UNL     1       3.178   5.093  19.466  0.00  0.00    +0.000 C 
BRANCH  16  17
ATOM     17  C   UNL     1       2.600   3.781  18.949  0.00  0.00    +0.000 C 
BRANCH  17  18
ATOM     18  CA  UNL     1       2.770   2.569  19.872  0.00  0.00    +0.000 C 
BRANCH  18  19
ATOM     19  N   UNL     1       4.195   2.316  20.231  0.00  0.00    +0.000 NA
ATOM     20  H1  UNL     1       4.623   1.761  19.485  0.00  0.00    +0.000 HD
ATOM     21  H2  UNL     1       4.203   1.712  21.058  0.00  0.00    +0.000 HD
ENDBRANCH  18  19
BRANCH  18  22
ATOM     22  C   UNL     1       1.973   2.780  21.176  0.00  0.00    +0.000 C 
ATOM     23  O   UNL     1       2.441   2.819  22.297  0.00  0.00    +0.000 OA
BRANCH  22  24
ATOM     24  OXT UNL     1       0.649   2.950  20.908  0.00  0.00    +0.000 OA
ATOM     25  HXT UNL     1       0.471   2.429  20.087  0.00  0.00    +0.000 HD
ENDBRANCH  22  24
ENDBRANCH  18  22
ENDBRANCH  17  18
ENDBRANCH  16  17
ENDBRANCH   1  16
BRANCH   1  26
ATOM     26  O   UNL     1       2.588   7.033  17.879  0.00  0.00    +0.000 OA
BRANCH  26  27
ATOM     27  C   UNL     1       2.055   8.081  18.611  0.00  0.00    +0.000 A 
ATOM     28  C   UNL     1       1.730   8.051  19.972  0.00  0.00    +0.000 A 
ATOM     29  C   UNL     1       1.120   9.139  20.603  0.00  0.00    +0.000 A 
ATOM     30  C   UNL     1       0.898  10.310  19.896  0.00  0.00    +0.000 A 
ATOM     31  C   UNL     1       1.287  10.385  18.559  0.00  0.00    +0.000 A 
ATOM     32  C   UNL     1       1.856   9.275  17.918  0.00  0.00    +0.000 A 
ENDBRANCH  26  27
ENDBRANCH   1  26
TORSDOF 15
ENDMDL
MODEL 8
REMARK VINA RESULT:      -6.6      2.167      3.983
REMARK  Name = 
REMARK  16 active torsions:
REMARK  status: ('A' for Active; 'I' for Inactive)
REMARK    1  A    between atoms: C_1  and  C_2
REMARK    2  A    between atoms: C_2  and  C_3
REMARK    3  A    between atoms: C_3  and  O_4
REMARK    4  A    between atoms: C_3  and  C_21
REMARK    5  A    between atoms: O_4  and  P_5
REMARK    6  A    between atoms: P_5  and  C_7
REMARK    7  A    between atoms: P_5  and  O_14
REMARK    8  A    between atoms: C_7  and  C_8
REMARK    9  A    between atoms: C_8  and  CA_9
REMARK   10  A    between atoms: CA_9  and  N_10
REMARK   11  A    between atoms: CA_9  and  C_11
REMARK   12  A    between atoms: C_11  and  OXT_13
REMARK   13  A    between atoms: O_14  and  C_15
REMARK   14  A    between atoms: N_23  and  C_24
REMARK   15  A    between atoms: C_24  and  C_25
REMARK   16  A    between atoms: C_25  and  O_27
REMARK                            x       y       z     vdW  Elec       q    Type
REMARK                         _______ _______ _______ _____ _____    ______ ____
ROOT
ATOM      1  P   UNL     1       3.740   5.561  18.175  0.00  0.00    +0.000 P 
ATOM      2  O   UNL     1       2.548   4.878  17.510  0.00  0.00    +0.000 OA
ENDROOT
BRANCH   1   3
ATOM      3  O   UNL     1       4.668   4.877  16.884  0.00  0.00    +0.000 OA
BRANCH   3   4
ATOM      4  C   UNL     1       5.619   5.757  16.265  0.00  0.00    +0.000 C 
BRANCH   4   5
ATOM      5  C   UNL     1       6.915   6.067  17.070  0.00  0.00    +0.000 C 
ATOM      6  O   UNL     1       7.736   5.198  17.371  0.00  0.00    +0.000 OA
ATOM      7  N   UNL     1       7.129   7.390  17.375  0.00  0.00    +0.000 N 
ATOM      8  H   UNL     1       6.295   7.963  17.484  0.00  0.00    +0.000 HD
BRANCH   7   9
ATOM      9  C   UNL     1       8.241   7.694  18.254  0.00  0.00    +0.000 C 
BRANCH   9  10
ATOM     10  C   UNL     1       8.482   9.182  18.428  0.00  0.00    +0.000 C 
ATOM     11  O   UNL     1       9.226   9.675  19.266  0.00  0.00    +0.000 OA
BRANCH  10  12
ATOM     12  O   UNL     1       7.793   9.933  17.533  0.00  0.00    +0.000 OA
ATOM     13  H   UNL     1       8.331  10.623  17.094  0.00  0.00    +0.000 HD
ENDBRANCH  10  12
ENDBRANCH   9  10
ENDBRANCH   7   9
ENDBRANCH   4   5
BRANCH   4  15
ATOM     14  C   UNL     1       6.065   3.816  14.596  0.00  0.00    +0.000 C 
ATOM     15  C   UNL     1       6.073   5.308  14.858  0.00  0.00    +0.000 C 
ENDBRANCH   4  15
ENDBRANCH   3   4
ENDBRANCH   1   3
BRANCH   1  16
ATOM     16  C   UNL     1       4.604   4.398  19.366  0.00  0.00    +0.000 C 
BRANCH  16  17
ATOM     17  C   UNL     1       4.079   2.970  19.441  0.00  0.00    +0.000 C 
BRANCH  17  18
ATOM     18  CA  UNL     1       2.892   2.744  20.384  0.00  0.00    +0.000 C 
BRANCH  18  19
ATOM     19  N   UNL     1       2.596   3.936  21.228  0.00  0.00    +0.000 NA
ATOM     20  H1  UNL     1       3.206   4.703  20.932  0.00  0.00    +0.000 HD
ATOM     21  H2  UNL     1       2.882   3.716  22.186  0.00  0.00    +0.000 HD
ENDBRANCH  18  19
BRANCH  18  22
ATOM     22  C   UNL     1       1.626   2.402  19.570  0.00  0.00    +0.000 C 
ATOM     23  O   UNL     1       0.584   3.027  19.579  0.00  0.00    +0.000 OA
BRANCH  22  24
ATOM     24  OXT UNL     1       1.835   1.301  18.798  0.00  0.00    +0.000 OA
ATOM     25  HXT UNL     1       2.753   1.389  18.443  0.00  0.00    +0.000 HD
ENDBRANCH  22  24
ENDBRANCH  18  22
ENDBRANCH  17  18
ENDBRANCH  16  17
ENDBRANCH   1  16
BRANCH   1  26
ATOM     26  O   UNL     1       2.813   6.245  19.465  0.00  0.00    +0.000 OA
BRANCH  26  27
ATOM     27  C   UNL     1       2.193   7.484  19.464  0.00  0.00    +0.000 A 
ATOM     28  C   UNL     1       1.535   8.075  20.548  0.00  0.00    +0.000 A 
ATOM     29  C   UNL     1       0.869   9.297  20.424  0.00  0.00    +0.000 A 
ATOM     30  C   UNL     1       0.917   9.989  19.223  0.00  0.00    +0.000 A 
ATOM     31  C   UNL     1       1.633   9.452  18.154  0.00  0.00    +0.000 A 
ATOM     32  C   UNL     1       2.262   8.204  18.270  0.00  0.00    +0.000 A 
ENDBRANCH  26  27
ENDBRANCH   1  26
TORSDOF 15
ENDMDL
MODEL 9
REMARK VINA RESULT:      -6.5      2.309      4.692
REMARK  Name = 
REMARK  16 active torsions:
REMARK  status: ('A' for Active; 'I' for Inactive)
REMARK    1  A    between atoms: C_1  and  C_2
REMARK    2  A    between atoms: C_2  and  C_3
REMARK    3  A    between atoms: C_3  and  O_4
REMARK    4  A    between atoms: C_3  and  C_21
REMARK    5  A    between atoms: O_4  and  P_5
REMARK    6  A    between atoms: P_5  and  C_7
REMARK    7  A    between atoms: P_5  and  O_14
REMARK    8  A    between atoms: C_7  and  C_8
REMARK    9  A    between atoms: C_8  and  CA_9
REMARK   10  A    between atoms: CA_9  and  N_10
REMARK   11  A    between atoms: CA_9  and  C_11
REMARK   12  A    between atoms: C_11  and  OXT_13
REMARK   13  A    between atoms: O_14  and  C_15
REMARK   14  A    between atoms: N_23  and  C_24
REMARK   15  A    between atoms: C_24  and  C_25
REMARK   16  A    between atoms: C_25  and  O_27
REMARK                            x       y       z     vdW  Elec       q    Type
REMARK                         _______ _______ _______ _____ _____    ______ ____
ROOT
ATOM      1  P   UNL     1       3.819   6.366  17.701  0.00  0.00    +0.000 P 
ATOM      2  O   UNL     1       4.433   5.844  18.998  0.00  0.00    +0.000 OA
ENDROOT
BRANCH   1   3
ATOM      3  O   UNL     1       5.432   6.846  17.300  0.00  0.00    +0.000 OA
BRANCH   3   4
ATOM      4  C   UNL     1       6.460   5.889  17.598  0.00  0.00    +0.000 C 
BRANCH   4   5
ATOM      5  C   UNL     1       7.055   5.101  16.396  0.00  0.00    +0.000 C 
ATOM      6  O   UNL     1       7.844   4.165  16.538  0.00  0.00    +0.000 OA
ATOM      7  N   UNL     1       6.598   5.468  15.152  0.00  0.00    +0.000 N 
ATOM      8  H   UNL     1       6.312   6.439  15.052  0.00  0.00    +0.000 HD
BRANCH   7   9
ATOM      9  C   UNL     1       7.245   4.863  14.004  0.00  0.00    +0.000 C 
BRANCH   9  10
ATOM     10  C   UNL     1       6.319   3.987  13.182  0.00  0.00    +0.000 C 
ATOM     11  O   UNL     1       6.656   3.351  12.193  0.00  0.00    +0.000 OA
BRANCH  10  12
ATOM     12  O   UNL     1       5.054   3.959  13.671  0.00  0.00    +0.000 OA
ATOM     13  H   UNL     1       4.612   4.832  13.682  0.00  0.00    +0.000 HD
ENDBRANCH  10  12
ENDBRANCH   9  10
ENDBRANCH   7   9
ENDBRANCH   4   5
BRANCH   4  15
ATOM     14  C   UNL     1       8.030   5.762  19.665  0.00  0.00    +0.000 C 
ATOM     15  C   UNL     1       7.660   6.472  18.378  0.00  0.00    +0.000 C 
ENDBRANCH   4  15
ENDBRANCH   3   4
ENDBRANCH   1   3
BRANCH   1  16
ATOM     16  C   UNL     1       3.355   8.176  17.856  0.00  0.00    +0.000 C 
BRANCH  16  17
ATOM     17  C   UNL     1       1.886   8.533  17.667  0.00  0.00    +0.000 C 
BRANCH  17  18
ATOM     18  CA  UNL     1       1.139   8.974  18.930  0.00  0.00    +0.000 C 
BRANCH  18  19
ATOM     19  N   UNL     1       1.676   8.336  20.166  0.00  0.00    +0.000 NA
ATOM     20  H1  UNL     1       1.122   7.498  20.365  0.00  0.00    +0.000 HD
ATOM     21  H2  UNL     1       1.493   8.973  20.948  0.00  0.00    +0.000 HD
ENDBRANCH  18  19
BRANCH  18  22
ATOM     22  C   UNL     1       1.235  10.505  19.096  0.00  0.00    +0.000 C 
ATOM     23  O   UNL     1       1.138  11.115  20.143  0.00  0.00    +0.000 OA
BRANCH  22  24
ATOM     24  OXT UNL     1       1.478  11.103  17.898  0.00  0.00    +0.000 OA
ATOM     25  HXT UNL     1       0.611  11.120  17.423  0.00  0.00    +0.000 HD
ENDBRANCH  22  24
ENDBRANCH  18  22
ENDBRANCH  17  18
ENDBRANCH  16  17
ENDBRANCH   1  16
BRANCH   1  26
ATOM     26  O   UNL     1       2.206   5.885  18.102  0.00  0.00    +0.000 OA
BRANCH  26  27
ATOM     27  C   UNL     1       1.837   4.740  18.787  0.00  0.00    +0.000 A 
ATOM     28  C   UNL     1       1.496   4.668  20.143  0.00  0.00    +0.000 A 
ATOM     29  C   UNL     1       1.214   3.448  20.763  0.00  0.00    +0.000 A 
ATOM     30  C   UNL     1       1.194   2.282  20.014  0.00  0.00    +0.000 A 
ATOM     31  C   UNL     1       1.455   2.345  18.646  0.00  0.00    +0.000 A 
ATOM     32  C   UNL     1       1.782   3.565  18.036  0.00  0.00    +0.000 A 
ENDBRANCH  26  27
ENDBRANCH   1  26
TORSDOF 15
ENDMDL
