MODEL 1
REMARK VINA RESULT:      -8.9      0.000      0.000
REMARK  Name = 
REMARK  0 active torsions:
REMARK  status: ('A' for Active; 'I' for Inactive)
REMARK                            x       y       z     vdW  Elec       q    Type
REMARK                         _______ _______ _______ _____ _____    ______ ____
ROOT
ATOM      1  O   UNL     1       4.722   1.826  20.960  0.00  0.00    +0.000 OA
ATOM      2  C   UNL     1       4.174   2.529  20.130  0.00  0.00    +0.000 C 
ATOM      3  C   UNL     1       4.691   3.867  19.668  0.00  0.00    +0.000 C 
ATOM      4  C   UNL     1       3.773   4.390  18.557  0.00  0.00    +0.000 C 
ATOM      5  C   UNL     1       3.130   5.739  18.878  0.00  0.00    +0.000 A 
ATOM      6  C   UNL     1       2.360   6.104  19.977  0.00  0.00    +0.000 A 
ATOM      7  C   UNL     1       1.874   7.411  20.040  0.00  0.00    +0.000 A 
ATOM      8  C   UNL     1       2.172   8.334  19.028  0.00  0.00    +0.000 A 
ATOM      9  C   UNL     1       2.963   7.970  17.933  0.00  0.00    +0.000 A 
ATOM     10  C   UNL     1       3.438   6.670  17.862  0.00  0.00    +0.000 A 
ATOM     11  C   UNL     1       4.271   6.029  16.866  0.00  0.00    +0.000 A 
ATOM     12  C   UNL     1       4.829   6.541  15.702  0.00  0.00    +0.000 A 
ATOM     13  C   UNL     1       5.619   5.697  14.914  0.00  0.00    +0.000 A 
ATOM     14  C   UNL     1       5.844   4.373  15.303  0.00  0.00    +0.000 A 
ATOM     15  F   UNL     1       6.606   3.586  14.532  0.00  0.00    +0.000 F 
ATOM     16  C   UNL     1       5.296   3.852  16.471  0.00  0.00    +0.000 A 
ATOM     17  C   UNL     1       4.497   4.686  17.245  0.00  0.00    +0.000 A 
ATOM     18  S   UNL     1       2.473   3.148  18.277  0.00  0.00    +0.000 S 
ATOM     19  O   UNL     1       1.161   3.598  18.684  0.00  0.00    +0.000 OA
ATOM     20  O   UNL     1       2.667   2.408  17.051  0.00  0.00    +0.000 OA
ATOM     21  N   UNL     1       2.999   2.142  19.494  0.00  0.00    +0.000 N 
ATOM     22  H   UNL     1       2.629   1.199  19.565  0.00  0.00    +0.000 HD
ENDROOT
TORSDOF 0
ENDMDL
MODEL 2
REMARK VINA RESULT:      -8.1      3.097      4.404
REMARK  Name = 
REMARK  0 active torsions:
REMARK  status: ('A' for Active; 'I' for Inactive)
REMARK                            x       y       z     vdW  Elec       q    Type
REMARK                         _______ _______ _______ _____ _____    ______ ____
ROOT
ATOM      1  O   UNL     1       6.959   4.785  14.104  0.00  0.00    +0.000 OA
ATOM      2  C   UNL     1       6.492   4.972  15.214  0.00  0.00    +0.000 C 
ATOM      3  C   UNL     1       5.023   4.911  15.543  0.00  0.00    +0.000 C 
ATOM      4  C   UNL     1       4.851   5.110  17.054  0.00  0.00    +0.000 C 
ATOM      5  C   UNL     1       3.983   6.313  17.418  0.00  0.00    +0.000 A 
ATOM      6  C   UNL     1       4.129   7.645  17.046  0.00  0.00    +0.000 A 
ATOM      7  C   UNL     1       3.198   8.571  17.520  0.00  0.00    +0.000 A 
ATOM      8  C   UNL     1       2.133   8.161  18.336  0.00  0.00    +0.000 A 
ATOM      9  C   UNL     1       1.977   6.818  18.693  0.00  0.00    +0.000 A 
ATOM     10  C   UNL     1       2.906   5.898  18.233  0.00  0.00    +0.000 A 
ATOM     11  C   UNL     1       2.988   4.466  18.435  0.00  0.00    +0.000 A 
ATOM     12  C   UNL     1       2.154   3.614  19.147  0.00  0.00    +0.000 A 
ATOM     13  C   UNL     1       2.458   2.248  19.167  0.00  0.00    +0.000 A 
ATOM     14  C   UNL     1       3.571   1.762  18.477  0.00  0.00    +0.000 A 
ATOM     15  F   UNL     1       3.839   0.449  18.511  0.00  0.00    +0.000 F 
ATOM     16  C   UNL     1       4.410   2.605  17.755  0.00  0.00    +0.000 A 
ATOM     17  C   UNL     1       4.117   3.964  17.748  0.00  0.00    +0.000 A 
ATOM     18  S   UNL     1       6.506   5.312  17.781  0.00  0.00    +0.000 S 
ATOM     19  O   UNL     1       6.745   6.645  18.288  0.00  0.00    +0.000 OA
ATOM     20  O   UNL     1       6.939   4.142  18.512  0.00  0.00    +0.000 OA
ATOM     21  N   UNL     1       7.295   5.241  16.317  0.00  0.00    +0.000 N 
ATOM     22  H   UNL     1       8.304   5.137  16.292  0.00  0.00    +0.000 HD
ENDROOT
TORSDOF 0
ENDMDL
MODEL 3
REMARK VINA RESULT:      -8.0      3.095      4.544
REMARK  Name = 
REMARK  0 active torsions:
REMARK  status: ('A' for Active; 'I' for Inactive)
REMARK                            x       y       z     vdW  Elec       q    Type
REMARK                         _______ _______ _______ _____ _____    ______ ____
ROOT
ATOM      1  O   UNL     1       6.446   4.129  14.426  0.00  0.00    +0.000 OA
ATOM      2  C   UNL     1       6.187   4.569  15.532  0.00  0.00    +0.000 C 
ATOM      3  C   UNL     1       4.831   4.496  16.185  0.00  0.00    +0.000 C 
ATOM      4  C   UNL     1       4.937   5.074  17.601  0.00  0.00    +0.000 C 
ATOM      5  C   UNL     1       4.014   6.267  17.845  0.00  0.00    +0.000 A 
ATOM      6  C   UNL     1       3.916   7.460  17.138  0.00  0.00    +0.000 A 
ATOM      7  C   UNL     1       2.989   8.410  17.566  0.00  0.00    +0.000 A 
ATOM      8  C   UNL     1       2.166   8.158  18.674  0.00  0.00    +0.000 A 
ATOM      9  C   UNL     1       2.252   6.950  19.373  0.00  0.00    +0.000 A 
ATOM     10  C   UNL     1       3.180   6.008  18.955  0.00  0.00    +0.000 A 
ATOM     11  C   UNL     1       3.478   4.690  19.477  0.00  0.00    +0.000 A 
ATOM     12  C   UNL     1       2.914   4.000  20.541  0.00  0.00    +0.000 A 
ATOM     13  C   UNL     1       3.384   2.713  20.825  0.00  0.00    +0.000 A 
ATOM     14  C   UNL     1       4.391   2.141  20.044  0.00  0.00    +0.000 A 
ATOM     15  F   UNL     1       4.822   0.906  20.337  0.00  0.00    +0.000 F 
ATOM     16  C   UNL     1       4.959   2.820  18.971  0.00  0.00    +0.000 A 
ATOM     17  C   UNL     1       4.503   4.104  18.699  0.00  0.00    +0.000 A 
ATOM     18  S   UNL     1       6.664   5.577  17.870  0.00  0.00    +0.000 S 
ATOM     19  O   UNL     1       6.830   7.010  17.970  0.00  0.00    +0.000 OA
ATOM     20  O   UNL     1       7.375   4.675  18.748  0.00  0.00    +0.000 OA
ATOM     21  N   UNL     1       7.152   5.176  16.329  0.00  0.00    +0.000 N 
ATOM     22  H   UNL     1       8.141   5.141  16.107  0.00  0.00    +0.000 HD
ENDROOT
TORSDOF 0
ENDMDL
MODEL 4
REMARK VINA RESULT:      -7.8      3.405      4.266
REMARK  Name = 
REMARK  0 active torsions:
REMARK  status: ('A' for Active; 'I' for Inactive)
REMARK                            x       y       z     vdW  Elec       q    Type
REMARK                         _______ _______ _______ _____ _____    ______ ____
ROOT
ATOM      1  O   UNL     1       8.041   8.886  17.931  0.00  0.00    +0.000 OA
ATOM      2  C   UNL     1       7.557   7.769  17.877  0.00  0.00    +0.000 C 
ATOM      3  C   UNL     1       6.335   7.405  17.075  0.00  0.00    +0.000 C 
ATOM      4  C   UNL     1       6.103   5.895  17.195  0.00  0.00    +0.000 C 
ATOM      5  C   UNL     1       4.741   5.530  17.785  0.00  0.00    +0.000 A 
ATOM      6  C   UNL     1       4.173   5.926  18.990  0.00  0.00    +0.000 A 
ATOM      7  C   UNL     1       2.903   5.447  19.313  0.00  0.00    +0.000 A 
ATOM      8  C   UNL     1       2.213   4.600  18.434  0.00  0.00    +0.000 A 
ATOM      9  C   UNL     1       2.778   4.217  17.213  0.00  0.00    +0.000 A 
ATOM     10  C   UNL     1       4.044   4.683  16.894  0.00  0.00    +0.000 A 
ATOM     11  C   UNL     1       4.857   4.460  15.717  0.00  0.00    +0.000 A 
ATOM     12  C   UNL     1       4.593   3.716  14.575  0.00  0.00    +0.000 A 
ATOM     13  C   UNL     1       5.559   3.680  13.564  0.00  0.00    +0.000 A 
ATOM     14  C   UNL     1       6.756   4.388  13.705  0.00  0.00    +0.000 A 
ATOM     15  F   UNL     1       7.665   4.338  12.721  0.00  0.00    +0.000 F 
ATOM     16  C   UNL     1       7.028   5.143  14.842  0.00  0.00    +0.000 A 
ATOM     17  C   UNL     1       6.075   5.165  15.853  0.00  0.00    +0.000 A 
ATOM     18  S   UNL     1       7.422   5.209  18.242  0.00  0.00    +0.000 S 
ATOM     19  O   UNL     1       6.943   4.730  19.520  0.00  0.00    +0.000 OA
ATOM     20  O   UNL     1       8.406   4.469  17.484  0.00  0.00    +0.000 OA
ATOM     21  N   UNL     1       8.117   6.690  18.551  0.00  0.00    +0.000 N 
ATOM     22  H   UNL     1       9.035   6.736  18.984  0.00  0.00    +0.000 HD
ENDROOT
TORSDOF 0
ENDMDL
MODEL 5
REMARK VINA RESULT:      -7.8      2.541      4.535
REMARK  Name = 
REMARK  0 active torsions:
REMARK  status: ('A' for Active; 'I' for Inactive)
REMARK                            x       y       z     vdW  Elec       q    Type
REMARK                         _______ _______ _______ _____ _____    ______ ____
ROOT
ATOM      1  O   UNL     1       0.311   2.133  18.514  0.00  0.00    +0.000 OA
ATOM      2  C   UNL     1       1.277   2.871  18.596  0.00  0.00    +0.000 C 
ATOM      3  C   UNL     1       1.616   3.949  17.600  0.00  0.00    +0.000 C 
ATOM      4  C   UNL     1       2.846   4.713  18.104  0.00  0.00    +0.000 C 
ATOM      5  C   UNL     1       4.029   4.675  17.136  0.00  0.00    +0.000 A 
ATOM      6  C   UNL     1       4.676   3.575  16.585  0.00  0.00    +0.000 A 
ATOM      7  C   UNL     1       5.749   3.802  15.722  0.00  0.00    +0.000 A 
ATOM      8  C   UNL     1       6.151   5.108  15.408  0.00  0.00    +0.000 A 
ATOM      9  C   UNL     1       5.487   6.214  15.950  0.00  0.00    +0.000 A 
ATOM     10  C   UNL     1       4.427   5.992  16.815  0.00  0.00    +0.000 A 
ATOM     11  C   UNL     1       3.568   6.930  17.506  0.00  0.00    +0.000 A 
ATOM     12  C   UNL     1       3.564   8.319  17.491  0.00  0.00    +0.000 A 
ATOM     13  C   UNL     1       2.599   8.991  18.249  0.00  0.00    +0.000 A 
ATOM     14  C   UNL     1       1.659   8.273  18.993  0.00  0.00    +0.000 A 
ATOM     15  F   UNL     1       0.744   8.941  19.709  0.00  0.00    +0.000 F 
ATOM     16  C   UNL     1       1.648   6.882  19.009  0.00  0.00    +0.000 A 
ATOM     17  C   UNL     1       2.617   6.214  18.269  0.00  0.00    +0.000 A 
ATOM     18  S   UNL     1       3.340   3.986  19.696  0.00  0.00    +0.000 S 
ATOM     19  O   UNL     1       4.604   3.285  19.634  0.00  0.00    +0.000 OA
ATOM     20  O   UNL     1       3.004   4.830  20.821  0.00  0.00    +0.000 OA
ATOM     21  N   UNL     1       2.170   2.802  19.660  0.00  0.00    +0.000 N 
ATOM     22  H   UNL     1       1.980   2.255  20.494  0.00  0.00    +0.000 HD
ENDROOT
TORSDOF 0
ENDMDL
MODEL 6
REMARK VINA RESULT:      -7.7      6.533      9.176
REMARK  Name = 
REMARK  0 active torsions:
REMARK  status: ('A' for Active; 'I' for Inactive)
REMARK                            x       y       z     vdW  Elec       q    Type
REMARK                         _______ _______ _______ _____ _____    ______ ____
ROOT
ATOM      1  O   UNL     1       0.135  14.463  17.859  0.00  0.00    +0.000 OA
ATOM      2  C   UNL     1      -0.112  13.313  18.178  0.00  0.00    +0.000 C 
ATOM      3  C   UNL     1       0.688  12.511  19.171  0.00  0.00    +0.000 C 
ATOM      4  C   UNL     1       0.007  11.152  19.366  0.00  0.00    +0.000 C 
ATOM      5  C   UNL     1       0.901   9.963  19.017  0.00  0.00    +0.000 A 
ATOM      6  C   UNL     1       1.577   9.691  17.832  0.00  0.00    +0.000 A 
ATOM      7  C   UNL     1       2.334   8.522  17.755  0.00  0.00    +0.000 A 
ATOM      8  C   UNL     1       2.422   7.653  18.852  0.00  0.00    +0.000 A 
ATOM      9  C   UNL     1       1.757   7.937  20.049  0.00  0.00    +0.000 A 
ATOM     10  C   UNL     1       0.996   9.093  20.126  0.00  0.00    +0.000 A 
ATOM     11  C   UNL     1       0.220   9.634  21.222  0.00  0.00    +0.000 A 
ATOM     12  C   UNL     1       0.024   9.146  22.507  0.00  0.00    +0.000 A 
ATOM     13  C   UNL     1      -0.772   9.886  23.388  0.00  0.00    +0.000 A 
ATOM     14  C   UNL     1      -1.344  11.093  22.978  0.00  0.00    +0.000 A 
ATOM     15  F   UNL     1      -2.101  11.784  23.841  0.00  0.00    +0.000 F 
ATOM     16  C   UNL     1      -1.149  11.596  21.695  0.00  0.00    +0.000 A 
ATOM     17  C   UNL     1      -0.372  10.852  20.815  0.00  0.00    +0.000 A 
ATOM     18  S   UNL     1      -1.482  11.120  18.321  0.00  0.00    +0.000 S 
ATOM     19  O   UNL     1      -1.385  10.186  17.221  0.00  0.00    +0.000 OA
ATOM     20  O   UNL     1      -2.701  11.255  19.086  0.00  0.00    +0.000 OA
ATOM     21  N   UNL     1      -1.202  12.622  17.660  0.00  0.00    +0.000 N 
ATOM     22  H   UNL     1      -1.931  13.081  17.123  0.00  0.00    +0.000 HD
ENDROOT
TORSDOF 0
ENDMDL
MODEL 7
REMARK VINA RESULT:      -7.6      2.891      4.341
REMARK  Name = 
REMARK  0 active torsions:
REMARK  status: ('A' for Active; 'I' for Inactive)
REMARK                            x       y       z     vdW  Elec       q    Type
REMARK                         _______ _______ _______ _____ _____    ______ ____
ROOT
ATOM      1  O   UNL     1       6.281   3.488  14.957  0.00  0.00    +0.000 OA
ATOM      2  C   UNL     1       5.810   3.950  15.981  0.00  0.00    +0.000 C 
ATOM      3  C   UNL     1       4.358   4.308  16.167  0.00  0.00    +0.000 C 
ATOM      4  C   UNL     1       4.149   4.769  17.614  0.00  0.00    +0.000 C 
ATOM      5  C   UNL     1       3.604   6.192  17.731  0.00  0.00    +0.000 A 
ATOM      6  C   UNL     1       4.116   7.373  17.206  0.00  0.00    +0.000 A 
ATOM      7  C   UNL     1       3.432   8.563  17.460  0.00  0.00    +0.000 A 
ATOM      8  C   UNL     1       2.248   8.560  18.212  0.00  0.00    +0.000 A 
ATOM      9  C   UNL     1       1.724   7.368  18.723  0.00  0.00    +0.000 A 
ATOM     10  C   UNL     1       2.408   6.187  18.481  0.00  0.00    +0.000 A 
ATOM     11  C   UNL     1       2.099   4.828  18.874  0.00  0.00    +0.000 A 
ATOM     12  C   UNL     1       1.028   4.327  19.603  0.00  0.00    +0.000 A 
ATOM     13  C   UNL     1       0.962   2.949  19.831  0.00  0.00    +0.000 A 
ATOM     14  C   UNL     1       1.951   2.101  19.324  0.00  0.00    +0.000 A 
ATOM     15  F   UNL     1       1.864   0.784  19.555  0.00  0.00    +0.000 F 
ATOM     16  C   UNL     1       3.025   2.590  18.586  0.00  0.00    +0.000 A 
ATOM     17  C   UNL     1       3.099   3.962  18.374  0.00  0.00    +0.000 A 
ATOM     18  S   UNL     1       5.750   4.659  18.471  0.00  0.00    +0.000 S 
ATOM     19  O   UNL     1       6.297   5.951  18.821  0.00  0.00    +0.000 OA
ATOM     20  O   UNL     1       5.815   3.543  19.386  0.00  0.00    +0.000 OA
ATOM     21  N   UNL     1       6.584   4.174  17.114  0.00  0.00    +0.000 N 
ATOM     22  H   UNL     1       7.530   3.818  17.204  0.00  0.00    +0.000 HD
ENDROOT
TORSDOF 0
ENDMDL
MODEL 8
REMARK VINA RESULT:      -7.5      3.378      4.719
REMARK  Name = 
REMARK  0 active torsions:
REMARK  status: ('A' for Active; 'I' for Inactive)
REMARK                            x       y       z     vdW  Elec       q    Type
REMARK                         _______ _______ _______ _____ _____    ______ ____
ROOT
ATOM      1  O   UNL     1       8.246   5.643  19.089  0.00  0.00    +0.000 OA
ATOM      2  C   UNL     1       7.220   5.456  18.460  0.00  0.00    +0.000 C 
ATOM      3  C   UNL     1       5.843   5.407  19.068  0.00  0.00    +0.000 C 
ATOM      4  C   UNL     1       4.815   5.245  17.941  0.00  0.00    +0.000 C 
ATOM      5  C   UNL     1       3.957   3.987  18.072  0.00  0.00    +0.000 A 
ATOM      6  C   UNL     1       4.356   2.660  18.185  0.00  0.00    +0.000 A 
ATOM      7  C   UNL     1       3.370   1.678  18.286  0.00  0.00    +0.000 A 
ATOM      8  C   UNL     1       2.012   2.026  18.289  0.00  0.00    +0.000 A 
ATOM      9  C   UNL     1       1.612   3.363  18.194  0.00  0.00    +0.000 A 
ATOM     10  C   UNL     1       2.589   4.340  18.084  0.00  0.00    +0.000 A 
ATOM     11  C   UNL     1       2.468   5.779  17.980  0.00  0.00    +0.000 A 
ATOM     12  C   UNL     1       1.337   6.584  17.965  0.00  0.00    +0.000 A 
ATOM     13  C   UNL     1       1.506   7.970  17.870  0.00  0.00    +0.000 A 
ATOM     14  C   UNL     1       2.788   8.522  17.803  0.00  0.00    +0.000 A 
ATOM     15  F   UNL     1       2.922   9.853  17.716  0.00  0.00    +0.000 F 
ATOM     16  C   UNL     1       3.929   7.727  17.826  0.00  0.00    +0.000 A 
ATOM     17  C   UNL     1       3.760   6.349  17.902  0.00  0.00    +0.000 A 
ATOM     18  S   UNL     1       5.720   5.201  16.364  0.00  0.00    +0.000 S 
ATOM     19  O   UNL     1       5.673   3.909  15.716  0.00  0.00    +0.000 OA
ATOM     20  O   UNL     1       5.580   6.426  15.608  0.00  0.00    +0.000 OA
ATOM     21  N   UNL     1       7.221   5.288  17.079  0.00  0.00    +0.000 N 
ATOM     22  H   UNL     1       8.041   5.473  16.511  0.00  0.00    +0.000 HD
ENDROOT
TORSDOF 0
ENDMDL
MODEL 9
REMARK VINA RESULT:      -7.4      2.629      4.363
REMARK  Name = 
REMARK  0 active torsions:
REMARK  status: ('A' for Active; 'I' for Inactive)
REMARK                            x       y       z     vdW  Elec       q    Type
REMARK                         _______ _______ _______ _____ _____    ______ ____
ROOT
ATOM      1  O   UNL     1       8.048   4.565  17.679  0.00  0.00    +0.000 OA
ATOM      2  C   UNL     1       6.841   4.444  17.791  0.00  0.00    +0.000 C 
ATOM      3  C   UNL     1       6.030   4.998  18.934  0.00  0.00    +0.000 C 
ATOM      4  C   UNL     1       4.547   4.715  18.664  0.00  0.00    +0.000 C 
ATOM      5  C   UNL     1       3.876   3.878  19.752  0.00  0.00    +0.000 A 
ATOM      6  C   UNL     1       4.240   2.632  20.249  0.00  0.00    +0.000 A 
ATOM      7  C   UNL     1       3.453   2.062  21.251  0.00  0.00    +0.000 A 
ATOM      8  C   UNL     1       2.332   2.740  21.752  0.00  0.00    +0.000 A 
ATOM      9  C   UNL     1       1.978   4.002  21.263  0.00  0.00    +0.000 A 
ATOM     10  C   UNL     1       2.753   4.566  20.261  0.00  0.00    +0.000 A 
ATOM     11  C   UNL     1       2.628   5.840  19.584  0.00  0.00    +0.000 A 
ATOM     12  C   UNL     1       1.697   6.856  19.752  0.00  0.00    +0.000 A 
ATOM     13  C   UNL     1       1.817   8.007  18.967  0.00  0.00    +0.000 A 
ATOM     14  C   UNL     1       2.860   8.127  18.044  0.00  0.00    +0.000 A 
ATOM     15  F   UNL     1       2.954   9.242  17.306  0.00  0.00    +0.000 F 
ATOM     16  C   UNL     1       3.803   7.119  17.872  0.00  0.00    +0.000 A 
ATOM     17  C   UNL     1       3.673   5.968  18.641  0.00  0.00    +0.000 A 
ATOM     18  S   UNL     1       4.426   3.850  17.069  0.00  0.00    +0.000 S 
ATOM     19  O   UNL     1       3.998   2.475  17.199  0.00  0.00    +0.000 OA
ATOM     20  O   UNL     1       3.919   4.698  16.013  0.00  0.00    +0.000 OA
ATOM     21  N   UNL     1       6.073   3.785  16.837  0.00  0.00    +0.000 N 
ATOM     22  H   UNL     1       6.445   3.518  15.931  0.00  0.00    +0.000 HD
ENDROOT
TORSDOF 0
ENDMDL
