MODEL 1
REMARK VINA RESULT:      -7.6      0.000      0.000
REMARK  Name = 
REMARK  8 active torsions:
REMARK  status: ('A' for Active; 'I' for Inactive)
REMARK    1  A    between atoms: C_1  and  O_2
REMARK    2  A    between atoms: O_2  and  C_3
REMARK    3  A    between atoms: C_7  and  C_8
REMARK    4  A    between atoms: C_8  and  N_9
REMARK    5  A    between atoms: N_9  and  C_18
REMARK    6  A    between atoms: C_10  and  C_12
REMARK    7  A    between atoms: C_18  and  C_19
REMARK    8  A    between atoms: C_18  and  C_22
REMARK                            x       y       z     vdW  Elec       q    Type
REMARK                         _______ _______ _______ _____ _____    ______ ____
ROOT
ATOM      1  N   UNL     1       5.967   5.983  16.723  0.00  0.00    +0.000 N 
ATOM      2  C   UNL     1       5.618   6.074  15.366  0.00  0.00    +0.000 C 
ATOM      3  O   UNL     1       4.960   7.018  14.923  0.00  0.00    +0.000 OA
ENDROOT
BRANCH   2   4
ATOM      4  C   UNL     1       5.984   5.042  14.347  0.00  0.00    +0.000 A 
ATOM      5  C   UNL     1       4.948   4.219  13.866  0.00  0.00    +0.000 A 
ATOM      6  C   UNL     1       5.137   3.389  12.755  0.00  0.00    +0.000 A 
ATOM      7  C   UNL     1       6.370   3.373  12.110  0.00  0.00    +0.000 A 
ATOM      8  C   UNL     1       7.411   4.169  12.587  0.00  0.00    +0.000 A 
ATOM      9  C   UNL     1       7.221   5.007  13.700  0.00  0.00    +0.000 A 
ENDBRANCH   2   4
BRANCH   1  10
ATOM     10  C   UNL     1       5.448   7.003  17.645  0.00  0.00    +0.000 C 
BRANCH  10  15
ATOM     11  C   UNL     1       1.969   8.423  18.161  0.00  0.00    +0.000 A 
ATOM     12  C   UNL     1       1.554   7.744  19.306  0.00  0.00    +0.000 A 
ATOM     13  C   UNL     1       2.336   6.714  19.817  0.00  0.00    +0.000 A 
ATOM     14  C   UNL     1       3.561   6.411  19.208  0.00  0.00    +0.000 A 
ATOM     15  C   UNL     1       3.995   7.106  18.060  0.00  0.00    +0.000 A 
ATOM     16  C   UNL     1       3.146   8.065  17.496  0.00  0.00    +0.000 A 
BRANCH  11  18
ATOM     17  C   UNL     1       0.544  10.169  18.696  0.00  0.00    +0.000 C 
ATOM     18  O   UNL     1       1.241   9.468  17.661  0.00  0.00    +0.000 OA
ENDBRANCH  11  18
ENDBRANCH  10  15
ENDBRANCH   1  10
BRANCH   1  19
ATOM     19  C   UNL     1       6.187   4.676  17.405  0.00  0.00    +0.000 C 
BRANCH  19  20
ATOM     20  C   UNL     1       4.953   3.924  17.908  0.00  0.00    +0.000 A 
ATOM     21  C   UNL     1       3.879   3.595  17.069  0.00  0.00    +0.000 A 
ATOM     22  C   UNL     1       2.836   2.780  17.522  0.00  0.00    +0.000 A 
ATOM     23  C   UNL     1       2.858   2.255  18.812  0.00  0.00    +0.000 A 
ATOM     24  C   UNL     1       3.924   2.547  19.656  0.00  0.00    +0.000 A 
ATOM     25  C   UNL     1       4.961   3.367  19.204  0.00  0.00    +0.000 A 
ENDBRANCH  19  20
BRANCH  19  26
ATOM     26  C   UNL     1       7.506   4.603  18.213  0.00  0.00    +0.000 C 
ATOM     27  N   UNL     1       7.559   5.235  19.421  0.00  0.00    +0.000 N 
ATOM     28  O   UNL     1       8.505   4.017  17.799  0.00  0.00    +0.000 OA
ATOM     29  H   UNL     1       6.882   5.939  19.683  0.00  0.00    +0.000 HD
ATOM     30  H   UNL     1       8.461   5.251  19.880  0.00  0.00    +0.000 HD
ENDBRANCH  19  26
ENDBRANCH   1  19
TORSDOF 7
ENDMDL
MODEL 2
REMARK VINA RESULT:      -7.6      1.865      6.445
REMARK  Name = 
REMARK  8 active torsions:
REMARK  status: ('A' for Active; 'I' for Inactive)
REMARK    1  A    between atoms: C_1  and  O_2
REMARK    2  A    between atoms: O_2  and  C_3
REMARK    3  A    between atoms: C_7  and  C_8
REMARK    4  A    between atoms: C_8  and  N_9
REMARK    5  A    between atoms: N_9  and  C_18
REMARK    6  A    between atoms: C_10  and  C_12
REMARK    7  A    between atoms: C_18  and  C_19
REMARK    8  A    between atoms: C_18  and  C_22
REMARK                            x       y       z     vdW  Elec       q    Type
REMARK                         _______ _______ _______ _____ _____    ______ ____
ROOT
ATOM      1  N   UNL     1       4.096   4.640  17.314  0.00  0.00    +0.000 N 
ATOM      2  C   UNL     1       3.048   3.718  17.469  0.00  0.00    +0.000 C 
ATOM      3  O   UNL     1       2.396   3.301  16.508  0.00  0.00    +0.000 OA
ENDROOT
BRANCH   2   4
ATOM      4  C   UNL     1       2.611   3.178  18.794  0.00  0.00    +0.000 A 
ATOM      5  C   UNL     1       3.613   2.679  19.646  0.00  0.00    +0.000 A 
ATOM      6  C   UNL     1       3.342   2.369  20.983  0.00  0.00    +0.000 A 
ATOM      7  C   UNL     1       2.057   2.556  21.485  0.00  0.00    +0.000 A 
ATOM      8  C   UNL     1       1.049   3.032  20.647  0.00  0.00    +0.000 A 
ATOM      9  C   UNL     1       1.322   3.348  19.305  0.00  0.00    +0.000 A 
ENDBRANCH   2   4
BRANCH   1  10
ATOM     10  C   UNL     1       4.351   5.182  15.972  0.00  0.00    +0.000 C 
BRANCH  10  15
ATOM     11  C   UNL     1       7.429   4.968  13.765  0.00  0.00    +0.000 A 
ATOM     12  C   UNL     1       7.022   4.045  12.802  0.00  0.00    +0.000 A 
ATOM     13  C   UNL     1       5.814   3.376  12.958  0.00  0.00    +0.000 A 
ATOM     14  C   UNL     1       4.992   3.681  14.051  0.00  0.00    +0.000 A 
ATOM     15  C   UNL     1       5.390   4.626  15.019  0.00  0.00    +0.000 A 
ATOM     16  C   UNL     1       6.656   5.210  14.905  0.00  0.00    +0.000 A 
BRANCH  11  18
ATOM     17  C   UNL     1       8.722   6.204  12.294  0.00  0.00    +0.000 C 
ATOM     18  O   UNL     1       8.593   5.672  13.616  0.00  0.00    +0.000 OA
ENDBRANCH  11  18
ENDBRANCH  10  15
ENDBRANCH   1  10
BRANCH   1  19
ATOM     19  C   UNL     1       4.479   5.601  18.386  0.00  0.00    +0.000 C 
BRANCH  19  20
ATOM     20  C   UNL     1       3.532   6.772  18.658  0.00  0.00    +0.000 A 
ATOM     21  C   UNL     1       3.275   7.768  17.704  0.00  0.00    +0.000 A 
ATOM     22  C   UNL     1       2.294   8.739  17.927  0.00  0.00    +0.000 A 
ATOM     23  C   UNL     1       1.531   8.721  19.092  0.00  0.00    +0.000 A 
ATOM     24  C   UNL     1       1.750   7.729  20.042  0.00  0.00    +0.000 A 
ATOM     25  C   UNL     1       2.735   6.764  19.821  0.00  0.00    +0.000 A 
ENDBRANCH  19  20
BRANCH  19  26
ATOM     26  C   UNL     1       6.007   5.808  18.527  0.00  0.00    +0.000 C 
ATOM     27  N   UNL     1       6.701   4.966  19.346  0.00  0.00    +0.000 N 
ATOM     28  O   UNL     1       6.609   6.709  17.945  0.00  0.00    +0.000 OA
ATOM     29  H   UNL     1       6.235   4.396  20.040  0.00  0.00    +0.000 HD
ATOM     30  H   UNL     1       7.678   5.186  19.492  0.00  0.00    +0.000 HD
ENDBRANCH  19  26
ENDBRANCH   1  19
TORSDOF 7
ENDMDL
MODEL 3
REMARK VINA RESULT:      -7.4      1.639      5.898
REMARK  Name = 
REMARK  8 active torsions:
REMARK  status: ('A' for Active; 'I' for Inactive)
REMARK    1  A    between atoms: C_1  and  O_2
REMARK    2  A    between atoms: O_2  and  C_3
REMARK    3  A    between atoms: C_7  and  C_8
REMARK    4  A    between atoms: C_8  and  N_9
REMARK    5  A    between atoms: N_9  and  C_18
REMARK    6  A    between atoms: C_10  and  C_12
REMARK    7  A    between atoms: C_18  and  C_19
REMARK    8  A    between atoms: C_18  and  C_22
REMARK                            x       y       z     vdW  Elec       q    Type
REMARK                         _______ _______ _______ _____ _____    ______ ____
ROOT
ATOM      1  N   UNL     1       5.535   4.851  16.626  0.00  0.00    +0.000 N 
ATOM      2  C   UNL     1       4.957   6.117  16.438  0.00  0.00    +0.000 C 
ATOM      3  O   UNL     1       5.305   6.864  15.521  0.00  0.00    +0.000 OA
ENDROOT
BRANCH   2   4
ATOM      4  C   UNL     1       3.899   6.684  17.330  0.00  0.00    +0.000 A 
ATOM      5  C   UNL     1       3.781   8.086  17.377  0.00  0.00    +0.000 A 
ATOM      6  C   UNL     1       2.686   8.703  17.992  0.00  0.00    +0.000 A 
ATOM      7  C   UNL     1       1.692   7.920  18.571  0.00  0.00    +0.000 A 
ATOM      8  C   UNL     1       1.805   6.530  18.549  0.00  0.00    +0.000 A 
ATOM      9  C   UNL     1       2.902   5.909  17.927  0.00  0.00    +0.000 A 
ENDBRANCH   2   4
BRANCH   1  10
ATOM     10  C   UNL     1       6.647   4.457  15.750  0.00  0.00    +0.000 C 
BRANCH  10  15
ATOM     11  C   UNL     1       5.901   3.363  12.196  0.00  0.00    +0.000 A 
ATOM     12  C   UNL     1       6.927   3.985  11.487  0.00  0.00    +0.000 A 
ATOM     13  C   UNL     1       7.764   4.885  12.137  0.00  0.00    +0.000 A 
ATOM     14  C   UNL     1       7.602   5.110  13.511  0.00  0.00    +0.000 A 
ATOM     15  C   UNL     1       6.577   4.469  14.237  0.00  0.00    +0.000 A 
ATOM     16  C   UNL     1       5.676   3.652  13.547  0.00  0.00    +0.000 A 
BRANCH  11  18
ATOM     17  C   UNL     1       3.900   3.047  11.074  0.00  0.00    +0.000 C 
ATOM     18  O   UNL     1       5.088   2.442  11.592  0.00  0.00    +0.000 OA
ENDBRANCH  11  18
ENDBRANCH  10  15
ENDBRANCH   1  10
BRANCH   1  19
ATOM     19  C   UNL     1       5.624   4.205  17.966  0.00  0.00    +0.000 C 
BRANCH  19  20
ATOM     20  C   UNL     1       4.443   3.343  18.416  0.00  0.00    +0.000 A 
ATOM     21  C   UNL     1       4.068   3.226  19.763  0.00  0.00    +0.000 A 
ATOM     22  C   UNL     1       2.897   2.552  20.126  0.00  0.00    +0.000 A 
ATOM     23  C   UNL     1       2.064   2.005  19.153  0.00  0.00    +0.000 A 
ATOM     24  C   UNL     1       2.402   2.129  17.809  0.00  0.00    +0.000 A 
ATOM     25  C   UNL     1       3.575   2.796  17.449  0.00  0.00    +0.000 A 
ENDBRANCH  19  20
BRANCH  19  26
ATOM     26  C   UNL     1       6.402   5.040  19.014  0.00  0.00    +0.000 C 
ATOM     27  N   UNL     1       7.764   4.958  19.023  0.00  0.00    +0.000 N 
ATOM     28  O   UNL     1       5.839   5.753  19.843  0.00  0.00    +0.000 OA
ATOM     29  H   UNL     1       8.254   4.204  18.560  0.00  0.00    +0.000 HD
ATOM     30  H   UNL     1       8.237   5.438  19.778  0.00  0.00    +0.000 HD
ENDBRANCH  19  26
ENDBRANCH   1  19
TORSDOF 7
ENDMDL
MODEL 4
REMARK VINA RESULT:      -7.2      1.929      6.533
REMARK  Name = 
REMARK  8 active torsions:
REMARK  status: ('A' for Active; 'I' for Inactive)
REMARK    1  A    between atoms: C_1  and  O_2
REMARK    2  A    between atoms: O_2  and  C_3
REMARK    3  A    between atoms: C_7  and  C_8
REMARK    4  A    between atoms: C_8  and  N_9
REMARK    5  A    between atoms: N_9  and  C_18
REMARK    6  A    between atoms: C_10  and  C_12
REMARK    7  A    between atoms: C_18  and  C_19
REMARK    8  A    between atoms: C_18  and  C_22
REMARK                            x       y       z     vdW  Elec       q    Type
REMARK                         _______ _______ _______ _____ _____    ______ ____
ROOT
ATOM      1  N   UNL     1       4.032   4.588  17.218  0.00  0.00    +0.000 N 
ATOM      2  C   UNL     1       3.048   3.611  17.443  0.00  0.00    +0.000 C 
ATOM      3  O   UNL     1       2.415   3.097  16.518  0.00  0.00    +0.000 OA
ENDROOT
BRANCH   2   4
ATOM      4  C   UNL     1       2.662   3.124  18.803  0.00  0.00    +0.000 A 
ATOM      5  C   UNL     1       3.698   2.672  19.642  0.00  0.00    +0.000 A 
ATOM      6  C   UNL     1       3.475   2.417  20.999  0.00  0.00    +0.000 A 
ATOM      7  C   UNL     1       2.205   2.611  21.535  0.00  0.00    +0.000 A 
ATOM      8  C   UNL     1       1.164   3.040  20.712  0.00  0.00    +0.000 A 
ATOM      9  C   UNL     1       1.389   3.301  19.349  0.00  0.00    +0.000 A 
ENDBRANCH   2   4
BRANCH   1  10
ATOM     10  C   UNL     1       4.237   5.065  15.844  0.00  0.00    +0.000 C 
BRANCH  10  15
ATOM     11  C   UNL     1       7.413   4.924  13.773  0.00  0.00    +0.000 A 
ATOM     12  C   UNL     1       7.050   4.039  12.759  0.00  0.00    +0.000 A 
ATOM     13  C   UNL     1       5.834   3.368  12.835  0.00  0.00    +0.000 A 
ATOM     14  C   UNL     1       4.964   3.634  13.900  0.00  0.00    +0.000 A 
ATOM     15  C   UNL     1       5.317   4.542  14.920  0.00  0.00    +0.000 A 
ATOM     16  C   UNL     1       6.588   5.127  14.886  0.00  0.00    +0.000 A 
BRANCH  11  18
ATOM     17  C   UNL     1       8.797   6.169  12.396  0.00  0.00    +0.000 C 
ATOM     18  O   UNL     1       8.583   5.630  13.704  0.00  0.00    +0.000 OA
ENDBRANCH  11  18
ENDBRANCH  10  15
ENDBRANCH   1  10
BRANCH   1  19
ATOM     19  C   UNL     1       4.363   5.634  18.227  0.00  0.00    +0.000 C 
BRANCH  19  20
ATOM     20  C   UNL     1       3.293   6.684  18.534  0.00  0.00    +0.000 A 
ATOM     21  C   UNL     1       2.635   6.747  19.771  0.00  0.00    +0.000 A 
ATOM     22  C   UNL     1       1.773   7.806  20.074  0.00  0.00    +0.000 A 
ATOM     23  C   UNL     1       1.571   8.837  19.159  0.00  0.00    +0.000 A 
ATOM     24  C   UNL     1       2.230   8.810  17.934  0.00  0.00    +0.000 A 
ATOM     25  C   UNL     1       3.086   7.748  17.632  0.00  0.00    +0.000 A 
ENDBRANCH  19  20
BRANCH  19  26
ATOM     26  C   UNL     1       5.857   6.041  18.242  0.00  0.00    +0.000 C 
ATOM     27  N   UNL     1       6.217   7.200  17.619  0.00  0.00    +0.000 N 
ATOM     28  O   UNL     1       6.726   5.352  18.776  0.00  0.00    +0.000 OA
ATOM     29  H   UNL     1       5.609   7.655  16.951  0.00  0.00    +0.000 HD
ATOM     30  H   UNL     1       7.209   7.390  17.563  0.00  0.00    +0.000 HD
ENDBRANCH  19  26
ENDBRANCH   1  19
TORSDOF 7
ENDMDL
MODEL 5
REMARK VINA RESULT:      -7.1      6.305     10.731
REMARK  Name = 
REMARK  8 active torsions:
REMARK  status: ('A' for Active; 'I' for Inactive)
REMARK    1  A    between atoms: C_1  and  O_2
REMARK    2  A    between atoms: O_2  and  C_3
REMARK    3  A    between atoms: C_7  and  C_8
REMARK    4  A    between atoms: C_8  and  N_9
REMARK    5  A    between atoms: N_9  and  C_18
REMARK    6  A    between atoms: C_10  and  C_12
REMARK    7  A    between atoms: C_18  and  C_19
REMARK    8  A    between atoms: C_18  and  C_22
REMARK                            x       y       z     vdW  Elec       q    Type
REMARK                         _______ _______ _______ _____ _____    ______ ____
ROOT
ATOM      1  N   UNL     1       0.251  12.794  20.283  0.00  0.00    +0.000 N 
ATOM      2  C   UNL     1      -0.265  13.237  21.512  0.00  0.00    +0.000 C 
ATOM      3  O   UNL     1       0.429  13.842  22.332  0.00  0.00    +0.000 OA
ENDROOT
BRANCH   2   4
ATOM      4  C   UNL     1      -1.677  13.003  21.948  0.00  0.00    +0.000 A 
ATOM      5  C   UNL     1      -1.872  12.192  23.081  0.00  0.00    +0.000 A 
ATOM      6  C   UNL     1      -3.123  12.101  23.702  0.00  0.00    +0.000 A 
ATOM      7  C   UNL     1      -4.198  12.825  23.193  0.00  0.00    +0.000 A 
ATOM      8  C   UNL     1      -4.023  13.619  22.059  0.00  0.00    +0.000 A 
ATOM      9  C   UNL     1      -2.766  13.714  21.438  0.00  0.00    +0.000 A 
ENDBRANCH   2   4
BRANCH   1  10
ATOM     10  C   UNL     1       1.685  12.985  20.022  0.00  0.00    +0.000 C 
BRANCH  10  15
ATOM     11  C   UNL     1       4.164  14.954  17.934  0.00  0.00    +0.000 A 
ATOM     12  C   UNL     1       3.488  16.160  17.755  0.00  0.00    +0.000 A 
ATOM     13  C   UNL     1       2.168  16.277  18.175  0.00  0.00    +0.000 A 
ATOM     14  C   UNL     1       1.553  15.199  18.826  0.00  0.00    +0.000 A 
ATOM     15  C   UNL     1       2.237  13.983  19.026  0.00  0.00    +0.000 A 
ATOM     16  C   UNL     1       3.527  13.845  18.501  0.00  0.00    +0.000 A 
BRANCH  11  18
ATOM     17  C   UNL     1       6.357  15.061  18.671  0.00  0.00    +0.000 C 
ATOM     18  O   UNL     1       5.477  14.824  17.568  0.00  0.00    +0.000 OA
ENDBRANCH  11  18
ENDBRANCH  10  15
ENDBRANCH   1  10
BRANCH   1  19
ATOM     19  C   UNL     1      -0.291  11.601  19.573  0.00  0.00    +0.000 C 
BRANCH  19  20
ATOM     20  C   UNL     1       0.631  10.389  19.420  0.00  0.00    +0.000 A 
ATOM     21  C   UNL     1       0.841   9.469  20.457  0.00  0.00    +0.000 A 
ATOM     22  C   UNL     1       1.569   8.294  20.239  0.00  0.00    +0.000 A 
ATOM     23  C   UNL     1       2.078   8.002  18.976  0.00  0.00    +0.000 A 
ATOM     24  C   UNL     1       1.863   8.887  17.925  0.00  0.00    +0.000 A 
ATOM     25  C   UNL     1       1.142  10.063  18.146  0.00  0.00    +0.000 A 
ENDBRANCH  19  20
BRANCH  19  26
ATOM     26  C   UNL     1      -1.292  11.945  18.442  0.00  0.00    +0.000 C 
ATOM     27  N   UNL     1      -0.924  12.875  17.514  0.00  0.00    +0.000 N 
ATOM     28  O   UNL     1      -2.405  11.427  18.363  0.00  0.00    +0.000 OA
ATOM     29  H   UNL     1      -0.156  13.514  17.677  0.00  0.00    +0.000 HD
ATOM     30  H   UNL     1      -1.633  13.148  16.846  0.00  0.00    +0.000 HD
ENDBRANCH  19  26
ENDBRANCH   1  19
TORSDOF 7
ENDMDL
MODEL 6
REMARK VINA RESULT:      -7.1      2.395      3.502
REMARK  Name = 
REMARK  8 active torsions:
REMARK  status: ('A' for Active; 'I' for Inactive)
REMARK    1  A    between atoms: C_1  and  O_2
REMARK    2  A    between atoms: O_2  and  C_3
REMARK    3  A    between atoms: C_7  and  C_8
REMARK    4  A    between atoms: C_8  and  N_9
REMARK    5  A    between atoms: N_9  and  C_18
REMARK    6  A    between atoms: C_10  and  C_12
REMARK    7  A    between atoms: C_18  and  C_19
REMARK    8  A    between atoms: C_18  and  C_22
REMARK                            x       y       z     vdW  Elec       q    Type
REMARK                         _______ _______ _______ _____ _____    ______ ____
ROOT
ATOM      1  N   UNL     1       3.372   6.429  18.391  0.00  0.00    +0.000 N 
ATOM      2  C   UNL     1       3.865   6.997  17.205  0.00  0.00    +0.000 C 
ATOM      3  O   UNL     1       3.263   7.892  16.609  0.00  0.00    +0.000 OA
ENDROOT
BRANCH   2   4
ATOM      4  C   UNL     1       5.136   6.562  16.546  0.00  0.00    +0.000 A 
ATOM      5  C   UNL     1       6.341   7.018  17.112  0.00  0.00    +0.000 A 
ATOM      6  C   UNL     1       7.575   6.488  16.718  0.00  0.00    +0.000 A 
ATOM      7  C   UNL     1       7.616   5.490  15.748  0.00  0.00    +0.000 A 
ATOM      8  C   UNL     1       6.431   5.042  15.165  0.00  0.00    +0.000 A 
ATOM      9  C   UNL     1       5.191   5.570  15.564  0.00  0.00    +0.000 A 
ENDBRANCH   2   4
BRANCH   1  10
ATOM     10  C   UNL     1       2.054   6.864  18.874  0.00  0.00    +0.000 C 
BRANCH  10  15
ATOM     11  C   UNL     1       0.986   9.310  21.570  0.00  0.00    +0.000 A 
ATOM     12  C   UNL     1       0.682  10.444  20.818  0.00  0.00    +0.000 A 
ATOM     13  C   UNL     1       0.974  10.466  19.458  0.00  0.00    +0.000 A 
ATOM     14  C   UNL     1       1.516   9.326  18.850  0.00  0.00    +0.000 A 
ATOM     15  C   UNL     1       1.809   8.170  19.602  0.00  0.00    +0.000 A 
ATOM     16  C   UNL     1       1.611   8.202  20.986  0.00  0.00    +0.000 A 
BRANCH  11  18
ATOM     17  C   UNL     1      -0.545   9.937  23.189  0.00  0.00    +0.000 C 
ATOM     18  O   UNL     1       0.672   9.244  22.900  0.00  0.00    +0.000 OA
ENDBRANCH  11  18
ENDBRANCH  10  15
ENDBRANCH   1  10
BRANCH   1  19
ATOM     19  C   UNL     1       3.679   5.027  18.793  0.00  0.00    +0.000 C 
BRANCH  19  20
ATOM     20  C   UNL     1       2.595   4.255  19.549  0.00  0.00    +0.000 A 
ATOM     21  C   UNL     1       1.608   3.508  18.890  0.00  0.00    +0.000 A 
ATOM     22  C   UNL     1       0.724   2.694  19.607  0.00  0.00    +0.000 A 
ATOM     23  C   UNL     1       0.825   2.589  20.992  0.00  0.00    +0.000 A 
ATOM     24  C   UNL     1       1.812   3.301  21.667  0.00  0.00    +0.000 A 
ATOM     25  C   UNL     1       2.689   4.118  20.949  0.00  0.00    +0.000 A 
ENDBRANCH  19  20
BRANCH  19  26
ATOM     26  C   UNL     1       5.169   4.786  19.140  0.00  0.00    +0.000 C 
ATOM     27  N   UNL     1       5.779   3.676  18.632  0.00  0.00    +0.000 N 
ATOM     28  O   UNL     1       5.811   5.543  19.867  0.00  0.00    +0.000 OA
ATOM     29  H   UNL     1       5.246   2.898  18.264  0.00  0.00    +0.000 HD
ATOM     30  H   UNL     1       6.721   3.495  18.953  0.00  0.00    +0.000 HD
ENDBRANCH  19  26
ENDBRANCH   1  19
TORSDOF 7
ENDMDL
MODEL 7
REMARK VINA RESULT:      -7.0      1.708      5.992
REMARK  Name = 
REMARK  8 active torsions:
REMARK  status: ('A' for Active; 'I' for Inactive)
REMARK    1  A    between atoms: C_1  and  O_2
REMARK    2  A    between atoms: O_2  and  C_3
REMARK    3  A    between atoms: C_7  and  C_8
REMARK    4  A    between atoms: C_8  and  N_9
REMARK    5  A    between atoms: N_9  and  C_18
REMARK    6  A    between atoms: C_10  and  C_12
REMARK    7  A    between atoms: C_18  and  C_19
REMARK    8  A    between atoms: C_18  and  C_22
REMARK                            x       y       z     vdW  Elec       q    Type
REMARK                         _______ _______ _______ _____ _____    ______ ____
ROOT
ATOM      1  N   UNL     1       5.667   4.851  16.658  0.00  0.00    +0.000 N 
ATOM      2  C   UNL     1       4.802   5.954  16.580  0.00  0.00    +0.000 C 
ATOM      3  O   UNL     1       4.943   6.837  15.731  0.00  0.00    +0.000 OA
ENDROOT
BRANCH   2   4
ATOM      4  C   UNL     1       3.657   6.176  17.518  0.00  0.00    +0.000 A 
ATOM      5  C   UNL     1       2.547   5.322  17.388  0.00  0.00    +0.000 A 
ATOM      6  C   UNL     1       1.535   5.294  18.354  0.00  0.00    +0.000 A 
ATOM      7  C   UNL     1       1.624   6.126  19.467  0.00  0.00    +0.000 A 
ATOM      8  C   UNL     1       2.710   6.991  19.599  0.00  0.00    +0.000 A 
ATOM      9  C   UNL     1       3.729   7.016  18.631  0.00  0.00    +0.000 A 
ENDBRANCH   2   4
BRANCH   1  10
ATOM     10  C   UNL     1       6.823   4.808  15.752  0.00  0.00    +0.000 C 
BRANCH  10  15
ATOM     11  C   UNL     1       6.126   3.353  12.319  0.00  0.00    +0.000 A 
ATOM     12  C   UNL     1       7.048   4.039  11.529  0.00  0.00    +0.000 A 
ATOM     13  C   UNL     1       7.783   5.083  12.079  0.00  0.00    +0.000 A 
ATOM     14  C   UNL     1       7.630   5.394  13.437  0.00  0.00    +0.000 A 
ATOM     15  C   UNL     1       6.712   4.692  14.245  0.00  0.00    +0.000 A 
ATOM     16  C   UNL     1       5.903   3.718  13.651  0.00  0.00    +0.000 A 
BRANCH  11  18
ATOM     17  C   UNL     1       6.285   1.294  11.270  0.00  0.00    +0.000 C 
ATOM     18  O   UNL     1       5.420   2.294  11.816  0.00  0.00    +0.000 OA
ENDBRANCH  11  18
ENDBRANCH  10  15
ENDBRANCH   1  10
BRANCH   1  19
ATOM     19  C   UNL     1       5.935   4.136  17.938  0.00  0.00    +0.000 C 
BRANCH  19  20
ATOM     20  C   UNL     1       4.812   3.271  18.514  0.00  0.00    +0.000 A 
ATOM     21  C   UNL     1       4.377   3.390  19.842  0.00  0.00    +0.000 A 
ATOM     22  C   UNL     1       3.252   2.692  20.294  0.00  0.00    +0.000 A 
ATOM     23  C   UNL     1       2.523   1.884  19.425  0.00  0.00    +0.000 A 
ATOM     24  C   UNL     1       2.920   1.769  18.097  0.00  0.00    +0.000 A 
ATOM     25  C   UNL     1       4.047   2.460  17.648  0.00  0.00    +0.000 A 
ENDBRANCH  19  20
BRANCH  19  26
ATOM     26  C   UNL     1       6.876   4.902  18.900  0.00  0.00    +0.000 C 
ATOM     27  N   UNL     1       8.221   4.697  18.788  0.00  0.00    +0.000 N 
ATOM     28  O   UNL     1       6.457   5.668  19.766  0.00  0.00    +0.000 OA
ATOM     29  H   UNL     1       8.597   3.899  18.293  0.00  0.00    +0.000 HD
ATOM     30  H   UNL     1       8.801   5.136  19.491  0.00  0.00    +0.000 HD
ENDBRANCH  19  26
ENDBRANCH   1  19
TORSDOF 7
ENDMDL
MODEL 8
REMARK VINA RESULT:      -7.0      2.065      6.151
REMARK  Name = 
REMARK  8 active torsions:
REMARK  status: ('A' for Active; 'I' for Inactive)
REMARK    1  A    between atoms: C_1  and  O_2
REMARK    2  A    between atoms: O_2  and  C_3
REMARK    3  A    between atoms: C_7  and  C_8
REMARK    4  A    between atoms: C_8  and  N_9
REMARK    5  A    between atoms: N_9  and  C_18
REMARK    6  A    between atoms: C_10  and  C_12
REMARK    7  A    between atoms: C_18  and  C_19
REMARK    8  A    between atoms: C_18  and  C_22
REMARK                            x       y       z     vdW  Elec       q    Type
REMARK                         _______ _______ _______ _____ _____    ______ ____
ROOT
ATOM      1  N   UNL     1       5.597   3.928  18.312  0.00  0.00    +0.000 N 
ATOM      2  C   UNL     1       4.400   3.199  18.213  0.00  0.00    +0.000 C 
ATOM      3  O   UNL     1       4.210   2.373  17.318  0.00  0.00    +0.000 OA
ENDROOT
BRANCH   2   4
ATOM      4  C   UNL     1       3.249   3.368  19.154  0.00  0.00    +0.000 A 
ATOM      5  C   UNL     1       1.982   3.593  18.584  0.00  0.00    +0.000 A 
ATOM      6  C   UNL     1       0.817   3.533  19.357  0.00  0.00    +0.000 A 
ATOM      7  C   UNL     1       0.908   3.245  20.716  0.00  0.00    +0.000 A 
ATOM      8  C   UNL     1       2.159   3.039  21.298  0.00  0.00    +0.000 A 
ATOM      9  C   UNL     1       3.329   3.094  20.521  0.00  0.00    +0.000 A 
ENDBRANCH   2   4
BRANCH   1  10
ATOM     10  C   UNL     1       6.605   3.755  17.257  0.00  0.00    +0.000 C 
BRANCH  10  15
ATOM     11  C   UNL     1       5.658   4.075  13.598  0.00  0.00    +0.000 A 
ATOM     12  C   UNL     1       6.688   4.878  13.109  0.00  0.00    +0.000 A 
ATOM     13  C   UNL     1       7.598   5.444  13.995  0.00  0.00    +0.000 A 
ATOM     14  C   UNL     1       7.504   5.152  15.362  0.00  0.00    +0.000 A 
ATOM     15  C   UNL     1       6.476   4.326  15.861  0.00  0.00    +0.000 A 
ATOM     16  C   UNL     1       5.504   3.854  14.971  0.00  0.00    +0.000 A 
BRANCH  11  18
ATOM     17  C   UNL     1       5.443   2.651  11.785  0.00  0.00    +0.000 C 
ATOM     18  O   UNL     1       4.773   3.472  12.747  0.00  0.00    +0.000 OA
ENDBRANCH  11  18
ENDBRANCH  10  15
ENDBRANCH   1  10
BRANCH   1  19
ATOM     19  C   UNL     1       5.656   5.286  18.922  0.00  0.00    +0.000 C 
BRANCH  19  20
ATOM     20  C   UNL     1       4.525   6.262  18.588  0.00  0.00    +0.000 A 
ATOM     21  C   UNL     1       4.327   6.768  17.295  0.00  0.00    +0.000 A 
ATOM     22  C   UNL     1       3.199   7.538  16.990  0.00  0.00    +0.000 A 
ATOM     23  C   UNL     1       2.234   7.795  17.960  0.00  0.00    +0.000 A 
ATOM     24  C   UNL     1       2.396   7.284  19.244  0.00  0.00    +0.000 A 
ATOM     25  C   UNL     1       3.526   6.521  19.549  0.00  0.00    +0.000 A 
ENDBRANCH  19  20
BRANCH  19  26
ATOM     26  C   UNL     1       7.095   5.825  19.116  0.00  0.00    +0.000 C 
ATOM     27  N   UNL     1       7.846   5.310  20.132  0.00  0.00    +0.000 N 
ATOM     28  O   UNL     1       7.573   6.707  18.404  0.00  0.00    +0.000 OA
ATOM     29  H   UNL     1       7.426   4.796  20.896  0.00  0.00    +0.000 HD
ATOM     30  H   UNL     1       8.743   5.749  20.294  0.00  0.00    +0.000 HD
ENDBRANCH  19  26
ENDBRANCH   1  19
TORSDOF 7
ENDMDL
MODEL 9
REMARK VINA RESULT:      -6.9      1.743      5.807
REMARK  Name = 
REMARK  8 active torsions:
REMARK  status: ('A' for Active; 'I' for Inactive)
REMARK    1  A    between atoms: C_1  and  O_2
REMARK    2  A    between atoms: O_2  and  C_3
REMARK    3  A    between atoms: C_7  and  C_8
REMARK    4  A    between atoms: C_8  and  N_9
REMARK    5  A    between atoms: N_9  and  C_18
REMARK    6  A    between atoms: C_10  and  C_12
REMARK    7  A    between atoms: C_18  and  C_19
REMARK    8  A    between atoms: C_18  and  C_22
REMARK                            x       y       z     vdW  Elec       q    Type
REMARK                         _______ _______ _______ _____ _____    ______ ____
ROOT
ATOM      1  N   UNL     1       5.187   5.393  16.885  0.00  0.00    +0.000 N 
ATOM      2  C   UNL     1       4.217   6.321  17.299  0.00  0.00    +0.000 C 
ATOM      3  O   UNL     1       4.158   7.459  16.828  0.00  0.00    +0.000 OA
ENDROOT
BRANCH   2   4
ATOM      4  C   UNL     1       3.192   6.032  18.350  0.00  0.00    +0.000 A 
ATOM      5  C   UNL     1       2.050   5.311  17.952  0.00  0.00    +0.000 A 
ATOM      6  C   UNL     1       1.154   4.794  18.894  0.00  0.00    +0.000 A 
ATOM      7  C   UNL     1       1.391   4.994  20.251  0.00  0.00    +0.000 A 
ATOM      8  C   UNL     1       2.508   5.723  20.658  0.00  0.00    +0.000 A 
ATOM      9  C   UNL     1       3.411   6.239  19.713  0.00  0.00    +0.000 A 
ENDBRANCH   2   4
BRANCH   1  10
ATOM     10  C   UNL     1       6.210   5.837  15.928  0.00  0.00    +0.000 C 
BRANCH  10  15
ATOM     11  C   UNL     1       5.664   3.688  12.850  0.00  0.00    +0.000 A 
ATOM     12  C   UNL     1       6.872   3.852  12.173  0.00  0.00    +0.000 A 
ATOM     13  C   UNL     1       7.798   4.782  12.635  0.00  0.00    +0.000 A 
ATOM     14  C   UNL     1       7.530   5.499  13.807  0.00  0.00    +0.000 A 
ATOM     15  C   UNL     1       6.318   5.325  14.507  0.00  0.00    +0.000 A 
ATOM     16  C   UNL     1       5.352   4.467  13.970  0.00  0.00    +0.000 A 
BRANCH  11  18
ATOM     17  C   UNL     1       4.152   3.108  11.195  0.00  0.00    +0.000 C 
ATOM     18  O   UNL     1       4.752   2.752  12.444  0.00  0.00    +0.000 OA
ENDBRANCH  11  18
ENDBRANCH  10  15
ENDBRANCH   1  10
BRANCH   1  19
ATOM     19  C   UNL     1       5.691   4.312  17.779  0.00  0.00    +0.000 C 
BRANCH  19  20
ATOM     20  C   UNL     1       4.688   3.254  18.244  0.00  0.00    +0.000 A 
ATOM     21  C   UNL     1       4.488   2.952  19.599  0.00  0.00    +0.000 A 
ATOM     22  C   UNL     1       3.462   2.090  19.999  0.00  0.00    +0.000 A 
ATOM     23  C   UNL     1       2.598   1.534  19.059  0.00  0.00    +0.000 A 
ATOM     24  C   UNL     1       2.760   1.837  17.711  0.00  0.00    +0.000 A 
ATOM     25  C   UNL     1       3.789   2.693  17.313  0.00  0.00    +0.000 A 
ENDBRANCH  19  20
BRANCH  19  26
ATOM     26  C   UNL     1       6.820   4.765  18.737  0.00  0.00    +0.000 C 
ATOM     27  N   UNL     1       8.100   4.393  18.448  0.00  0.00    +0.000 N 
ATOM     28  O   UNL     1       6.602   5.428  19.750  0.00  0.00    +0.000 OA
ATOM     29  H   UNL     1       8.302   3.643  17.799  0.00  0.00    +0.000 HD
ATOM     30  H   UNL     1       8.801   4.622  19.141  0.00  0.00    +0.000 HD
ENDBRANCH  19  26
ENDBRANCH   1  19
TORSDOF 7
ENDMDL
