MODEL 1
REMARK VINA RESULT:      -7.5      0.000      0.000
REMARK  Name = 
REMARK  6 active torsions:
REMARK  status: ('A' for Active; 'I' for Inactive)
REMARK    1  A    between atoms: C_1  and  C_2
REMARK    2  A    between atoms: C_2  and  C_3
REMARK    3  A    between atoms: C_3  and  C_4
REMARK    4  A    between atoms: C_11  and  O_12
REMARK    5  A    between atoms: O_12  and  C_13
REMARK    6  A    between atoms: C_14  and  O_15
REMARK                            x       y       z     vdW  Elec       q    Type
REMARK                         _______ _______ _______ _____ _____    ______ ____
ROOT
ATOM      1  C   UNL     1       1.821   2.784  18.841  0.00  0.00    +0.000 C 
ATOM      2  O   UNL     1       2.244   1.627  18.843  0.00  0.00    +0.000 OA
ATOM      3  N   UNL     1       2.190   3.698  17.866  0.00  0.00    +0.000 N 
ATOM      4  C   UNL     1       1.770   5.094  17.781  0.00  0.00    +0.000 C 
ATOM      5  C   UNL     1       2.928   6.010  18.181  0.00  0.00    +0.000 C 
ATOM      6  C   UNL     1       4.217   5.631  17.481  0.00  0.00    +0.000 A 
ATOM      7  C   UNL     1       5.287   6.546  17.450  0.00  0.00    +0.000 A 
ATOM      8  C   UNL     1       6.495   6.198  16.843  0.00  0.00    +0.000 A 
ATOM      9  C   UNL     1       6.623   4.924  16.278  0.00  0.00    +0.000 A 
ATOM     10  C   UNL     1       5.584   4.004  16.310  0.00  0.00    +0.000 A 
ATOM     11  C   UNL     1       4.373   4.344  16.922  0.00  0.00    +0.000 A 
ATOM     12  C   UNL     1       3.244   3.333  16.927  0.00  0.00    +0.000 C 
ENDROOT
BRANCH   8  13
ATOM     13  O   UNL     1       7.609   6.990  16.739  0.00  0.00    +0.000 OA
ATOM     14  C   UNL     1       7.687   8.101  17.624  0.00  0.00    +0.000 C 
ENDBRANCH   8  13
BRANCH   9  15
ATOM     15  O   UNL     1       7.793   4.552  15.675  0.00  0.00    +0.000 OA
ATOM     16  H   UNL     1       7.539   4.274  14.774  0.00  0.00    +0.000 HD
ENDBRANCH   9  15
BRANCH   1  17
ATOM     17  C   UNL     1       0.825   3.243  19.896  0.00  0.00    +0.000 C 
BRANCH  17  19
ATOM     18  C   UNL     1       2.458   3.684  21.765  0.00  0.00    +0.000 C 
ATOM     19  C   UNL     1       1.279   2.846  21.300  0.00  0.00    +0.000 C 
ENDBRANCH  17  19
ENDBRANCH   1  17
TORSDOF 4
ENDMDL
MODEL 2
REMARK VINA RESULT:      -6.7      1.747      2.734
REMARK  Name = 
REMARK  6 active torsions:
REMARK  status: ('A' for Active; 'I' for Inactive)
REMARK    1  A    between atoms: C_1  and  C_2
REMARK    2  A    between atoms: C_2  and  C_3
REMARK    3  A    between atoms: C_3  and  C_4
REMARK    4  A    between atoms: C_11  and  O_12
REMARK    5  A    between atoms: O_12  and  C_13
REMARK    6  A    between atoms: C_14  and  O_15
REMARK                            x       y       z     vdW  Elec       q    Type
REMARK                         _______ _______ _______ _____ _____    ______ ____
ROOT
ATOM      1  C   UNL     1       2.241   4.711  19.808  0.00  0.00    +0.000 C 
ATOM      2  O   UNL     1       2.111   5.835  20.298  0.00  0.00    +0.000 OA
ATOM      3  N   UNL     1       3.483   4.201  19.460  0.00  0.00    +0.000 N 
ATOM      4  C   UNL     1       3.748   2.900  18.855  0.00  0.00    +0.000 C 
ATOM      5  C   UNL     1       4.112   3.078  17.379  0.00  0.00    +0.000 C 
ATOM      6  C   UNL     1       5.154   4.159  17.180  0.00  0.00    +0.000 A 
ATOM      7  C   UNL     1       5.859   4.231  15.964  0.00  0.00    +0.000 A 
ATOM      8  C   UNL     1       6.794   5.245  15.749  0.00  0.00    +0.000 A 
ATOM      9  C   UNL     1       7.009   6.189  16.759  0.00  0.00    +0.000 A 
ATOM     10  C   UNL     1       6.315   6.142  17.960  0.00  0.00    +0.000 A 
ATOM     11  C   UNL     1       5.371   5.133  18.180  0.00  0.00    +0.000 A 
ATOM     12  C   UNL     1       4.641   5.087  19.507  0.00  0.00    +0.000 C 
ENDROOT
BRANCH   8  13
ATOM     13  O   UNL     1       7.549   5.428  14.619  0.00  0.00    +0.000 OA
ATOM     14  C   UNL     1       7.120   4.742  13.448  0.00  0.00    +0.000 C 
ENDBRANCH   8  13
BRANCH   9  15
ATOM     15  O   UNL     1       7.919   7.194  16.581  0.00  0.00    +0.000 OA
ATOM     16  H   UNL     1       7.524   7.781  15.908  0.00  0.00    +0.000 HD
ENDBRANCH   9  15
BRANCH   1  17
ATOM     17  C   UNL     1       1.030   3.812  19.611  0.00  0.00    +0.000 C 
BRANCH  17  19
ATOM     18  C   UNL     1       1.474   2.786  21.870  0.00  0.00    +0.000 C 
ATOM     19  C   UNL     1       1.163   2.515  20.407  0.00  0.00    +0.000 C 
ENDBRANCH  17  19
ENDBRANCH   1  17
TORSDOF 4
ENDMDL
MODEL 3
REMARK VINA RESULT:      -6.3      2.154      3.364
REMARK  Name = 
REMARK  6 active torsions:
REMARK  status: ('A' for Active; 'I' for Inactive)
REMARK    1  A    between atoms: C_1  and  C_2
REMARK    2  A    between atoms: C_2  and  C_3
REMARK    3  A    between atoms: C_3  and  C_4
REMARK    4  A    between atoms: C_11  and  O_12
REMARK    5  A    between atoms: O_12  and  C_13
REMARK    6  A    between atoms: C_14  and  O_15
REMARK                            x       y       z     vdW  Elec       q    Type
REMARK                         _______ _______ _______ _____ _____    ______ ____
ROOT
ATOM      1  C   UNL     1       3.173   5.431  19.464  0.00  0.00    +0.000 C 
ATOM      2  O   UNL     1       3.408   6.624  19.666  0.00  0.00    +0.000 OA
ATOM      3  N   UNL     1       4.136   4.567  18.968  0.00  0.00    +0.000 N 
ATOM      4  C   UNL     1       3.960   3.149  18.671  0.00  0.00    +0.000 C 
ATOM      5  C   UNL     1       3.899   2.939  17.157  0.00  0.00    +0.000 C 
ATOM      6  C   UNL     1       5.020   3.661  16.440  0.00  0.00    +0.000 A 
ATOM      7  C   UNL     1       5.335   3.316  15.112  0.00  0.00    +0.000 A 
ATOM      8  C   UNL     1       6.339   3.999  14.424  0.00  0.00    +0.000 A 
ATOM      9  C   UNL     1       7.017   5.035  15.074  0.00  0.00    +0.000 A 
ATOM     10  C   UNL     1       6.713   5.399  16.378  0.00  0.00    +0.000 A 
ATOM     11  C   UNL     1       5.703   4.724  17.072  0.00  0.00    +0.000 A 
ATOM     12  C   UNL     1       5.402   5.123  18.503  0.00  0.00    +0.000 C 
ENDROOT
BRANCH   8  13
ATOM     13  O   UNL     1       6.747   3.762  13.136  0.00  0.00    +0.000 OA
ATOM     14  C   UNL     1       5.769   3.240  12.243  0.00  0.00    +0.000 C 
ENDBRANCH   8  13
BRANCH   9  15
ATOM     15  O   UNL     1       8.006   5.724  14.428  0.00  0.00    +0.000 OA
ATOM     16  H   UNL     1       8.079   6.573  14.904  0.00  0.00    +0.000 HD
ENDBRANCH   9  15
BRANCH   1  17
ATOM     17  C   UNL     1       1.810   4.847  19.805  0.00  0.00    +0.000 C 
BRANCH  17  19
ATOM     18  C   UNL     1       1.320   2.804  21.198  0.00  0.00    +0.000 C 
ATOM     19  C   UNL     1       1.797   4.247  21.211  0.00  0.00    +0.000 C 
ENDBRANCH  17  19
ENDBRANCH   1  17
TORSDOF 4
ENDMDL
MODEL 4
REMARK VINA RESULT:      -6.2      1.867      6.131
REMARK  Name = 
REMARK  6 active torsions:
REMARK  status: ('A' for Active; 'I' for Inactive)
REMARK    1  A    between atoms: C_1  and  C_2
REMARK    2  A    between atoms: C_2  and  C_3
REMARK    3  A    between atoms: C_3  and  C_4
REMARK    4  A    between atoms: C_11  and  O_12
REMARK    5  A    between atoms: O_12  and  C_13
REMARK    6  A    between atoms: C_14  and  O_15
REMARK                            x       y       z     vdW  Elec       q    Type
REMARK                         _______ _______ _______ _____ _____    ______ ____
ROOT
ATOM      1  C   UNL     1       6.388   5.845  16.125  0.00  0.00    +0.000 C 
ATOM      2  O   UNL     1       5.829   6.066  15.049  0.00  0.00    +0.000 OA
ATOM      3  N   UNL     1       6.060   4.751  16.912  0.00  0.00    +0.000 N 
ATOM      4  C   UNL     1       6.638   4.408  18.207  0.00  0.00    +0.000 C 
ATOM      5  C   UNL     1       5.634   4.711  19.321  0.00  0.00    +0.000 C 
ATOM      6  C   UNL     1       4.259   4.157  19.009  0.00  0.00    +0.000 A 
ATOM      7  C   UNL     1       3.309   4.030  20.040  0.00  0.00    +0.000 A 
ATOM      8  C   UNL     1       2.025   3.559  19.762  0.00  0.00    +0.000 A 
ATOM      9  C   UNL     1       1.700   3.225  18.443  0.00  0.00    +0.000 A 
ATOM     10  C   UNL     1       2.619   3.355  17.411  0.00  0.00    +0.000 A 
ATOM     11  C   UNL     1       3.906   3.833  17.681  0.00  0.00    +0.000 A 
ATOM     12  C   UNL     1       4.900   3.947  16.543  0.00  0.00    +0.000 C 
ENDROOT
BRANCH   8  13
ATOM     13  O   UNL     1       1.011   3.383  20.668  0.00  0.00    +0.000 OA
ATOM     14  C   UNL     1       1.319   2.626  21.833  0.00  0.00    +0.000 C 
ENDBRANCH   8  13
BRANCH   9  15
ATOM     15  O   UNL     1       0.451   2.760  18.137  0.00  0.00    +0.000 OA
ATOM     16  H   UNL     1       0.571   2.211  17.339  0.00  0.00    +0.000 HD
ENDBRANCH   9  15
BRANCH   1  17
ATOM     17  C   UNL     1       7.509   6.751  16.612  0.00  0.00    +0.000 C 
BRANCH  17  19
ATOM     18  C   UNL     1       8.075   8.849  17.888  0.00  0.00    +0.000 C 
ATOM     19  C   UNL     1       6.971   7.891  17.475  0.00  0.00    +0.000 C 
ENDBRANCH  17  19
ENDBRANCH   1  17
TORSDOF 4
ENDMDL
MODEL 5
REMARK VINA RESULT:      -6.2      1.913      6.314
REMARK  Name = 
REMARK  6 active torsions:
REMARK  status: ('A' for Active; 'I' for Inactive)
REMARK    1  A    between atoms: C_1  and  C_2
REMARK    2  A    between atoms: C_2  and  C_3
REMARK    3  A    between atoms: C_3  and  C_4
REMARK    4  A    between atoms: C_11  and  O_12
REMARK    5  A    between atoms: O_12  and  C_13
REMARK    6  A    between atoms: C_14  and  O_15
REMARK                            x       y       z     vdW  Elec       q    Type
REMARK                         _______ _______ _______ _____ _____    ______ ____
ROOT
ATOM      1  C   UNL     1       6.616   6.890  17.095  0.00  0.00    +0.000 C 
ATOM      2  O   UNL     1       5.989   7.602  16.308  0.00  0.00    +0.000 OA
ATOM      3  N   UNL     1       6.315   5.548  17.271  0.00  0.00    +0.000 N 
ATOM      4  C   UNL     1       6.974   4.623  18.188  0.00  0.00    +0.000 C 
ATOM      5  C   UNL     1       6.059   4.333  19.379  0.00  0.00    +0.000 C 
ATOM      6  C   UNL     1       4.651   3.986  18.941  0.00  0.00    +0.000 A 
ATOM      7  C   UNL     1       3.773   3.362  19.847  0.00  0.00    +0.000 A 
ATOM      8  C   UNL     1       2.461   3.072  19.471  0.00  0.00    +0.000 A 
ATOM      9  C   UNL     1       2.035   3.421  18.185  0.00  0.00    +0.000 A 
ATOM     10  C   UNL     1       2.881   4.048  17.282  0.00  0.00    +0.000 A 
ATOM     11  C   UNL     1       4.196   4.348  17.653  0.00  0.00    +0.000 A 
ATOM     12  C   UNL     1       5.111   5.014  16.645  0.00  0.00    +0.000 C 
ENDROOT
BRANCH   8  13
ATOM     13  O   UNL     1       1.508   2.466  20.249  0.00  0.00    +0.000 OA
ATOM     14  C   UNL     1       1.606   2.672  21.654  0.00  0.00    +0.000 C 
ENDBRANCH   8  13
BRANCH   9  15
ATOM     15  O   UNL     1       0.755   3.150  17.785  0.00  0.00    +0.000 OA
ATOM     16  H   UNL     1       0.340   4.023  17.646  0.00  0.00    +0.000 HD
ENDBRANCH   9  15
BRANCH   1  17
ATOM     17  C   UNL     1       7.793   7.456  17.876  0.00  0.00    +0.000 C 
BRANCH  17  19
ATOM     18  C   UNL     1       8.877   9.572  18.713  0.00  0.00    +0.000 C 
ATOM     19  C   UNL     1       7.872   8.976  17.741  0.00  0.00    +0.000 C 
ENDBRANCH  17  19
ENDBRANCH   1  17
TORSDOF 4
ENDMDL
MODEL 6
REMARK VINA RESULT:      -6.2      1.774      3.006
REMARK  Name = 
REMARK  6 active torsions:
REMARK  status: ('A' for Active; 'I' for Inactive)
REMARK    1  A    between atoms: C_1  and  C_2
REMARK    2  A    between atoms: C_2  and  C_3
REMARK    3  A    between atoms: C_3  and  C_4
REMARK    4  A    between atoms: C_11  and  O_12
REMARK    5  A    between atoms: O_12  and  C_13
REMARK    6  A    between atoms: C_14  and  O_15
REMARK                            x       y       z     vdW  Elec       q    Type
REMARK                         _______ _______ _______ _____ _____    ______ ____
ROOT
ATOM      1  C   UNL     1       2.320   4.320  20.072  0.00  0.00    +0.000 C 
ATOM      2  O   UNL     1       2.036   5.443  20.493  0.00  0.00    +0.000 OA
ATOM      3  N   UNL     1       3.621   3.963  19.754  0.00  0.00    +0.000 N 
ATOM      4  C   UNL     1       4.064   2.675  19.229  0.00  0.00    +0.000 C 
ATOM      5  C   UNL     1       4.411   2.812  17.745  0.00  0.00    +0.000 C 
ATOM      6  C   UNL     1       5.299   4.009  17.479  0.00  0.00    +0.000 A 
ATOM      7  C   UNL     1       5.995   4.103  16.259  0.00  0.00    +0.000 A 
ATOM      8  C   UNL     1       6.786   5.219  15.982  0.00  0.00    +0.000 A 
ATOM      9  C   UNL     1       6.864   6.242  16.932  0.00  0.00    +0.000 A 
ATOM     10  C   UNL     1       6.175   6.175  18.135  0.00  0.00    +0.000 A 
ATOM     11  C   UNL     1       5.375   5.062  18.417  0.00  0.00    +0.000 A 
ATOM     12  C   UNL     1       4.649   4.999  19.745  0.00  0.00    +0.000 C 
ENDROOT
BRANCH   8  13
ATOM     13  O   UNL     1       7.517   5.433  14.841  0.00  0.00    +0.000 OA
ATOM     14  C   UNL     1       7.037   4.819  13.651  0.00  0.00    +0.000 C 
ENDBRANCH   8  13
BRANCH   9  15
ATOM     15  O   UNL     1       7.631   7.349  16.692  0.00  0.00    +0.000 OA
ATOM     16  H   UNL     1       8.083   7.169  15.845  0.00  0.00    +0.000 HD
ENDBRANCH   9  15
BRANCH   1  17
ATOM     17  C   UNL     1       1.243   3.255  19.933  0.00  0.00    +0.000 C 
BRANCH  17  19
ATOM     18  C   UNL     1       1.304   4.280  17.631  0.00  0.00    +0.000 C 
ATOM     19  C   UNL     1       0.705   3.190  18.504  0.00  0.00    +0.000 C 
ENDBRANCH  17  19
ENDBRANCH   1  17
TORSDOF 4
ENDMDL
MODEL 7
REMARK VINA RESULT:      -6.1      2.266      6.357
REMARK  Name = 
REMARK  6 active torsions:
REMARK  status: ('A' for Active; 'I' for Inactive)
REMARK    1  A    between atoms: C_1  and  C_2
REMARK    2  A    between atoms: C_2  and  C_3
REMARK    3  A    between atoms: C_3  and  C_4
REMARK    4  A    between atoms: C_11  and  O_12
REMARK    5  A    between atoms: O_12  and  C_13
REMARK    6  A    between atoms: C_14  and  O_15
REMARK                            x       y       z     vdW  Elec       q    Type
REMARK                         _______ _______ _______ _____ _____    ______ ____
ROOT
ATOM      1  C   UNL     1       6.474   5.807  16.193  0.00  0.00    +0.000 C 
ATOM      2  O   UNL     1       6.998   6.837  16.620  0.00  0.00    +0.000 OA
ATOM      3  N   UNL     1       5.110   5.579  16.299  0.00  0.00    +0.000 N 
ATOM      4  C   UNL     1       4.392   4.391  15.850  0.00  0.00    +0.000 C 
ATOM      5  C   UNL     1       3.986   3.543  17.057  0.00  0.00    +0.000 C 
ATOM      6  C   UNL     1       3.336   4.376  18.142  0.00  0.00    +0.000 A 
ATOM      7  C   UNL     1       2.596   3.743  19.158  0.00  0.00    +0.000 A 
ATOM      8  C   UNL     1       2.024   4.493  20.187  0.00  0.00    +0.000 A 
ATOM      9  C   UNL     1       2.207   5.879  20.193  0.00  0.00    +0.000 A 
ATOM     10  C   UNL     1       2.944   6.521  19.207  0.00  0.00    +0.000 A 
ATOM     11  C   UNL     1       3.526   5.775  18.176  0.00  0.00    +0.000 A 
ATOM     12  C   UNL     1       4.308   6.498  17.098  0.00  0.00    +0.000 C 
ENDROOT
BRANCH   8  13
ATOM     13  O   UNL     1       1.279   4.005  21.230  0.00  0.00    +0.000 OA
ATOM     14  C   UNL     1       1.513   2.652  21.603  0.00  0.00    +0.000 C 
ENDBRANCH   8  13
BRANCH   9  15
ATOM     15  O   UNL     1       1.659   6.643  21.186  0.00  0.00    +0.000 OA
ATOM     16  H   UNL     1       2.420   7.014  21.673  0.00  0.00    +0.000 HD
ENDBRANCH   9  15
BRANCH   1  17
ATOM     17  C   UNL     1       7.310   4.756  15.478  0.00  0.00    +0.000 C 
BRANCH  17  19
ATOM     18  C   UNL     1       6.510   3.911  13.242  0.00  0.00    +0.000 C 
ATOM     19  C   UNL     1       7.312   4.979  13.966  0.00  0.00    +0.000 C 
ENDBRANCH  17  19
ENDBRANCH   1  17
TORSDOF 4
ENDMDL
MODEL 8
REMARK VINA RESULT:      -6.1      2.084      3.116
REMARK  Name = 
REMARK  6 active torsions:
REMARK  status: ('A' for Active; 'I' for Inactive)
REMARK    1  A    between atoms: C_1  and  C_2
REMARK    2  A    between atoms: C_2  and  C_3
REMARK    3  A    between atoms: C_3  and  C_4
REMARK    4  A    between atoms: C_11  and  O_12
REMARK    5  A    between atoms: O_12  and  C_13
REMARK    6  A    between atoms: C_14  and  O_15
REMARK                            x       y       z     vdW  Elec       q    Type
REMARK                         _______ _______ _______ _____ _____    ______ ____
ROOT
ATOM      1  C   UNL     1       2.064   4.395  20.740  0.00  0.00    +0.000 C 
ATOM      2  O   UNL     1       1.411   5.438  20.800  0.00  0.00    +0.000 OA
ATOM      3  N   UNL     1       3.347   4.361  20.216  0.00  0.00    +0.000 N 
ATOM      4  C   UNL     1       4.196   3.182  20.076  0.00  0.00    +0.000 C 
ATOM      5  C   UNL     1       4.266   2.764  18.606  0.00  0.00    +0.000 C 
ATOM      6  C   UNL     1       4.559   3.940  17.697  0.00  0.00    +0.000 A 
ATOM      7  C   UNL     1       4.997   3.709  16.379  0.00  0.00    +0.000 A 
ATOM      8  C   UNL     1       5.233   4.780  15.516  0.00  0.00    +0.000 A 
ATOM      9  C   UNL     1       5.017   6.082  15.982  0.00  0.00    +0.000 A 
ATOM     10  C   UNL     1       4.572   6.329  17.273  0.00  0.00    +0.000 A 
ATOM     11  C   UNL     1       4.327   5.260  18.142  0.00  0.00    +0.000 A 
ATOM     12  C   UNL     1       3.864   5.553  19.554  0.00  0.00    +0.000 C 
ENDROOT
BRANCH   8  13
ATOM     13  O   UNL     1       5.664   4.697  14.217  0.00  0.00    +0.000 OA
ATOM     14  C   UNL     1       7.066   4.552  14.018  0.00  0.00    +0.000 C 
ENDBRANCH   8  13
BRANCH   9  15
ATOM     15  O   UNL     1       5.239   7.153  15.162  0.00  0.00    +0.000 OA
ATOM     16  H   UNL     1       4.377   7.340  14.744  0.00  0.00    +0.000 HD
ENDBRANCH   9  15
BRANCH   1  17
ATOM     17  C   UNL     1       1.494   3.097  21.293  0.00  0.00    +0.000 C 
BRANCH  17  19
ATOM     18  C   UNL     1       0.576   2.816  18.963  0.00  0.00    +0.000 C 
ATOM     19  C   UNL     1       1.164   2.111  20.173  0.00  0.00    +0.000 C 
ENDBRANCH  17  19
ENDBRANCH   1  17
TORSDOF 4
ENDMDL
MODEL 9
REMARK VINA RESULT:      -6.0      1.039      1.348
REMARK  Name = 
REMARK  6 active torsions:
REMARK  status: ('A' for Active; 'I' for Inactive)
REMARK    1  A    between atoms: C_1  and  C_2
REMARK    2  A    between atoms: C_2  and  C_3
REMARK    3  A    between atoms: C_3  and  C_4
REMARK    4  A    between atoms: C_11  and  O_12
REMARK    5  A    between atoms: O_12  and  C_13
REMARK    6  A    between atoms: C_14  and  O_15
REMARK                            x       y       z     vdW  Elec       q    Type
REMARK                         _______ _______ _______ _____ _____    ______ ____
ROOT
ATOM      1  C   UNL     1       3.134   2.421  19.255  0.00  0.00    +0.000 C 
ATOM      2  O   UNL     1       3.525   1.343  18.803  0.00  0.00    +0.000 OA
ATOM      3  N   UNL     1       3.172   3.587  18.506  0.00  0.00    +0.000 N 
ATOM      4  C   UNL     1       2.760   4.915  18.948  0.00  0.00    +0.000 C 
ATOM      5  C   UNL     1       3.993   5.786  19.198  0.00  0.00    +0.000 C 
ATOM      6  C   UNL     1       4.980   5.713  18.051  0.00  0.00    +0.000 A 
ATOM      7  C   UNL     1       5.989   6.689  17.937  0.00  0.00    +0.000 A 
ATOM      8  C   UNL     1       6.929   6.614  16.909  0.00  0.00    +0.000 A 
ATOM      9  C   UNL     1       6.855   5.550  16.004  0.00  0.00    +0.000 A 
ATOM     10  C   UNL     1       5.876   4.572  16.107  0.00  0.00    +0.000 A 
ATOM     11  C   UNL     1       4.934   4.636  17.139  0.00  0.00    +0.000 A 
ATOM     12  C   UNL     1       3.860   3.570  17.220  0.00  0.00    +0.000 C 
ENDROOT
BRANCH   8  13
ATOM     13  O   UNL     1       7.956   7.495  16.682  0.00  0.00    +0.000 OA
ATOM     14  C   UNL     1       8.129   8.533  17.639  0.00  0.00    +0.000 C 
ENDBRANCH   8  13
BRANCH   9  15
ATOM     15  O   UNL     1       7.761   5.448  14.985  0.00  0.00    +0.000 OA
ATOM     16  H   UNL     1       8.428   4.807  15.298  0.00  0.00    +0.000 HD
ENDBRANCH   9  15
BRANCH   1  17
ATOM     17  C   UNL     1       2.541   2.501  20.654  0.00  0.00    +0.000 C 
BRANCH  17  19
ATOM     18  C   UNL     1       0.443   2.223  19.285  0.00  0.00    +0.000 C 
ATOM     19  C   UNL     1       1.026   2.693  20.607  0.00  0.00    +0.000 C 
ENDBRANCH  17  19
ENDBRANCH   1  17
TORSDOF 4
ENDMDL
