MODEL 1
REMARK VINA RESULT:      -7.8      0.000      0.000
REMARK  Name = 
REMARK  7 active torsions:
REMARK  status: ('A' for Active; 'I' for Inactive)
REMARK    1  A    between atoms: C_1  and  O_2
REMARK    2  A    between atoms: O_2  and  C_3
REMARK    3  A    between atoms: C_3  and  C_5
REMARK    4  A    between atoms: C_5  and  N_6
REMARK    5  A    between atoms: C_5  and  C_25
REMARK    6  A    between atoms: C_7  and  C_9
REMARK    7  A    between atoms: C_11  and  C_12
REMARK                            x       y       z     vdW  Elec       q    Type
REMARK                         _______ _______ _______ _____ _____    ______ ____
ROOT
ATOM      1  C   UNL     1       3.104   6.258  18.913  0.00  0.00    +0.000 A 
ATOM      2  C   UNL     1       2.536   7.405  19.477  0.00  0.00    +0.000 A 
ATOM      3  C   UNL     1       1.528   7.281  20.419  0.00  0.00    +0.000 A 
ATOM      4  N   UNL     1       1.078   6.065  20.801  0.00  0.00    +0.000 NA
ATOM      5  C   UNL     1       1.639   4.952  20.289  0.00  0.00    +0.000 A 
ATOM      6  C   UNL     1       1.168   3.724  20.738  0.00  0.00    +0.000 A 
ATOM      7  C   UNL     1       1.684   2.514  20.270  0.00  0.00    +0.000 A 
ATOM      8  C   UNL     1       2.693   2.522  19.320  0.00  0.00    +0.000 A 
ATOM      9  C   UNL     1       3.178   3.741  18.847  0.00  0.00    +0.000 A 
ATOM     10  C   UNL     1       2.671   4.977  19.327  0.00  0.00    +0.000 A 
ENDROOT
BRANCH   3  11
ATOM     11  C   UNL     1       0.878   8.463  21.029  0.00  0.00    +0.000 A 
ATOM     12  C   UNL     1       0.497   8.470  22.382  0.00  0.00    +0.000 A 
ATOM     13  C   UNL     1      -0.173   9.563  22.946  0.00  0.00    +0.000 A 
ATOM     14  C   UNL     1      -0.475  10.676  22.167  0.00  0.00    +0.000 A 
ATOM     15  C   UNL     1      -0.089  10.708  20.832  0.00  0.00    +0.000 A 
ATOM     16  C   UNL     1       0.586   9.618  20.275  0.00  0.00    +0.000 A 
ENDBRANCH   3  11
BRANCH   1  18
ATOM     17  N   UNL     1       5.446   6.077  18.295  0.00  0.00    +0.000 N 
ATOM     18  C   UNL     1       4.185   6.463  17.900  0.00  0.00    +0.000 C 
ATOM     19  O   UNL     1       3.959   6.933  16.793  0.00  0.00    +0.000 OA
ATOM     20  H   UNL     1       5.609   5.731  19.229  0.00  0.00    +0.000 HD
BRANCH  17  21
ATOM     21  C   UNL     1       6.602   6.151  17.405  0.00  0.00    +0.000 C 
BRANCH  21  22
ATOM     22  C   UNL     1       7.401   7.397  17.754  0.00  0.00    +0.000 A 
ATOM     23  C   UNL     1       7.127   8.607  17.102  0.00  0.00    +0.000 A 
ATOM     24  C   UNL     1       7.797   9.775  17.464  0.00  0.00    +0.000 A 
ATOM     25  C   UNL     1       8.744   9.750  18.486  0.00  0.00    +0.000 A 
ATOM     26  C   UNL     1       9.034   8.554  19.139  0.00  0.00    +0.000 A 
ATOM     27  C   UNL     1       8.373   7.381  18.771  0.00  0.00    +0.000 A 
ENDBRANCH  21  22
BRANCH  21  28
ATOM     28  C   UNL     1       7.473   4.881  17.489  0.00  0.00    +0.000 C 
ATOM     29  O   UNL     1       7.851   4.349  18.529  0.00  0.00    +0.000 OA
BRANCH  28  31
ATOM     30  C   UNL     1       6.903   4.838  15.202  0.00  0.00    +0.000 C 
ATOM     31  O   UNL     1       7.826   4.475  16.230  0.00  0.00    +0.000 OA
ENDBRANCH  28  31
ENDBRANCH  21  28
ENDBRANCH  17  21
ENDBRANCH   1  18
TORSDOF 6
ENDMDL
MODEL 2
REMARK VINA RESULT:      -7.7      3.269      5.815
REMARK  Name = 
REMARK  7 active torsions:
REMARK  status: ('A' for Active; 'I' for Inactive)
REMARK    1  A    between atoms: C_1  and  O_2
REMARK    2  A    between atoms: O_2  and  C_3
REMARK    3  A    between atoms: C_3  and  C_5
REMARK    4  A    between atoms: C_5  and  N_6
REMARK    5  A    between atoms: C_5  and  C_25
REMARK    6  A    between atoms: C_7  and  C_9
REMARK    7  A    between atoms: C_11  and  C_12
REMARK                            x       y       z     vdW  Elec       q    Type
REMARK                         _______ _______ _______ _____ _____    ______ ____
ROOT
ATOM      1  C   UNL     1       1.328   9.989  19.220  0.00  0.00    +0.000 A 
ATOM      2  C   UNL     1       1.765  11.213  18.705  0.00  0.00    +0.000 A 
ATOM      3  C   UNL     1       1.508  12.383  19.401  0.00  0.00    +0.000 A 
ATOM      4  N   UNL     1       0.836  12.363  20.573  0.00  0.00    +0.000 NA
ATOM      5  C   UNL     1       0.437  11.187  21.096  0.00  0.00    +0.000 A 
ATOM      6  C   UNL     1      -0.221  11.212  22.320  0.00  0.00    +0.000 A 
ATOM      7  C   UNL     1      -0.672  10.048  22.945  0.00  0.00    +0.000 A 
ATOM      8  C   UNL     1      -0.473   8.822  22.332  0.00  0.00    +0.000 A 
ATOM      9  C   UNL     1       0.177   8.768  21.099  0.00  0.00    +0.000 A 
ATOM     10  C   UNL     1       0.654   9.944  20.462  0.00  0.00    +0.000 A 
ENDROOT
BRANCH   3  11
ATOM     11  C   UNL     1       1.930  13.706  18.888  0.00  0.00    +0.000 A 
ATOM     12  C   UNL     1       3.172  13.882  18.253  0.00  0.00    +0.000 A 
ATOM     13  C   UNL     1       3.600  15.145  17.822  0.00  0.00    +0.000 A 
ATOM     14  C   UNL     1       2.790  16.260  18.015  0.00  0.00    +0.000 A 
ATOM     15  C   UNL     1       1.545  16.113  18.616  0.00  0.00    +0.000 A 
ATOM     16  C   UNL     1       1.120  14.851  19.038  0.00  0.00    +0.000 A 
ENDBRANCH   3  11
BRANCH   1  18
ATOM     17  N   UNL     1       2.215   7.730  19.115  0.00  0.00    +0.000 N 
ATOM     18  C   UNL     1       1.634   8.765  18.417  0.00  0.00    +0.000 C 
ATOM     19  O   UNL     1       1.376   8.688  17.224  0.00  0.00    +0.000 OA
ATOM     20  H   UNL     1       2.455   7.837  20.090  0.00  0.00    +0.000 HD
BRANCH  17  21
ATOM     21  C   UNL     1       2.521   6.443  18.496  0.00  0.00    +0.000 C 
BRANCH  21  22
ATOM     22  C   UNL     1       4.031   6.314  18.371  0.00  0.00    +0.000 A 
ATOM     23  C   UNL     1       4.743   5.527  19.287  0.00  0.00    +0.000 A 
ATOM     24  C   UNL     1       6.116   5.336  19.140  0.00  0.00    +0.000 A 
ATOM     25  C   UNL     1       6.794   5.923  18.073  0.00  0.00    +0.000 A 
ATOM     26  C   UNL     1       6.103   6.714  17.158  0.00  0.00    +0.000 A 
ATOM     27  C   UNL     1       4.730   6.916  17.309  0.00  0.00    +0.000 A 
ENDBRANCH  21  22
BRANCH  21  28
ATOM     28  C   UNL     1       1.919   5.266  19.292  0.00  0.00    +0.000 C 
ATOM     29  O   UNL     1       1.723   5.258  20.503  0.00  0.00    +0.000 OA
BRANCH  28  31
ATOM     30  C   UNL     1       1.202   3.029  19.097  0.00  0.00    +0.000 C 
ATOM     31  O   UNL     1       1.705   4.203  18.457  0.00  0.00    +0.000 OA
ENDBRANCH  28  31
ENDBRANCH  21  28
ENDBRANCH  17  21
ENDBRANCH   1  18
TORSDOF 6
ENDMDL
MODEL 3
REMARK VINA RESULT:      -7.7      3.212      5.735
REMARK  Name = 
REMARK  7 active torsions:
REMARK  status: ('A' for Active; 'I' for Inactive)
REMARK    1  A    between atoms: C_1  and  O_2
REMARK    2  A    between atoms: O_2  and  C_3
REMARK    3  A    between atoms: C_3  and  C_5
REMARK    4  A    between atoms: C_5  and  N_6
REMARK    5  A    between atoms: C_5  and  C_25
REMARK    6  A    between atoms: C_7  and  C_9
REMARK    7  A    between atoms: C_11  and  C_12
REMARK                            x       y       z     vdW  Elec       q    Type
REMARK                         _______ _______ _______ _____ _____    ______ ____
ROOT
ATOM      1  C   UNL     1       1.459   9.923  19.161  0.00  0.00    +0.000 A 
ATOM      2  C   UNL     1       1.858  11.181  18.698  0.00  0.00    +0.000 A 
ATOM      3  C   UNL     1       1.545  12.314  19.429  0.00  0.00    +0.000 A 
ATOM      4  N   UNL     1       0.855  12.226  20.588  0.00  0.00    +0.000 NA
ATOM      5  C   UNL     1       0.493  11.019  21.061  0.00  0.00    +0.000 A 
ATOM      6  C   UNL     1      -0.186  10.975  22.274  0.00  0.00    +0.000 A 
ATOM      7  C   UNL     1      -0.602   9.773  22.849  0.00  0.00    +0.000 A 
ATOM      8  C   UNL     1      -0.346   8.577  22.197  0.00  0.00    +0.000 A 
ATOM      9  C   UNL     1       0.326   8.593  20.975  0.00  0.00    +0.000 A 
ATOM     10  C   UNL     1       0.767   9.808  20.389  0.00  0.00    +0.000 A 
ENDROOT
BRANCH   3  11
ATOM     11  C   UNL     1       1.924  13.670  18.971  0.00  0.00    +0.000 A 
ATOM     12  C   UNL     1       1.079  14.775  19.179  0.00  0.00    +0.000 A 
ATOM     13  C   UNL     1       1.406  16.046  18.692  0.00  0.00    +0.000 A 
ATOM     14  C   UNL     1       2.591  16.242  17.988  0.00  0.00    +0.000 A 
ATOM     15  C   UNL     1       3.459  15.174  17.788  0.00  0.00    +0.000 A 
ATOM     16  C   UNL     1       3.131  13.909  18.282  0.00  0.00    +0.000 A 
ENDBRANCH   3  11
BRANCH   1  18
ATOM     17  N   UNL     1       2.283   7.643  19.013  0.00  0.00    +0.000 N 
ATOM     18  C   UNL     1       1.826   8.741  18.320  0.00  0.00    +0.000 C 
ATOM     19  O   UNL     1       1.717   8.751  17.102  0.00  0.00    +0.000 OA
ATOM     20  H   UNL     1       2.402   7.679  20.015  0.00  0.00    +0.000 HD
BRANCH  17  21
ATOM     21  C   UNL     1       2.624   6.386  18.351  0.00  0.00    +0.000 C 
BRANCH  21  22
ATOM     22  C   UNL     1       4.138   6.287  18.253  0.00  0.00    +0.000 A 
ATOM     23  C   UNL     1       4.847   5.501  19.173  0.00  0.00    +0.000 A 
ATOM     24  C   UNL     1       6.226   5.338  19.050  0.00  0.00    +0.000 A 
ATOM     25  C   UNL     1       6.913   5.951  18.005  0.00  0.00    +0.000 A 
ATOM     26  C   UNL     1       6.225   6.742  17.087  0.00  0.00    +0.000 A 
ATOM     27  C   UNL     1       4.846   6.916  17.213  0.00  0.00    +0.000 A 
ENDBRANCH  21  22
BRANCH  21  28
ATOM     28  C   UNL     1       2.025   5.169  19.086  0.00  0.00    +0.000 C 
ATOM     29  O   UNL     1       1.643   4.135  18.547  0.00  0.00    +0.000 OA
BRANCH  28  31
ATOM     30  C   UNL     1       2.076   4.315  21.282  0.00  0.00    +0.000 C 
ATOM     31  O   UNL     1       1.913   5.443  20.422  0.00  0.00    +0.000 OA
ENDBRANCH  28  31
ENDBRANCH  21  28
ENDBRANCH  17  21
ENDBRANCH   1  18
TORSDOF 6
ENDMDL
MODEL 4
REMARK VINA RESULT:      -7.6      3.228      5.612
REMARK  Name = 
REMARK  7 active torsions:
REMARK  status: ('A' for Active; 'I' for Inactive)
REMARK    1  A    between atoms: C_1  and  O_2
REMARK    2  A    between atoms: O_2  and  C_3
REMARK    3  A    between atoms: C_3  and  C_5
REMARK    4  A    between atoms: C_5  and  N_6
REMARK    5  A    between atoms: C_5  and  C_25
REMARK    6  A    between atoms: C_7  and  C_9
REMARK    7  A    between atoms: C_11  and  C_12
REMARK                            x       y       z     vdW  Elec       q    Type
REMARK                         _______ _______ _______ _____ _____    ______ ____
ROOT
ATOM      1  C   UNL     1       1.450   9.883  19.019  0.00  0.00    +0.000 A 
ATOM      2  C   UNL     1       1.872  11.132  18.553  0.00  0.00    +0.000 A 
ATOM      3  C   UNL     1       1.617  12.268  19.303  0.00  0.00    +0.000 A 
ATOM      4  N   UNL     1       0.960  12.191  20.483  0.00  0.00    +0.000 NA
ATOM      5  C   UNL     1       0.577  10.990  20.957  0.00  0.00    +0.000 A 
ATOM      6  C   UNL     1      -0.065  10.956  22.191  0.00  0.00    +0.000 A 
ATOM      7  C   UNL     1      -0.500   9.762  22.769  0.00  0.00    +0.000 A 
ATOM      8  C   UNL     1      -0.301   8.565  22.099  0.00  0.00    +0.000 A 
ATOM      9  C   UNL     1       0.333   8.572  20.857  0.00  0.00    +0.000 A 
ATOM     10  C   UNL     1       0.793   9.778  20.267  0.00  0.00    +0.000 A 
ENDROOT
BRANCH   3  11
ATOM     11  C   UNL     1       2.022  13.616  18.844  0.00  0.00    +0.000 A 
ATOM     12  C   UNL     1       3.263  13.833  18.219  0.00  0.00    +0.000 A 
ATOM     13  C   UNL     1       3.675  15.117  17.840  0.00  0.00    +0.000 A 
ATOM     14  C   UNL     1       2.851  16.214  18.076  0.00  0.00    +0.000 A 
ATOM     15  C   UNL     1       1.608  16.027  18.669  0.00  0.00    +0.000 A 
ATOM     16  C   UNL     1       1.198  14.743  19.039  0.00  0.00    +0.000 A 
ENDBRANCH   3  11
BRANCH   1  18
ATOM     17  N   UNL     1       2.574   7.750  18.726  0.00  0.00    +0.000 N 
ATOM     18  C   UNL     1       1.754   8.698  18.157  0.00  0.00    +0.000 C 
ATOM     19  O   UNL     1       1.295   8.579  17.030  0.00  0.00    +0.000 OA
ATOM     20  H   UNL     1       2.972   7.896  19.642  0.00  0.00    +0.000 HD
BRANCH  17  21
ATOM     21  C   UNL     1       2.919   6.504  18.046  0.00  0.00    +0.000 C 
BRANCH  21  22
ATOM     22  C   UNL     1       4.429   6.332  18.089  0.00  0.00    +0.000 A 
ATOM     23  C   UNL     1       5.240   7.052  17.200  0.00  0.00    +0.000 A 
ATOM     24  C   UNL     1       6.629   6.964  17.278  0.00  0.00    +0.000 A 
ATOM     25  C   UNL     1       7.226   6.162  18.248  0.00  0.00    +0.000 A 
ATOM     26  C   UNL     1       6.435   5.433  19.134  0.00  0.00    +0.000 A 
ATOM     27  C   UNL     1       5.043   5.511  19.051  0.00  0.00    +0.000 A 
ENDBRANCH  21  22
BRANCH  21  28
ATOM     28  C   UNL     1       2.195   5.292  18.666  0.00  0.00    +0.000 C 
ATOM     29  O   UNL     1       1.810   4.305  18.047  0.00  0.00    +0.000 OA
BRANCH  28  31
ATOM     30  C   UNL     1       1.195   4.514  20.653  0.00  0.00    +0.000 C 
ATOM     31  O   UNL     1       1.978   5.513  19.999  0.00  0.00    +0.000 OA
ENDBRANCH  28  31
ENDBRANCH  21  28
ENDBRANCH  17  21
ENDBRANCH   1  18
TORSDOF 6
ENDMDL
MODEL 5
REMARK VINA RESULT:      -7.5      2.888      4.758
REMARK  Name = 
REMARK  7 active torsions:
REMARK  status: ('A' for Active; 'I' for Inactive)
REMARK    1  A    between atoms: C_1  and  O_2
REMARK    2  A    between atoms: O_2  and  C_3
REMARK    3  A    between atoms: C_3  and  C_5
REMARK    4  A    between atoms: C_5  and  N_6
REMARK    5  A    between atoms: C_5  and  C_25
REMARK    6  A    between atoms: C_7  and  C_9
REMARK    7  A    between atoms: C_11  and  C_12
REMARK                            x       y       z     vdW  Elec       q    Type
REMARK                         _______ _______ _______ _____ _____    ______ ____
ROOT
ATOM      1  C   UNL     1       4.112   4.664  17.616  0.00  0.00    +0.000 A 
ATOM      2  C   UNL     1       3.787   6.014  17.786  0.00  0.00    +0.000 A 
ATOM      3  C   UNL     1       2.634   6.363  18.469  0.00  0.00    +0.000 A 
ATOM      4  N   UNL     1       1.810   5.417  18.974  0.00  0.00    +0.000 NA
ATOM      5  C   UNL     1       2.128   4.115  18.844  0.00  0.00    +0.000 A 
ATOM      6  C   UNL     1       1.269   3.179  19.410  0.00  0.00    +0.000 A 
ATOM      7  C   UNL     1       1.510   1.806  19.331  0.00  0.00    +0.000 A 
ATOM      8  C   UNL     1       2.634   1.346  18.664  0.00  0.00    +0.000 A 
ATOM      9  C   UNL     1       3.509   2.263  18.081  0.00  0.00    +0.000 A 
ATOM     10  C   UNL     1       3.281   3.662  18.167  0.00  0.00    +0.000 A 
ENDROOT
BRANCH   3  11
ATOM     11  C   UNL     1       2.234   7.775  18.656  0.00  0.00    +0.000 A 
ATOM     12  C   UNL     1       1.600   8.206  19.836  0.00  0.00    +0.000 A 
ATOM     13  C   UNL     1       1.165   9.528  19.991  0.00  0.00    +0.000 A 
ATOM     14  C   UNL     1       1.357  10.452  18.967  0.00  0.00    +0.000 A 
ATOM     15  C   UNL     1       2.002  10.062  17.799  0.00  0.00    +0.000 A 
ATOM     16  C   UNL     1       2.442   8.744  17.652  0.00  0.00    +0.000 A 
ENDBRANCH   3  11
BRANCH   1  18
ATOM     17  N   UNL     1       5.227   4.241  15.500  0.00  0.00    +0.000 N 
ATOM     18  C   UNL     1       5.369   4.357  16.865  0.00  0.00    +0.000 C 
ATOM     19  O   UNL     1       6.447   4.228  17.427  0.00  0.00    +0.000 OA
ATOM     20  H   UNL     1       4.318   4.311  15.069  0.00  0.00    +0.000 HD
BRANCH  17  21
ATOM     21  C   UNL     1       6.364   4.005  14.613  0.00  0.00    +0.000 C 
BRANCH  21  22
ATOM     22  C   UNL     1       5.837   3.533  13.268  0.00  0.00    +0.000 A 
ATOM     23  C   UNL     1       6.571   2.601  12.519  0.00  0.00    +0.000 A 
ATOM     24  C   UNL     1       6.065   2.100  11.320  0.00  0.00    +0.000 A 
ATOM     25  C   UNL     1       4.818   2.517  10.858  0.00  0.00    +0.000 A 
ATOM     26  C   UNL     1       4.080   3.448  11.586  0.00  0.00    +0.000 A 
ATOM     27  C   UNL     1       4.589   3.960  12.781  0.00  0.00    +0.000 A 
ENDBRANCH  21  22
BRANCH  21  28
ATOM     28  C   UNL     1       7.245   5.262  14.464  0.00  0.00    +0.000 C 
ATOM     29  O   UNL     1       7.676   5.939  15.393  0.00  0.00    +0.000 OA
BRANCH  28  31
ATOM     30  C   UNL     1       8.742   5.937  12.773  0.00  0.00    +0.000 C 
ATOM     31  O   UNL     1       7.415   5.556  13.138  0.00  0.00    +0.000 OA
ENDBRANCH  28  31
ENDBRANCH  21  28
ENDBRANCH  17  21
ENDBRANCH   1  18
TORSDOF 6
ENDMDL
MODEL 6
REMARK VINA RESULT:      -7.4      1.357      3.224
REMARK  Name = 
REMARK  7 active torsions:
REMARK  status: ('A' for Active; 'I' for Inactive)
REMARK    1  A    between atoms: C_1  and  O_2
REMARK    2  A    between atoms: O_2  and  C_3
REMARK    3  A    between atoms: C_3  and  C_5
REMARK    4  A    between atoms: C_5  and  N_6
REMARK    5  A    between atoms: C_5  and  C_25
REMARK    6  A    between atoms: C_7  and  C_9
REMARK    7  A    between atoms: C_11  and  C_12
REMARK                            x       y       z     vdW  Elec       q    Type
REMARK                         _______ _______ _______ _____ _____    ______ ____
ROOT
ATOM      1  C   UNL     1       3.648   5.320  19.569  0.00  0.00    +0.000 A 
ATOM      2  C   UNL     1       3.149   6.574  19.935  0.00  0.00    +0.000 A 
ATOM      3  C   UNL     1       1.827   6.699  20.331  0.00  0.00    +0.000 A 
ATOM      4  N   UNL     1       1.007   5.626  20.367  0.00  0.00    +0.000 NA
ATOM      5  C   UNL     1       1.484   4.408  20.048  0.00  0.00    +0.000 A 
ATOM      6  C   UNL     1       0.613   3.327  20.133  0.00  0.00    +0.000 A 
ATOM      7  C   UNL     1       1.011   2.025  19.824  0.00  0.00    +0.000 A 
ATOM      8  C   UNL     1       2.312   1.788  19.411  0.00  0.00    +0.000 A 
ATOM      9  C   UNL     1       3.205   2.855  19.309  0.00  0.00    +0.000 A 
ATOM     10  C   UNL     1       2.815   4.180  19.635  0.00  0.00    +0.000 A 
ENDROOT
BRANCH   3  11
ATOM     11  C   UNL     1       1.244   8.007  20.706  0.00  0.00    +0.000 A 
ATOM     12  C   UNL     1       0.673   8.217  21.974  0.00  0.00    +0.000 A 
ATOM     13  C   UNL     1       0.065   9.433  22.309  0.00  0.00    +0.000 A 
ATOM     14  C   UNL     1       0.018  10.470  21.382  0.00  0.00    +0.000 A 
ATOM     15  C   UNL     1       0.596  10.302  20.129  0.00  0.00    +0.000 A 
ATOM     16  C   UNL     1       1.208   9.088  19.802  0.00  0.00    +0.000 A 
ENDBRANCH   3  11
BRANCH   1  18
ATOM     17  N   UNL     1       5.317   5.509  17.815  0.00  0.00    +0.000 N 
ATOM     18  C   UNL     1       5.082   5.257  19.148  0.00  0.00    +0.000 C 
ATOM     19  O   UNL     1       5.982   5.007  19.938  0.00  0.00    +0.000 OA
ATOM     20  H   UNL     1       4.551   5.671  17.179  0.00  0.00    +0.000 HD
BRANCH  17  21
ATOM     21  C   UNL     1       6.665   5.548  17.252  0.00  0.00    +0.000 C 
BRANCH  21  22
ATOM     22  C   UNL     1       6.608   5.025  15.826  0.00  0.00    +0.000 A 
ATOM     23  C   UNL     1       5.469   4.340  15.378  0.00  0.00    +0.000 A 
ATOM     24  C   UNL     1       5.369   3.922  14.052  0.00  0.00    +0.000 A 
ATOM     25  C   UNL     1       6.402   4.187  13.155  0.00  0.00    +0.000 A 
ATOM     26  C   UNL     1       7.544   4.859  13.586  0.00  0.00    +0.000 A 
ATOM     27  C   UNL     1       7.651   5.270  14.915  0.00  0.00    +0.000 A 
ENDBRANCH  21  22
BRANCH  21  28
ATOM     28  C   UNL     1       7.269   6.966  17.308  0.00  0.00    +0.000 C 
ATOM     29  O   UNL     1       7.011   7.877  16.527  0.00  0.00    +0.000 OA
BRANCH  28  31
ATOM     30  C   UNL     1       8.606   8.360  18.659  0.00  0.00    +0.000 C 
ATOM     31  O   UNL     1       8.194   7.037  18.315  0.00  0.00    +0.000 OA
ENDBRANCH  28  31
ENDBRANCH  21  28
ENDBRANCH  17  21
ENDBRANCH   1  18
TORSDOF 6
ENDMDL
MODEL 7
REMARK VINA RESULT:      -7.4      2.962      7.928
REMARK  Name = 
REMARK  7 active torsions:
REMARK  status: ('A' for Active; 'I' for Inactive)
REMARK    1  A    between atoms: C_1  and  O_2
REMARK    2  A    between atoms: O_2  and  C_3
REMARK    3  A    between atoms: C_3  and  C_5
REMARK    4  A    between atoms: C_5  and  N_6
REMARK    5  A    between atoms: C_5  and  C_25
REMARK    6  A    between atoms: C_7  and  C_9
REMARK    7  A    between atoms: C_11  and  C_12
REMARK                            x       y       z     vdW  Elec       q    Type
REMARK                         _______ _______ _______ _____ _____    ______ ____
ROOT
ATOM      1  C   UNL     1       2.927   7.363  18.174  0.00  0.00    +0.000 A 
ATOM      2  C   UNL     1       3.794   7.021  17.132  0.00  0.00    +0.000 A 
ATOM      3  C   UNL     1       4.313   5.739  17.061  0.00  0.00    +0.000 A 
ATOM      4  N   UNL     1       3.997   4.808  17.989  0.00  0.00    +0.000 NA
ATOM      5  C   UNL     1       3.138   5.115  18.979  0.00  0.00    +0.000 A 
ATOM      6  C   UNL     1       2.815   4.115  19.891  0.00  0.00    +0.000 A 
ATOM      7  C   UNL     1       1.934   4.333  20.951  0.00  0.00    +0.000 A 
ATOM      8  C   UNL     1       1.362   5.584  21.120  0.00  0.00    +0.000 A 
ATOM      9  C   UNL     1       1.674   6.607  20.225  0.00  0.00    +0.000 A 
ATOM     10  C   UNL     1       2.557   6.392  19.134  0.00  0.00    +0.000 A 
ENDROOT
BRANCH   3  11
ATOM     11  C   UNL     1       5.253   5.333  15.992  0.00  0.00    +0.000 A 
ATOM     12  C   UNL     1       4.828   4.551  14.903  0.00  0.00    +0.000 A 
ATOM     13  C   UNL     1       5.727   4.114  13.923  0.00  0.00    +0.000 A 
ATOM     14  C   UNL     1       7.074   4.454  14.008  0.00  0.00    +0.000 A 
ATOM     15  C   UNL     1       7.520   5.248  15.059  0.00  0.00    +0.000 A 
ATOM     16  C   UNL     1       6.617   5.687  16.031  0.00  0.00    +0.000 A 
ENDBRANCH   3  11
BRANCH   1  18
ATOM     17  N   UNL     1       1.428   9.019  19.128  0.00  0.00    +0.000 N 
ATOM     18  C   UNL     1       2.407   8.765  18.194  0.00  0.00    +0.000 C 
ATOM     19  O   UNL     1       2.831   9.627  17.437  0.00  0.00    +0.000 OA
ATOM     20  H   UNL     1       1.068   8.278  19.711  0.00  0.00    +0.000 HD
BRANCH  17  21
ATOM     21  C   UNL     1       0.857  10.349  19.322  0.00  0.00    +0.000 C 
BRANCH  21  22
ATOM     22  C   UNL     1      -0.506  10.393  18.651  0.00  0.00    +0.000 A 
ATOM     23  C   UNL     1      -1.480  11.294  19.106  0.00  0.00    +0.000 A 
ATOM     24  C   UNL     1      -2.708  11.399  18.453  0.00  0.00    +0.000 A 
ATOM     25  C   UNL     1      -2.975  10.613  17.334  0.00  0.00    +0.000 A 
ATOM     26  C   UNL     1      -2.022   9.707  16.874  0.00  0.00    +0.000 A 
ATOM     27  C   UNL     1      -0.796   9.591  17.532  0.00  0.00    +0.000 A 
ENDBRANCH  21  22
BRANCH  21  28
ATOM     28  C   UNL     1       0.763  10.721  20.816  0.00  0.00    +0.000 C 
ATOM     29  O   UNL     1       1.246  11.727  21.327  0.00  0.00    +0.000 OA
BRANCH  28  31
ATOM     30  C   UNL     1       0.737   9.362  22.742  0.00  0.00    +0.000 C 
ATOM     31  O   UNL     1       0.124   9.725  21.504  0.00  0.00    +0.000 OA
ENDBRANCH  28  31
ENDBRANCH  21  28
ENDBRANCH  17  21
ENDBRANCH   1  18
TORSDOF 6
ENDMDL
MODEL 8
REMARK VINA RESULT:      -7.4      1.361      3.352
REMARK  Name = 
REMARK  7 active torsions:
REMARK  status: ('A' for Active; 'I' for Inactive)
REMARK    1  A    between atoms: C_1  and  O_2
REMARK    2  A    between atoms: O_2  and  C_3
REMARK    3  A    between atoms: C_3  and  C_5
REMARK    4  A    between atoms: C_5  and  N_6
REMARK    5  A    between atoms: C_5  and  C_25
REMARK    6  A    between atoms: C_7  and  C_9
REMARK    7  A    between atoms: C_11  and  C_12
REMARK                            x       y       z     vdW  Elec       q    Type
REMARK                         _______ _______ _______ _____ _____    ______ ____
ROOT
ATOM      1  C   UNL     1       3.565   5.384  19.545  0.00  0.00    +0.000 A 
ATOM      2  C   UNL     1       3.015   6.604  19.951  0.00  0.00    +0.000 A 
ATOM      3  C   UNL     1       1.693   6.661  20.360  0.00  0.00    +0.000 A 
ATOM      4  N   UNL     1       0.919   5.553  20.369  0.00  0.00    +0.000 NA
ATOM      5  C   UNL     1       1.445   4.366  20.011  0.00  0.00    +0.000 A 
ATOM      6  C   UNL     1       0.621   3.248  20.069  0.00  0.00    +0.000 A 
ATOM      7  C   UNL     1       1.072   1.974  19.720  0.00  0.00    +0.000 A 
ATOM      8  C   UNL     1       2.378   1.804  19.290  0.00  0.00    +0.000 A 
ATOM      9  C   UNL     1       3.224   2.911  19.214  0.00  0.00    +0.000 A 
ATOM     10  C   UNL     1       2.781   4.208  19.582  0.00  0.00    +0.000 A 
ENDROOT
BRANCH   3  11
ATOM     11  C   UNL     1       1.058   7.931  20.777  0.00  0.00    +0.000 A 
ATOM     12  C   UNL     1       1.243   9.117  20.044  0.00  0.00    +0.000 A 
ATOM     13  C   UNL     1       0.694  10.333  20.471  0.00  0.00    +0.000 A 
ATOM     14  C   UNL     1      -0.058  10.388  21.642  0.00  0.00    +0.000 A 
ATOM     15  C   UNL     1      -0.279   9.227  22.374  0.00  0.00    +0.000 A 
ATOM     16  C   UNL     1       0.265   8.015  21.940  0.00  0.00    +0.000 A 
ENDBRANCH   3  11
BRANCH   1  18
ATOM     17  N   UNL     1       5.202   5.524  17.756  0.00  0.00    +0.000 N 
ATOM     18  C   UNL     1       4.997   5.394  19.112  0.00  0.00    +0.000 C 
ATOM     19  O   UNL     1       5.918   5.304  19.910  0.00  0.00    +0.000 OA
ATOM     20  H   UNL     1       4.422   5.555  17.118  0.00  0.00    +0.000 HD
BRANCH  17  21
ATOM     21  C   UNL     1       6.539   5.614  17.173  0.00  0.00    +0.000 C 
BRANCH  21  22
ATOM     22  C   UNL     1       6.470   5.134  15.732  0.00  0.00    +0.000 A 
ATOM     23  C   UNL     1       7.563   5.336  14.876  0.00  0.00    +0.000 A 
ATOM     24  C   UNL     1       7.546   4.834  13.576  0.00  0.00    +0.000 A 
ATOM     25  C   UNL     1       6.442   4.120  13.115  0.00  0.00    +0.000 A 
ATOM     26  C   UNL     1       5.345   3.918  13.950  0.00  0.00    +0.000 A 
ATOM     27  C   UNL     1       5.354   4.428  15.249  0.00  0.00    +0.000 A 
ENDBRANCH  21  22
BRANCH  21  28
ATOM     28  C   UNL     1       7.110   7.044  17.265  0.00  0.00    +0.000 C 
ATOM     29  O   UNL     1       6.735   8.000  16.593  0.00  0.00    +0.000 OA
BRANCH  28  31
ATOM     30  C   UNL     1       8.547   8.379  18.571  0.00  0.00    +0.000 C 
ATOM     31  O   UNL     1       8.149   7.072  18.156  0.00  0.00    +0.000 OA
ENDBRANCH  28  31
ENDBRANCH  21  28
ENDBRANCH  17  21
ENDBRANCH   1  18
TORSDOF 6
ENDMDL
MODEL 9
REMARK VINA RESULT:      -7.3      1.124      3.138
REMARK  Name = 
REMARK  7 active torsions:
REMARK  status: ('A' for Active; 'I' for Inactive)
REMARK    1  A    between atoms: C_1  and  O_2
REMARK    2  A    between atoms: O_2  and  C_3
REMARK    3  A    between atoms: C_3  and  C_5
REMARK    4  A    between atoms: C_5  and  N_6
REMARK    5  A    between atoms: C_5  and  C_25
REMARK    6  A    between atoms: C_7  and  C_9
REMARK    7  A    between atoms: C_11  and  C_12
REMARK                            x       y       z     vdW  Elec       q    Type
REMARK                         _______ _______ _______ _____ _____    ______ ____
ROOT
ATOM      1  C   UNL     1       3.316   6.116  19.103  0.00  0.00    +0.000 A 
ATOM      2  C   UNL     1       2.717   7.287  19.576  0.00  0.00    +0.000 A 
ATOM      3  C   UNL     1       1.611   7.208  20.405  0.00  0.00    +0.000 A 
ATOM      4  N   UNL     1       1.095   6.012  20.765  0.00  0.00    +0.000 NA
ATOM      5  C   UNL     1       1.681   4.876  20.342  0.00  0.00    +0.000 A 
ATOM      6  C   UNL     1       1.136   3.668  20.765  0.00  0.00    +0.000 A 
ATOM      7  C   UNL     1       1.671   2.437  20.384  0.00  0.00    +0.000 A 
ATOM      8  C   UNL     1       2.777   2.401  19.549  0.00  0.00    +0.000 A 
ATOM      9  C   UNL     1       3.339   3.597  19.103  0.00  0.00    +0.000 A 
ATOM     10  C   UNL     1       2.812   4.855  19.497  0.00  0.00    +0.000 A 
ENDROOT
BRANCH   3  11
ATOM     11  C   UNL     1       0.927   8.418  20.914  0.00  0.00    +0.000 A 
ATOM     12  C   UNL     1       0.813   9.579  20.128  0.00  0.00    +0.000 A 
ATOM     13  C   UNL     1       0.221  10.745  20.629  0.00  0.00    +0.000 A 
ATOM     14  C   UNL     1      -0.274  10.775  21.930  0.00  0.00    +0.000 A 
ATOM     15  C   UNL     1      -0.198   9.635  22.723  0.00  0.00    +0.000 A 
ATOM     16  C   UNL     1       0.387   8.472  22.215  0.00  0.00    +0.000 A 
ENDBRANCH   3  11
BRANCH   1  18
ATOM     17  N   UNL     1       5.687   5.771  18.703  0.00  0.00    +0.000 N 
ATOM     18  C   UNL     1       4.504   6.273  18.208  0.00  0.00    +0.000 C 
ATOM     19  O   UNL     1       4.425   6.802  17.109  0.00  0.00    +0.000 OA
ATOM     20  H   UNL     1       5.730   5.377  19.631  0.00  0.00    +0.000 HD
BRANCH  17  21
ATOM     21  C   UNL     1       6.928   5.787  17.933  0.00  0.00    +0.000 C 
BRANCH  21  22
ATOM     22  C   UNL     1       6.688   5.067  16.615  0.00  0.00    +0.000 A 
ATOM     23  C   UNL     1       5.807   3.976  16.566  0.00  0.00    +0.000 A 
ATOM     24  C   UNL     1       5.518   3.355  15.352  0.00  0.00    +0.000 A 
ATOM     25  C   UNL     1       6.097   3.818  14.173  0.00  0.00    +0.000 A 
ATOM     26  C   UNL     1       6.981   4.895  14.206  0.00  0.00    +0.000 A 
ATOM     27  C   UNL     1       7.281   5.513  15.421  0.00  0.00    +0.000 A 
ENDBRANCH  21  22
BRANCH  21  28
ATOM     28  C   UNL     1       7.443   7.223  17.705  0.00  0.00    +0.000 C 
ATOM     29  O   UNL     1       7.113   7.954  16.777  0.00  0.00    +0.000 OA
BRANCH  28  31
ATOM     30  C   UNL     1       8.745   8.914  18.704  0.00  0.00    +0.000 C 
ATOM     31  O   UNL     1       8.382   7.534  18.651  0.00  0.00    +0.000 OA
ENDBRANCH  28  31
ENDBRANCH  21  28
ENDBRANCH  17  21
ENDBRANCH   1  18
TORSDOF 6
ENDMDL
