MODEL 1
REMARK VINA RESULT:      -8.2      0.000      0.000
REMARK  Name = 
REMARK  6 active torsions:
REMARK  status: ('A' for Active; 'I' for Inactive)
REMARK    1  A    between atoms: N_1  and  C_2
REMARK    2  A    between atoms: C_5  and  C_6
REMARK    3  A    between atoms: N_9  and  C_10
REMARK    4  A    between atoms: C_18  and  O_19
REMARK    5  A    between atoms: O_19  and  C_20
REMARK    6  A    between atoms: C_20  and  C_21
REMARK                            x       y       z     vdW  Elec       q    Type
REMARK                         _______ _______ _______ _____ _____    ______ ____
ROOT
ATOM      1  C   UNL     1       0.154  10.720  21.651  0.00  0.00    +0.000 A 
ATOM      2  N   UNL     1       0.761   9.895  22.528  0.00  0.00    +0.000 NA
ATOM      3  C   UNL     1       1.324   8.762  22.036  0.00  0.00    +0.000 A 
ATOM      4  C   UNL     1       1.287   8.401  20.698  0.00  0.00    +0.000 A 
ATOM      5  C   UNL     1       0.619   9.253  19.824  0.00  0.00    +0.000 A 
ATOM      6  C   UNL     1       0.086  10.457  20.277  0.00  0.00    +0.000 A 
ENDROOT
BRANCH   4   7
ATOM      7  C   UNL     1       1.906   7.201  20.192  0.00  0.00    +0.000 A 
ATOM      8  C   UNL     1       2.738   6.982  19.078  0.00  0.00    +0.000 A 
ATOM      9  N   UNL     1       3.135   5.712  18.987  0.00  0.00    +0.000 NA
ATOM     10  N   UNL     1       2.561   5.107  20.042  0.00  0.00    +0.000 N 
ATOM     11  C   UNL     1       1.791   5.958  20.783  0.00  0.00    +0.000 A 
BRANCH  10  12
ATOM     12  C   UNL     1       2.792   3.693  20.325  0.00  0.00    +0.000 C 
ATOM     13  C   UNL     1       3.794   3.049  19.358  0.00  0.00    +0.000 C 
ATOM     14  C   UNL     1       3.157   2.690  18.016  0.00  0.00    +0.000 C 
ATOM     15  N   UNL     1       1.957   1.868  18.184  0.00  0.00    +0.000 NA
ATOM     16  C   UNL     1       0.952   2.546  19.006  0.00  0.00    +0.000 C 
ATOM     17  C   UNL     1       1.492   2.888  20.393  0.00  0.00    +0.000 C 
ATOM     18  H   UNL     1       2.206   0.978  18.609  0.00  0.00    +0.000 HD
ENDBRANCH  10  12
ENDBRANCH   4   7
BRANCH   1  19
ATOM     19  N   UNL     1      -0.368  11.888  22.207  0.00  0.00    +0.000 N 
ATOM     20  H   UNL     1       0.109  12.664  21.755  0.00  0.00    +0.000 HD
ATOM     21  H   UNL     1      -0.243  11.886  23.214  0.00  0.00    +0.000 HD
ENDBRANCH   1  19
BRANCH   6  22
ATOM     22  O   UNL     1      -0.495  11.379  19.439  0.00  0.00    +0.000 OA
BRANCH  22  23
ATOM     23  C   UNL     1      -1.924  11.267  19.363  0.00  0.00    +0.000 C 
BRANCH  23  24
ATOM     24  C   UNL     1      -2.419  10.970  17.969  0.00  0.00    +0.000 A 
ATOM     25  C   UNL     1      -1.777  10.037  17.149  0.00  0.00    +0.000 A 
ATOM     26  C   UNL     1      -2.304   9.719  15.896  0.00  0.00    +0.000 A 
ATOM     27  C   UNL     1      -3.484  10.323  15.465  0.00  0.00    +0.000 A 
ATOM     28 CL   UNL     1      -4.138   9.919  13.926  0.00  0.00    +0.000 Cl
ATOM     29  C   UNL     1      -4.144  11.242  16.276  0.00  0.00    +0.000 A 
ATOM     30  C   UNL     1      -3.616  11.562  17.527  0.00  0.00    +0.000 A 
ENDBRANCH  23  24
ENDBRANCH  22  23
ENDBRANCH   6  22
TORSDOF 6
ENDMDL
MODEL 2
REMARK VINA RESULT:      -8.0      4.266      8.670
REMARK  Name = 
REMARK  6 active torsions:
REMARK  status: ('A' for Active; 'I' for Inactive)
REMARK    1  A    between atoms: N_1  and  C_2
REMARK    2  A    between atoms: C_5  and  C_6
REMARK    3  A    between atoms: N_9  and  C_10
REMARK    4  A    between atoms: C_18  and  O_19
REMARK    5  A    between atoms: O_19  and  C_20
REMARK    6  A    between atoms: C_20  and  C_21
REMARK                            x       y       z     vdW  Elec       q    Type
REMARK                         _______ _______ _______ _____ _____    ______ ____
ROOT
ATOM      1  C   UNL     1       4.346   3.649  19.534  0.00  0.00    +0.000 A 
ATOM      2  N   UNL     1       3.050   3.848  19.849  0.00  0.00    +0.000 NA
ATOM      3  C   UNL     1       2.513   5.060  19.556  0.00  0.00    +0.000 A 
ATOM      4  C   UNL     1       3.225   6.099  18.979  0.00  0.00    +0.000 A 
ATOM      5  C   UNL     1       4.570   5.876  18.700  0.00  0.00    +0.000 A 
ATOM      6  C   UNL     1       5.142   4.626  18.924  0.00  0.00    +0.000 A 
ENDROOT
BRANCH   4   7
ATOM      7  C   UNL     1       2.631   7.374  18.660  0.00  0.00    +0.000 A 
ATOM      8  C   UNL     1       2.871   8.274  17.604  0.00  0.00    +0.000 A 
ATOM      9  N   UNL     1       2.065   9.334  17.653  0.00  0.00    +0.000 NA
ATOM     10  N   UNL     1       1.302   9.124  18.740  0.00  0.00    +0.000 N 
ATOM     11  C   UNL     1       1.624   7.968  19.393  0.00  0.00    +0.000 A 
BRANCH  10  12
ATOM     12  C   UNL     1       0.244  10.057  19.118  0.00  0.00    +0.000 C 
ATOM     13  C   UNL     1       0.639  11.523  18.901  0.00  0.00    +0.000 C 
ATOM     14  C   UNL     1       1.529  12.057  20.023  0.00  0.00    +0.000 C 
ATOM     15  N   UNL     1       0.931  11.843  21.342  0.00  0.00    +0.000 NA
ATOM     16  C   UNL     1       0.674  10.423  21.592  0.00  0.00    +0.000 C 
ATOM     17  C   UNL     1      -0.262   9.824  20.543  0.00  0.00    +0.000 C 
ATOM     18  H   UNL     1       0.063  12.369  21.416  0.00  0.00    +0.000 HD
ENDBRANCH  10  12
ENDBRANCH   4   7
BRANCH   1  19
ATOM     19  N   UNL     1       4.831   2.372  19.818  0.00  0.00    +0.000 N 
ATOM     20  H   UNL     1       5.482   2.473  20.592  0.00  0.00    +0.000 HD
ATOM     21  H   UNL     1       5.265   1.969  18.994  0.00  0.00    +0.000 HD
ENDBRANCH   1  19
BRANCH   6  22
ATOM     22  O   UNL     1       6.437   4.325  18.575  0.00  0.00    +0.000 OA
BRANCH  22  23
ATOM     23  C   UNL     1       6.998   5.226  17.608  0.00  0.00    +0.000 C 
BRANCH  23  24
ATOM     24  C   UNL     1       6.692   4.829  16.186  0.00  0.00    +0.000 A 
ATOM     25  C   UNL     1       7.533   5.192  15.129  0.00  0.00    +0.000 A 
ATOM     26  C   UNL     1       7.273   4.741  13.833  0.00  0.00    +0.000 A 
ATOM     27  C   UNL     1       6.178   3.912  13.594  0.00  0.00    +0.000 A 
ATOM     28 CL   UNL     1       5.868   3.346  11.999  0.00  0.00    +0.000 Cl
ATOM     29  C   UNL     1       5.341   3.528  14.638  0.00  0.00    +0.000 A 
ATOM     30  C   UNL     1       5.599   3.981  15.932  0.00  0.00    +0.000 A 
ENDBRANCH  23  24
ENDBRANCH  22  23
ENDBRANCH   6  22
TORSDOF 6
ENDMDL
MODEL 3
REMARK VINA RESULT:      -7.9      4.179      8.699
REMARK  Name = 
REMARK  6 active torsions:
REMARK  status: ('A' for Active; 'I' for Inactive)
REMARK    1  A    between atoms: N_1  and  C_2
REMARK    2  A    between atoms: C_5  and  C_6
REMARK    3  A    between atoms: N_9  and  C_10
REMARK    4  A    between atoms: C_18  and  O_19
REMARK    5  A    between atoms: O_19  and  C_20
REMARK    6  A    between atoms: C_20  and  C_21
REMARK                            x       y       z     vdW  Elec       q    Type
REMARK                         _______ _______ _______ _____ _____    ______ ____
ROOT
ATOM      1  C   UNL     1       4.355   3.446  19.725  0.00  0.00    +0.000 A 
ATOM      2  N   UNL     1       3.065   3.539  20.104  0.00  0.00    +0.000 NA
ATOM      3  C   UNL     1       2.460   4.747  19.975  0.00  0.00    +0.000 A 
ATOM      4  C   UNL     1       3.099   5.883  19.503  0.00  0.00    +0.000 A 
ATOM      5  C   UNL     1       4.442   5.764  19.157  0.00  0.00    +0.000 A 
ATOM      6  C   UNL     1       5.081   4.528  19.212  0.00  0.00    +0.000 A 
ENDROOT
BRANCH   4   7
ATOM      7  C   UNL     1       2.434   7.154  19.358  0.00  0.00    +0.000 A 
ATOM      8  C   UNL     1       2.387   8.063  18.284  0.00  0.00    +0.000 A 
ATOM      9  N   UNL     1       1.612   9.115  18.548  0.00  0.00    +0.000 NA
ATOM     10  N   UNL     1       1.156   8.891  19.792  0.00  0.00    +0.000 N 
ATOM     11  C   UNL     1       1.644   7.734  20.331  0.00  0.00    +0.000 A 
BRANCH  10  12
ATOM     12  C   UNL     1       0.224   9.812  20.438  0.00  0.00    +0.000 C 
ATOM     13  C   UNL     1      -0.892  10.284  19.497  0.00  0.00    +0.000 C 
ATOM     14  C   UNL     1      -0.425  11.395  18.557  0.00  0.00    +0.000 C 
ATOM     15  N   UNL     1       0.180  12.510  19.287  0.00  0.00    +0.000 NA
ATOM     16  C   UNL     1       1.326  12.069  20.085  0.00  0.00    +0.000 C 
ATOM     17  C   UNL     1       0.932  10.996  21.098  0.00  0.00    +0.000 C 
ATOM     18  H   UNL     1      -0.514  12.944  19.891  0.00  0.00    +0.000 HD
ENDBRANCH  10  12
ENDBRANCH   4   7
BRANCH   1  19
ATOM     19  N   UNL     1       4.912   2.171  19.839  0.00  0.00    +0.000 N 
ATOM     20  H   UNL     1       5.515   2.043  19.030  0.00  0.00    +0.000 HD
ATOM     21  H   UNL     1       4.179   1.471  19.894  0.00  0.00    +0.000 HD
ENDBRANCH   1  19
BRANCH   6  22
ATOM     22  O   UNL     1       6.375   4.338  18.788  0.00  0.00    +0.000 OA
BRANCH  22  23
ATOM     23  C   UNL     1       6.789   5.262  17.771  0.00  0.00    +0.000 C 
BRANCH  23  24
ATOM     24  C   UNL     1       6.580   4.734  16.373  0.00  0.00    +0.000 A 
ATOM     25  C   UNL     1       5.501   3.900  16.061  0.00  0.00    +0.000 A 
ATOM     26  C   UNL     1       5.283   3.494  14.743  0.00  0.00    +0.000 A 
ATOM     27  C   UNL     1       6.135   3.932  13.731  0.00  0.00    +0.000 A 
ATOM     28 CL   UNL     1       5.855   3.441  12.106  0.00  0.00    +0.000 Cl
ATOM     29  C   UNL     1       7.204   4.775  14.023  0.00  0.00    +0.000 A 
ATOM     30  C   UNL     1       7.424   5.179  15.340  0.00  0.00    +0.000 A 
ENDBRANCH  23  24
ENDBRANCH  22  23
ENDBRANCH   6  22
TORSDOF 6
ENDMDL
MODEL 4
REMARK VINA RESULT:      -7.9      0.801      1.251
REMARK  Name = 
REMARK  6 active torsions:
REMARK  status: ('A' for Active; 'I' for Inactive)
REMARK    1  A    between atoms: N_1  and  C_2
REMARK    2  A    between atoms: C_5  and  C_6
REMARK    3  A    between atoms: N_9  and  C_10
REMARK    4  A    between atoms: C_18  and  O_19
REMARK    5  A    between atoms: O_19  and  C_20
REMARK    6  A    between atoms: C_20  and  C_21
REMARK                            x       y       z     vdW  Elec       q    Type
REMARK                         _______ _______ _______ _____ _____    ______ ____
ROOT
ATOM      1  C   UNL     1      -0.231  11.156  21.854  0.00  0.00    +0.000 A 
ATOM      2  N   UNL     1       0.463  10.311  22.642  0.00  0.00    +0.000 NA
ATOM      3  C   UNL     1       1.085   9.264  22.042  0.00  0.00    +0.000 A 
ATOM      4  C   UNL     1       1.025   9.007  20.681  0.00  0.00    +0.000 A 
ATOM      5  C   UNL     1       0.269   9.876  19.900  0.00  0.00    +0.000 A 
ATOM      6  C   UNL     1      -0.330  10.999  20.465  0.00  0.00    +0.000 A 
ENDROOT
BRANCH   4   7
ATOM      7  C   UNL     1       1.707   7.899  20.061  0.00  0.00    +0.000 A 
ATOM      8  C   UNL     1       2.387   7.794  18.834  0.00  0.00    +0.000 A 
ATOM      9  N   UNL     1       2.921   6.585  18.654  0.00  0.00    +0.000 NA
ATOM     10  N   UNL     1       2.587   5.905  19.765  0.00  0.00    +0.000 N 
ATOM     11  C   UNL     1       1.834   6.647  20.630  0.00  0.00    +0.000 A 
BRANCH  10  12
ATOM     12  C   UNL     1       3.030   4.529  19.976  0.00  0.00    +0.000 C 
ATOM     13  C   UNL     1       3.180   3.746  18.665  0.00  0.00    +0.000 C 
ATOM     14  C   UNL     1       1.838   3.246  18.132  0.00  0.00    +0.000 C 
ATOM     15  N   UNL     1       1.099   2.485  19.141  0.00  0.00    +0.000 NA
ATOM     16  C   UNL     1       0.850   3.285  20.342  0.00  0.00    +0.000 C 
ATOM     17  C   UNL     1       2.150   3.776  20.975  0.00  0.00    +0.000 C 
ATOM     18  H   UNL     1       1.618   1.645  19.388  0.00  0.00    +0.000 HD
ENDBRANCH  10  12
ENDBRANCH   4   7
BRANCH   1  19
ATOM     19  N   UNL     1      -0.812  12.237  22.518  0.00  0.00    +0.000 N 
ATOM     20  H   UNL     1      -0.637  12.098  23.510  0.00  0.00    +0.000 HD
ATOM     21  H   UNL     1      -1.802  12.292  22.301  0.00  0.00    +0.000 HD
ENDBRANCH   1  19
BRANCH   6  22
ATOM     22  O   UNL     1      -1.003  11.940  19.723  0.00  0.00    +0.000 OA
BRANCH  22  23
ATOM     23  C   UNL     1      -2.418  11.708  19.646  0.00  0.00    +0.000 C 
BRANCH  23  24
ATOM     24  C   UNL     1      -2.866  11.243  18.283  0.00  0.00    +0.000 A 
ATOM     25  C   UNL     1      -4.077  11.668  17.728  0.00  0.00    +0.000 A 
ATOM     26  C   UNL     1      -4.429  11.290  16.430  0.00  0.00    +0.000 A 
ATOM     27  C   UNL     1      -3.563  10.497  15.679  0.00  0.00    +0.000 A 
ATOM     28 CL   UNL     1      -3.992  10.045  14.076  0.00  0.00    +0.000 Cl
ATOM     29  C   UNL     1      -2.346  10.079  16.211  0.00  0.00    +0.000 A 
ATOM     30  C   UNL     1      -1.996  10.454  17.509  0.00  0.00    +0.000 A 
ENDBRANCH  23  24
ENDBRANCH  22  23
ENDBRANCH   6  22
TORSDOF 6
ENDMDL
MODEL 5
REMARK VINA RESULT:      -7.9      1.318      1.738
REMARK  Name = 
REMARK  6 active torsions:
REMARK  status: ('A' for Active; 'I' for Inactive)
REMARK    1  A    between atoms: N_1  and  C_2
REMARK    2  A    between atoms: C_5  and  C_6
REMARK    3  A    between atoms: N_9  and  C_10
REMARK    4  A    between atoms: C_18  and  O_19
REMARK    5  A    between atoms: O_19  and  C_20
REMARK    6  A    between atoms: C_20  and  C_21
REMARK                            x       y       z     vdW  Elec       q    Type
REMARK                         _______ _______ _______ _____ _____    ______ ____
ROOT
ATOM      1  C   UNL     1      -0.079  10.846  21.824  0.00  0.00    +0.000 A 
ATOM      2  N   UNL     1       0.478   9.913  22.622  0.00  0.00    +0.000 NA
ATOM      3  C   UNL     1       1.086   8.858  22.023  0.00  0.00    +0.000 A 
ATOM      4  C   UNL     1       1.143   8.678  20.650  0.00  0.00    +0.000 A 
ATOM      5  C   UNL     1       0.526   9.638  19.854  0.00  0.00    +0.000 A 
ATOM      6  C   UNL     1      -0.051  10.769  20.425  0.00  0.00    +0.000 A 
ENDROOT
BRANCH   4   7
ATOM      7  C   UNL     1       1.809   7.558  20.033  0.00  0.00    +0.000 A 
ATOM      8  C   UNL     1       2.509   7.447  18.817  0.00  0.00    +0.000 A 
ATOM      9  N   UNL     1       3.016   6.227  18.636  0.00  0.00    +0.000 NA
ATOM     10  N   UNL     1       2.646   5.546  19.735  0.00  0.00    +0.000 N 
ATOM     11  C   UNL     1       1.896   6.299  20.593  0.00  0.00    +0.000 A 
BRANCH  10  12
ATOM     12  C   UNL     1       3.051   4.158  19.942  0.00  0.00    +0.000 C 
ATOM     13  C   UNL     1       3.507   3.473  18.647  0.00  0.00    +0.000 C 
ATOM     14  C   UNL     1       2.330   3.015  17.787  0.00  0.00    +0.000 C 
ATOM     15  N   UNL     1       1.393   2.182  18.544  0.00  0.00    +0.000 NA
ATOM     16  C   UNL     1       0.865   2.892  19.710  0.00  0.00    +0.000 C 
ATOM     17  C   UNL     1       1.979   3.334  20.657  0.00  0.00    +0.000 C 
ATOM     18  H   UNL     1       1.856   1.326  18.842  0.00  0.00    +0.000 HD
ENDBRANCH  10  12
ENDBRANCH   4   7
BRANCH   1  19
ATOM     19  N   UNL     1      -0.651  11.928  22.493  0.00  0.00    +0.000 N 
ATOM     20  H   UNL     1      -0.950  12.587  21.779  0.00  0.00    +0.000 HD
ATOM     21  H   UNL     1       0.016  12.332  23.143  0.00  0.00    +0.000 HD
ENDBRANCH   1  19
BRANCH   6  22
ATOM     22  O   UNL     1      -0.585  11.793  19.679  0.00  0.00    +0.000 OA
BRANCH  22  23
ATOM     23  C   UNL     1      -1.074  11.375  18.396  0.00  0.00    +0.000 C 
BRANCH  23  24
ATOM     24  C   UNL     1      -2.573  11.484  18.272  0.00  0.00    +0.000 A 
ATOM     25  C   UNL     1      -3.352  12.042  19.291  0.00  0.00    +0.000 A 
ATOM     26  C   UNL     1      -4.727  12.208  19.117  0.00  0.00    +0.000 A 
ATOM     27  C   UNL     1      -5.326  11.829  17.917  0.00  0.00    +0.000 A 
ATOM     28 CL   UNL     1      -7.018  12.048  17.700  0.00  0.00    +0.000 Cl
ATOM     29  C   UNL     1      -4.562  11.287  16.887  0.00  0.00    +0.000 A 
ATOM     30  C   UNL     1      -3.189  11.119  17.062  0.00  0.00    +0.000 A 
ENDBRANCH  23  24
ENDBRANCH  22  23
ENDBRANCH   6  22
TORSDOF 6
ENDMDL
MODEL 6
REMARK VINA RESULT:      -7.8      1.798      2.628
REMARK  Name = 
REMARK  6 active torsions:
REMARK  status: ('A' for Active; 'I' for Inactive)
REMARK    1  A    between atoms: N_1  and  C_2
REMARK    2  A    between atoms: C_5  and  C_6
REMARK    3  A    between atoms: N_9  and  C_10
REMARK    4  A    between atoms: C_18  and  O_19
REMARK    5  A    between atoms: O_19  and  C_20
REMARK    6  A    between atoms: C_20  and  C_21
REMARK                            x       y       z     vdW  Elec       q    Type
REMARK                         _______ _______ _______ _____ _____    ______ ____
ROOT
ATOM      1  C   UNL     1      -0.090  11.014  21.743  0.00  0.00    +0.000 A 
ATOM      2  N   UNL     1       0.408  10.136  22.637  0.00  0.00    +0.000 NA
ATOM      3  C   UNL     1       0.981   9.005  22.152  0.00  0.00    +0.000 A 
ATOM      4  C   UNL     1       1.058   8.696  20.803  0.00  0.00    +0.000 A 
ATOM      5  C   UNL     1       0.501   9.604  19.907  0.00  0.00    +0.000 A 
ATOM      6  C   UNL     1      -0.037  10.807  20.358  0.00  0.00    +0.000 A 
ENDROOT
BRANCH   4   7
ATOM      7  C   UNL     1       1.686   7.497  20.307  0.00  0.00    +0.000 A 
ATOM      8  C   UNL     1       1.677   6.175  20.790  0.00  0.00    +0.000 A 
ATOM      9  N   UNL     1       2.361   5.346  20.002  0.00  0.00    +0.000 NA
ATOM     10  N   UNL     1       2.814   6.128  19.007  0.00  0.00    +0.000 N 
ATOM     11  C   UNL     1       2.454   7.437  19.162  0.00  0.00    +0.000 A 
BRANCH  10  12
ATOM     12  C   UNL     1       3.586   5.577  17.897  0.00  0.00    +0.000 C 
ATOM     13  C   UNL     1       3.508   4.047  17.822  0.00  0.00    +0.000 C 
ATOM     14  C   UNL     1       4.442   3.369  18.824  0.00  0.00    +0.000 C 
ATOM     15  N   UNL     1       5.818   3.852  18.701  0.00  0.00    +0.000 NA
ATOM     16  C   UNL     1       5.900   5.300  18.901  0.00  0.00    +0.000 C 
ATOM     17  C   UNL     1       5.037   6.060  17.894  0.00  0.00    +0.000 C 
ATOM     18  H   UNL     1       6.188   3.609  17.785  0.00  0.00    +0.000 HD
ENDBRANCH  10  12
ENDBRANCH   4   7
BRANCH   1  19
ATOM     19  N   UNL     1      -0.626  12.177  22.296  0.00  0.00    +0.000 N 
ATOM     20  H   UNL     1      -1.097  12.669  21.541  0.00  0.00    +0.000 HD
ATOM     21  H   UNL     1       0.106  12.732  22.726  0.00  0.00    +0.000 HD
ENDBRANCH   1  19
BRANCH   6  22
ATOM     22  O   UNL     1      -0.509  11.779  19.509  0.00  0.00    +0.000 OA
BRANCH  22  23
ATOM     23  C   UNL     1      -1.056  11.260  18.287  0.00  0.00    +0.000 C 
BRANCH  23  24
ATOM     24  C   UNL     1      -2.556  11.394  18.209  0.00  0.00    +0.000 A 
ATOM     25  C   UNL     1      -3.291  11.986  19.240  0.00  0.00    +0.000 A 
ATOM     26  C   UNL     1      -4.669  12.174  19.106  0.00  0.00    +0.000 A 
ATOM     27  C   UNL     1      -5.312  11.784  17.932  0.00  0.00    +0.000 A 
ATOM     28 CL   UNL     1      -7.006  12.030  17.764  0.00  0.00    +0.000 Cl
ATOM     29  C   UNL     1      -4.591  11.209  16.889  0.00  0.00    +0.000 A 
ATOM     30  C   UNL     1      -3.215  11.018  17.025  0.00  0.00    +0.000 A 
ENDBRANCH  23  24
ENDBRANCH  22  23
ENDBRANCH   6  22
TORSDOF 6
ENDMDL
MODEL 7
REMARK VINA RESULT:      -7.8      4.007      8.553
REMARK  Name = 
REMARK  6 active torsions:
REMARK  status: ('A' for Active; 'I' for Inactive)
REMARK    1  A    between atoms: N_1  and  C_2
REMARK    2  A    between atoms: C_5  and  C_6
REMARK    3  A    between atoms: N_9  and  C_10
REMARK    4  A    between atoms: C_18  and  O_19
REMARK    5  A    between atoms: O_19  and  C_20
REMARK    6  A    between atoms: C_20  and  C_21
REMARK                            x       y       z     vdW  Elec       q    Type
REMARK                         _______ _______ _______ _____ _____    ______ ____
ROOT
ATOM      1  C   UNL     1       2.742   4.186  20.568  0.00  0.00    +0.000 A 
ATOM      2  N   UNL     1       1.728   4.918  21.072  0.00  0.00    +0.000 NA
ATOM      3  C   UNL     1       1.524   6.153  20.546  0.00  0.00    +0.000 A 
ATOM      4  C   UNL     1       2.310   6.704  19.546  0.00  0.00    +0.000 A 
ATOM      5  C   UNL     1       3.372   5.939  19.073  0.00  0.00    +0.000 A 
ATOM      6  C   UNL     1       3.575   4.643  19.539  0.00  0.00    +0.000 A 
ENDROOT
BRANCH   4   7
ATOM      7  C   UNL     1       2.067   8.011  18.988  0.00  0.00    +0.000 A 
ATOM      8  C   UNL     1       2.548   8.628  17.818  0.00  0.00    +0.000 A 
ATOM      9  N   UNL     1       2.038   9.847  17.644  0.00  0.00    +0.000 NA
ATOM     10  N   UNL     1       1.224  10.022  18.700  0.00  0.00    +0.000 N 
ATOM     11  C   UNL     1       1.229   8.953  19.551  0.00  0.00    +0.000 A 
BRANCH  10  12
ATOM     12  C   UNL     1       0.431  11.238  18.855  0.00  0.00    +0.000 C 
ATOM     13  C   UNL     1       1.295  12.502  18.957  0.00  0.00    +0.000 C 
ATOM     14  C   UNL     1       1.882  12.691  20.355  0.00  0.00    +0.000 C 
ATOM     15  N   UNL     1       0.849  12.652  21.392  0.00  0.00    +0.000 NA
ATOM     16  C   UNL     1       0.112  11.387  21.368  0.00  0.00    +0.000 C 
ATOM     17  C   UNL     1      -0.560  11.148  20.017  0.00  0.00    +0.000 C 
ATOM     18  H   UNL     1       0.204  13.429  21.265  0.00  0.00    +0.000 HD
ENDBRANCH  10  12
ENDBRANCH   4   7
BRANCH   1  19
ATOM     19  N   UNL     1       2.876   2.911  21.117  0.00  0.00    +0.000 N 
ATOM     20  H   UNL     1       2.750   3.010  22.121  0.00  0.00    +0.000 HD
ATOM     21  H   UNL     1       3.780   2.517  20.875  0.00  0.00    +0.000 HD
ENDBRANCH   1  19
BRANCH   6  22
ATOM     22  O   UNL     1       4.547   3.812  19.035  0.00  0.00    +0.000 OA
BRANCH  22  23
ATOM     23  C   UNL     1       5.740   4.500  18.630  0.00  0.00    +0.000 C 
BRANCH  23  24
ATOM     24  C   UNL     1       6.006   4.398  17.149  0.00  0.00    +0.000 A 
ATOM     25  C   UNL     1       5.005   4.013  16.252  0.00  0.00    +0.000 A 
ATOM     26  C   UNL     1       5.254   4.007  14.878  0.00  0.00    +0.000 A 
ATOM     27  C   UNL     1       6.502   4.400  14.397  0.00  0.00    +0.000 A 
ATOM     28 CL   UNL     1       6.801   4.406  12.703  0.00  0.00    +0.000 Cl
ATOM     29  C   UNL     1       7.504   4.801  15.276  0.00  0.00    +0.000 A 
ATOM     30  C   UNL     1       7.256   4.804  16.649  0.00  0.00    +0.000 A 
ENDBRANCH  23  24
ENDBRANCH  22  23
ENDBRANCH   6  22
TORSDOF 6
ENDMDL
MODEL 8
REMARK VINA RESULT:      -7.8      6.708      9.764
REMARK  Name = 
REMARK  6 active torsions:
REMARK  status: ('A' for Active; 'I' for Inactive)
REMARK    1  A    between atoms: N_1  and  C_2
REMARK    2  A    between atoms: C_5  and  C_6
REMARK    3  A    between atoms: N_9  and  C_10
REMARK    4  A    between atoms: C_18  and  O_19
REMARK    5  A    between atoms: O_19  and  C_20
REMARK    6  A    between atoms: C_20  and  C_21
REMARK                            x       y       z     vdW  Elec       q    Type
REMARK                         _______ _______ _______ _____ _____    ______ ____
ROOT
ATOM      1  C   UNL     1       6.907   5.340  18.062  0.00  0.00    +0.000 A 
ATOM      2  N   UNL     1       7.929   5.516  18.923  0.00  0.00    +0.000 NA
ATOM      3  C   UNL     1       8.436   6.769  19.047  0.00  0.00    +0.000 A 
ATOM      4  C   UNL     1       7.979   7.860  18.324  0.00  0.00    +0.000 A 
ATOM      5  C   UNL     1       6.949   7.639  17.415  0.00  0.00    +0.000 A 
ATOM      6  C   UNL     1       6.357   6.384  17.306  0.00  0.00    +0.000 A 
ENDROOT
BRANCH   4   7
ATOM      7  C   UNL     1       8.520   9.187  18.483  0.00  0.00    +0.000 A 
ATOM      8  C   UNL     1       9.385   9.730  19.452  0.00  0.00    +0.000 A 
ATOM      9  N   UNL     1       9.679  11.007  19.208  0.00  0.00    +0.000 NA
ATOM     10  N   UNL     1       9.004  11.295  18.081  0.00  0.00    +0.000 N 
ATOM     11  C   UNL     1       8.271  10.237  17.621  0.00  0.00    +0.000 A 
BRANCH  10  12
ATOM     12  C   UNL     1       9.101  12.609  17.451  0.00  0.00    +0.000 C 
ATOM     13  C   UNL     1      10.551  13.064  17.246  0.00  0.00    +0.000 C 
ATOM     14  C   UNL     1      11.173  13.618  18.527  0.00  0.00    +0.000 C 
ATOM     15  N   UNL     1      10.350  14.673  19.122  0.00  0.00    +0.000 NA
ATOM     16  C   UNL     1       9.002  14.192  19.433  0.00  0.00    +0.000 C 
ATOM     17  C   UNL     1       8.284  13.673  18.188  0.00  0.00    +0.000 C 
ATOM     18  H   UNL     1      10.295  15.466  18.487  0.00  0.00    +0.000 HD
ENDBRANCH  10  12
ENDBRANCH   4   7
BRANCH   1  19
ATOM     19  N   UNL     1       6.398   4.042  18.008  0.00  0.00    +0.000 N 
ATOM     20  H   UNL     1       7.128   3.459  17.607  0.00  0.00    +0.000 HD
ATOM     21  H   UNL     1       5.541   4.022  17.466  0.00  0.00    +0.000 HD
ENDBRANCH   1  19
BRANCH   6  22
ATOM     22  O   UNL     1       5.274   6.137  16.497  0.00  0.00    +0.000 OA
BRANCH  22  23
ATOM     23  C   UNL     1       4.070   6.787  16.932  0.00  0.00    +0.000 C 
BRANCH  23  24
ATOM     24  C   UNL     1       3.242   5.933  17.860  0.00  0.00    +0.000 A 
ATOM     25  C   UNL     1       2.904   4.616  17.533  0.00  0.00    +0.000 A 
ATOM     26  C   UNL     1       2.208   3.820  18.446  0.00  0.00    +0.000 A 
ATOM     27  C   UNL     1       1.860   4.335  19.693  0.00  0.00    +0.000 A 
ATOM     28 CL   UNL     1       1.016   3.348  20.820  0.00  0.00    +0.000 Cl
ATOM     29  C   UNL     1       2.203   5.639  20.039  0.00  0.00    +0.000 A 
ATOM     30  C   UNL     1       2.896   6.436  19.127  0.00  0.00    +0.000 A 
ENDBRANCH  23  24
ENDBRANCH  22  23
ENDBRANCH   6  22
TORSDOF 6
ENDMDL
MODEL 9
REMARK VINA RESULT:      -7.8      6.465      9.633
REMARK  Name = 
REMARK  6 active torsions:
REMARK  status: ('A' for Active; 'I' for Inactive)
REMARK    1  A    between atoms: N_1  and  C_2
REMARK    2  A    between atoms: C_5  and  C_6
REMARK    3  A    between atoms: N_9  and  C_10
REMARK    4  A    between atoms: C_18  and  O_19
REMARK    5  A    between atoms: O_19  and  C_20
REMARK    6  A    between atoms: C_20  and  C_21
REMARK                            x       y       z     vdW  Elec       q    Type
REMARK                         _______ _______ _______ _____ _____    ______ ____
ROOT
ATOM      1  C   UNL     1       6.838   5.333  18.112  0.00  0.00    +0.000 A 
ATOM      2  N   UNL     1       7.904   5.562  18.905  0.00  0.00    +0.000 NA
ATOM      3  C   UNL     1       8.397   6.826  18.943  0.00  0.00    +0.000 A 
ATOM      4  C   UNL     1       7.883   7.877  18.199  0.00  0.00    +0.000 A 
ATOM      5  C   UNL     1       6.807   7.600  17.361  0.00  0.00    +0.000 A 
ATOM      6  C   UNL     1       6.231   6.332  17.342  0.00  0.00    +0.000 A 
ENDROOT
BRANCH   4   7
ATOM      7  C   UNL     1       8.410   9.217  18.267  0.00  0.00    +0.000 A 
ATOM      8  C   UNL     1       8.193  10.344  17.452  0.00  0.00    +0.000 A 
ATOM      9  N   UNL     1       8.850  11.418  17.891  0.00  0.00    +0.000 NA
ATOM     10  N   UNL     1       9.494  10.988  18.990  0.00  0.00    +0.000 N 
ATOM     11  C   UNL     1       9.279   9.663  19.242  0.00  0.00    +0.000 A 
BRANCH  10  12
ATOM     12  C   UNL     1      10.304  11.895  19.800  0.00  0.00    +0.000 C 
ATOM     13  C   UNL     1       9.883  11.911  21.275  0.00  0.00    +0.000 C 
ATOM     14  C   UNL     1       8.649  12.778  21.516  0.00  0.00    +0.000 C 
ATOM     15  N   UNL     1       8.818  14.131  20.984  0.00  0.00    +0.000 NA
ATOM     16  C   UNL     1       9.094  14.111  19.545  0.00  0.00    +0.000 C 
ATOM     17  C   UNL     1      10.355  13.311  19.222  0.00  0.00    +0.000 C 
ATOM     18  H   UNL     1       9.576  14.602  21.473  0.00  0.00    +0.000 HD
ENDBRANCH  10  12
ENDBRANCH   4   7
BRANCH   1  19
ATOM     19  N   UNL     1       6.349   4.026  18.147  0.00  0.00    +0.000 N 
ATOM     20  H   UNL     1       6.663   3.620  19.024  0.00  0.00    +0.000 HD
ATOM     21  H   UNL     1       6.675   3.507  17.338  0.00  0.00    +0.000 HD
ENDBRANCH   1  19
BRANCH   6  22
ATOM     22  O   UNL     1       5.108   6.034  16.607  0.00  0.00    +0.000 OA
BRANCH  22  23
ATOM     23  C   UNL     1       3.902   6.598  17.144  0.00  0.00    +0.000 C 
BRANCH  23  24
ATOM     24  C   UNL     1       3.212   5.686  18.129  0.00  0.00    +0.000 A 
ATOM     25  C   UNL     1       2.988   6.075  19.453  0.00  0.00    +0.000 A 
ATOM     26  C   UNL     1       2.274   5.247  20.320  0.00  0.00    +0.000 A 
ATOM     27  C   UNL     1       1.768   4.031  19.861  0.00  0.00    +0.000 A 
ATOM     28 CL   UNL     1       0.876   3.019  20.928  0.00  0.00    +0.000 Cl
ATOM     29  C   UNL     1       1.968   3.637  18.541  0.00  0.00    +0.000 A 
ATOM     30  C   UNL     1       2.685   4.463  17.675  0.00  0.00    +0.000 A 
ENDBRANCH  23  24
ENDBRANCH  22  23
ENDBRANCH   6  22
TORSDOF 6
ENDMDL
