MODEL 1
REMARK VINA RESULT:      -8.0      0.000      0.000
REMARK  Name = 
REMARK  10 active torsions:
REMARK  status: ('A' for Active; 'I' for Inactive)
REMARK    1  A    between atoms: C_1  and  C_2
REMARK    2  A    between atoms: C_2  and  N_3
REMARK    3  A    between atoms: C_4  and  C_6
REMARK    4  A    between atoms: C_6  and  C_7
REMARK    5  A    between atoms: C_7  and  C_8
REMARK    6  A    between atoms: C_9  and  C_10
REMARK    7  A    between atoms: N_12  and  C_13
REMARK    8  A    between atoms: C_17  and  C_18
REMARK    9  A    between atoms: C_20  and  O_21
REMARK   10  A    between atoms: O_21  and  C_22
REMARK                            x       y       z     vdW  Elec       q    Type
REMARK                         _______ _______ _______ _____ _____    ______ ____
ROOT
ATOM      1  C   UNL     1       4.527   5.644  17.650  0.00  0.00    +0.000 A 
ATOM      2  C   UNL     1       5.157   6.913  17.454  0.00  0.00    +0.000 A 
ATOM      3  C   UNL     1       6.576   7.228  17.131  0.00  0.00    +0.000 C 
ATOM      4  N   UNL     1       4.303   7.929  17.586  0.00  0.00    +0.000 NA
ATOM      5  N   UNL     1       3.174   7.369  18.073  0.00  0.00    +0.000 N 
ATOM      6  C   UNL     1       3.229   5.979  18.054  0.00  0.00    +0.000 A 
ENDROOT
BRANCH   5   7
ATOM      7  C   UNL     1       2.137   8.201  18.578  0.00  0.00    +0.000 A 
ATOM      8  C   UNL     1       1.451   9.057  17.711  0.00  0.00    +0.000 A 
ATOM      9  C   UNL     1       0.445   9.885  18.207  0.00  0.00    +0.000 A 
ATOM     10  C   UNL     1       0.157   9.905  19.574  0.00  0.00    +0.000 A 
ATOM     11  C   UNL     1       0.860   9.080  20.457  0.00  0.00    +0.000 A 
ATOM     12  C   UNL     1       0.627   9.148  21.939  0.00  0.00    +0.000 C 
ATOM     13  C   UNL     1       1.833   8.212  19.953  0.00  0.00    +0.000 A 
ENDBRANCH   5   7
BRANCH   1  14
ATOM     14  C   UNL     1       5.196   4.309  17.456  0.00  0.00    +0.000 C 
BRANCH  14  15
ATOM     15  C   UNL     1       5.043   3.682  16.078  0.00  0.00    +0.000 C 
BRANCH  15  17
ATOM     16  N   UNL     1       5.849   3.852  13.830  0.00  0.00    +0.000 N 
ATOM     17  C   UNL     1       6.197   4.004  15.156  0.00  0.00    +0.000 C 
ATOM     18  O   UNL     1       7.305   4.355  15.540  0.00  0.00    +0.000 OA
ATOM     19  H   UNL     1       4.899   3.588  13.595  0.00  0.00    +0.000 HD
BRANCH  16  21
ATOM     20  C   UNL     1       6.699   2.974  11.712  0.00  0.00    +0.000 C 
ATOM     21  C   UNL     1       6.782   4.078  12.748  0.00  0.00    +0.000 C 
ENDBRANCH  16  21
ENDBRANCH  15  17
ENDBRANCH  14  15
ENDBRANCH   1  14
BRANCH   6  22
ATOM     22  O   UNL     1       2.100   5.300  18.292  0.00  0.00    +0.000 OA
BRANCH  22  23
ATOM     23  C   UNL     1       1.924   4.412  19.318  0.00  0.00    +0.000 A 
ATOM     24  C   UNL     1       2.171   4.715  20.654  0.00  0.00    +0.000 A 
ATOM     25  C   UNL     1       2.073   3.711  21.616  0.00  0.00    +0.000 A 
ATOM     26  C   UNL     1       1.687   2.420  21.244  0.00  0.00    +0.000 A 
ATOM     27  C   UNL     1       1.383   2.133  19.915  0.00  0.00    +0.000 A 
ATOM     28  C   UNL     1       1.492   3.135  18.951  0.00  0.00    +0.000 A 
ENDBRANCH  22  23
ENDBRANCH   6  22
TORSDOF 7
ENDMDL
MODEL 2
REMARK VINA RESULT:      -8.0      0.901      1.320
REMARK  Name = 
REMARK  10 active torsions:
REMARK  status: ('A' for Active; 'I' for Inactive)
REMARK    1  A    between atoms: C_1  and  C_2
REMARK    2  A    between atoms: C_2  and  N_3
REMARK    3  A    between atoms: C_4  and  C_6
REMARK    4  A    between atoms: C_6  and  C_7
REMARK    5  A    between atoms: C_7  and  C_8
REMARK    6  A    between atoms: C_9  and  C_10
REMARK    7  A    between atoms: N_12  and  C_13
REMARK    8  A    between atoms: C_17  and  C_18
REMARK    9  A    between atoms: C_20  and  O_21
REMARK   10  A    between atoms: O_21  and  C_22
REMARK                            x       y       z     vdW  Elec       q    Type
REMARK                         _______ _______ _______ _____ _____    ______ ____
ROOT
ATOM      1  C   UNL     1       4.903   5.491  17.245  0.00  0.00    +0.000 A 
ATOM      2  C   UNL     1       5.613   6.727  17.365  0.00  0.00    +0.000 A 
ATOM      3  C   UNL     1       7.073   6.996  17.254  0.00  0.00    +0.000 C 
ATOM      4  N   UNL     1       4.802   7.757  17.605  0.00  0.00    +0.000 NA
ATOM      5  N   UNL     1       3.598   7.196  17.857  0.00  0.00    +0.000 N 
ATOM      6  C   UNL     1       3.586   5.834  17.573  0.00  0.00    +0.000 A 
ENDROOT
BRANCH   5   7
ATOM      7  C   UNL     1       2.553   7.989  18.408  0.00  0.00    +0.000 A 
ATOM      8  C   UNL     1       1.897   8.926  17.603  0.00  0.00    +0.000 A 
ATOM      9  C   UNL     1       0.883   9.715  18.145  0.00  0.00    +0.000 A 
ATOM     10  C   UNL     1       0.558   9.614  19.500  0.00  0.00    +0.000 A 
ATOM     11  C   UNL     1       1.232   8.707  20.324  0.00  0.00    +0.000 A 
ATOM     12  C   UNL     1       0.960   8.644  21.799  0.00  0.00    +0.000 C 
ATOM     13  C   UNL     1       2.213   7.879  19.770  0.00  0.00    +0.000 A 
ENDBRANCH   5   7
BRANCH   1  14
ATOM     14  C   UNL     1       5.523   4.173  16.863  0.00  0.00    +0.000 C 
BRANCH  14  15
ATOM     15  C   UNL     1       6.848   4.252  16.119  0.00  0.00    +0.000 C 
BRANCH  15  17
ATOM     16  N   UNL     1       6.397   3.410  13.923  0.00  0.00    +0.000 N 
ATOM     17  C   UNL     1       6.676   4.551  14.647  0.00  0.00    +0.000 C 
ATOM     18  O   UNL     1       6.773   5.668  14.158  0.00  0.00    +0.000 OA
ATOM     19  H   UNL     1       6.301   2.526  14.409  0.00  0.00    +0.000 HD
BRANCH  16  21
ATOM     20  C   UNL     1       4.737   3.432  12.128  0.00  0.00    +0.000 C 
ATOM     21  C   UNL     1       6.209   3.423  12.488  0.00  0.00    +0.000 C 
ENDBRANCH  16  21
ENDBRANCH  15  17
ENDBRANCH  14  15
ENDBRANCH   1  14
BRANCH   6  22
ATOM     22  O   UNL     1       2.405   5.203  17.560  0.00  0.00    +0.000 OA
BRANCH  22  23
ATOM     23  C   UNL     1       2.046   4.200  18.417  0.00  0.00    +0.000 A 
ATOM     24  C   UNL     1       2.066   2.849  18.078  0.00  0.00    +0.000 A 
ATOM     25  C   UNL     1       1.573   1.908  18.981  0.00  0.00    +0.000 A 
ATOM     26  C   UNL     1       1.104   2.316  20.233  0.00  0.00    +0.000 A 
ATOM     27  C   UNL     1       1.140   3.661  20.592  0.00  0.00    +0.000 A 
ATOM     28  C   UNL     1       1.622   4.604  19.686  0.00  0.00    +0.000 A 
ENDBRANCH  22  23
ENDBRANCH   6  22
TORSDOF 7
ENDMDL
MODEL 3
REMARK VINA RESULT:      -7.9      2.823      5.983
REMARK  Name = 
REMARK  10 active torsions:
REMARK  status: ('A' for Active; 'I' for Inactive)
REMARK    1  A    between atoms: C_1  and  C_2
REMARK    2  A    between atoms: C_2  and  N_3
REMARK    3  A    between atoms: C_4  and  C_6
REMARK    4  A    between atoms: C_6  and  C_7
REMARK    5  A    between atoms: C_7  and  C_8
REMARK    6  A    between atoms: C_9  and  C_10
REMARK    7  A    between atoms: N_12  and  C_13
REMARK    8  A    between atoms: C_17  and  C_18
REMARK    9  A    between atoms: C_20  and  O_21
REMARK   10  A    between atoms: O_21  and  C_22
REMARK                            x       y       z     vdW  Elec       q    Type
REMARK                         _______ _______ _______ _____ _____    ______ ____
ROOT
ATOM      1  C   UNL     1       6.036   6.437  18.027  0.00  0.00    +0.000 A 
ATOM      2  C   UNL     1       6.742   5.437  18.767  0.00  0.00    +0.000 A 
ATOM      3  C   UNL     1       8.204   5.290  19.007  0.00  0.00    +0.000 C 
ATOM      4  N   UNL     1       5.924   4.531  19.304  0.00  0.00    +0.000 NA
ATOM      5  N   UNL     1       4.715   4.792  18.757  0.00  0.00    +0.000 N 
ATOM      6  C   UNL     1       4.711   5.985  18.040  0.00  0.00    +0.000 A 
ENDROOT
BRANCH   5   7
ATOM      7  C   UNL     1       3.657   3.854  18.909  0.00  0.00    +0.000 A 
ATOM      8  C   UNL     1       3.152   3.192  17.786  0.00  0.00    +0.000 A 
ATOM      9  C   UNL     1       2.104   2.283  17.930  0.00  0.00    +0.000 A 
ATOM     10  C   UNL     1       1.519   2.073  19.181  0.00  0.00    +0.000 A 
ATOM     11  C   UNL     1       1.990   2.757  20.306  0.00  0.00    +0.000 A 
ATOM     12  C   UNL     1       1.322   2.612  21.643  0.00  0.00    +0.000 C 
ATOM     13  C   UNL     1       3.075   3.629  20.171  0.00  0.00    +0.000 A 
ENDBRANCH   5   7
BRANCH   1  14
ATOM     14  C   UNL     1       6.667   7.653  17.401  0.00  0.00    +0.000 C 
BRANCH  14  15
ATOM     15  C   UNL     1       8.105   7.940  17.807  0.00  0.00    +0.000 C 
BRANCH  15  17
ATOM     16  N   UNL     1       9.136   9.506  19.296  0.00  0.00    +0.000 N 
ATOM     17  C   UNL     1       8.330   9.387  18.183  0.00  0.00    +0.000 C 
ATOM     18  O   UNL     1       7.854  10.336  17.575  0.00  0.00    +0.000 OA
ATOM     19  H   UNL     1       9.516   8.670  19.723  0.00  0.00    +0.000 HD
BRANCH  16  21
ATOM     20  C   UNL     1      10.723  11.364  19.215  0.00  0.00    +0.000 C 
ATOM     21  C   UNL     1       9.485  10.786  19.873  0.00  0.00    +0.000 C 
ENDBRANCH  16  21
ENDBRANCH  15  17
ENDBRANCH  14  15
ENDBRANCH   1  14
BRANCH   6  22
ATOM     22  O   UNL     1       3.532   6.477  17.641  0.00  0.00    +0.000 OA
BRANCH  22  23
ATOM     23  C   UNL     1       2.793   7.394  18.336  0.00  0.00    +0.000 A 
ATOM     24  C   UNL     1       2.378   7.215  19.653  0.00  0.00    +0.000 A 
ATOM     25  C   UNL     1       1.531   8.154  20.240  0.00  0.00    +0.000 A 
ATOM     26  C   UNL     1       1.139   9.288  19.523  0.00  0.00    +0.000 A 
ATOM     27  C   UNL     1       1.602   9.494  18.226  0.00  0.00    +0.000 A 
ATOM     28  C   UNL     1       2.440   8.550  17.635  0.00  0.00    +0.000 A 
ENDBRANCH  22  23
ENDBRANCH   6  22
TORSDOF 7
ENDMDL
MODEL 4
REMARK VINA RESULT:      -7.9      1.936      4.233
REMARK  Name = 
REMARK  10 active torsions:
REMARK  status: ('A' for Active; 'I' for Inactive)
REMARK    1  A    between atoms: C_1  and  C_2
REMARK    2  A    between atoms: C_2  and  N_3
REMARK    3  A    between atoms: C_4  and  C_6
REMARK    4  A    between atoms: C_6  and  C_7
REMARK    5  A    between atoms: C_7  and  C_8
REMARK    6  A    between atoms: C_9  and  C_10
REMARK    7  A    between atoms: N_12  and  C_13
REMARK    8  A    between atoms: C_17  and  C_18
REMARK    9  A    between atoms: C_20  and  O_21
REMARK   10  A    between atoms: O_21  and  C_22
REMARK                            x       y       z     vdW  Elec       q    Type
REMARK                         _______ _______ _______ _____ _____    ______ ____
ROOT
ATOM      1  C   UNL     1       3.367   4.031  19.843  0.00  0.00    +0.000 A 
ATOM      2  C   UNL     1       2.395   4.218  20.876  0.00  0.00    +0.000 A 
ATOM      3  C   UNL     1       1.820   3.229  21.828  0.00  0.00    +0.000 C 
ATOM      4  N   UNL     1       1.979   5.483  20.959  0.00  0.00    +0.000 NA
ATOM      5  N   UNL     1       2.497   6.087  19.866  0.00  0.00    +0.000 N 
ATOM      6  C   UNL     1       3.410   5.275  19.201  0.00  0.00    +0.000 A 
ENDROOT
BRANCH   5   7
ATOM      7  C   UNL     1       2.041   7.383  19.496  0.00  0.00    +0.000 A 
ATOM      8  C   UNL     1       2.241   7.842  18.191  0.00  0.00    +0.000 A 
ATOM      9  C   UNL     1       1.809   9.117  17.830  0.00  0.00    +0.000 A 
ATOM     10  C   UNL     1       1.228   9.960  18.781  0.00  0.00    +0.000 A 
ATOM     11  C   UNL     1       1.055   9.527  20.099  0.00  0.00    +0.000 A 
ATOM     12  C   UNL     1       0.513  10.445  21.156  0.00  0.00    +0.000 C 
ATOM     13  C   UNL     1       1.441   8.229  20.448  0.00  0.00    +0.000 A 
ENDBRANCH   5   7
BRANCH   1  14
ATOM     14  C   UNL     1       4.107   2.747  19.577  0.00  0.00    +0.000 C 
BRANCH  14  15
ATOM     15  C   UNL     1       3.651   1.956  18.360  0.00  0.00    +0.000 C 
BRANCH  15  17
ATOM     16  N   UNL     1       4.894   3.101  16.663  0.00  0.00    +0.000 N 
ATOM     17  C   UNL     1       3.623   2.788  17.097  0.00  0.00    +0.000 C 
ATOM     18  O   UNL     1       2.597   3.141  16.531  0.00  0.00    +0.000 OA
ATOM     19  H   UNL     1       5.693   2.742  17.172  0.00  0.00    +0.000 HD
BRANCH  16  21
ATOM     20  C   UNL     1       6.618   4.207  15.328  0.00  0.00    +0.000 C 
ATOM     21  C   UNL     1       5.140   3.907  15.487  0.00  0.00    +0.000 C 
ENDBRANCH  16  21
ENDBRANCH  15  17
ENDBRANCH  14  15
ENDBRANCH   1  14
BRANCH   6  22
ATOM     22  O   UNL     1       4.163   5.826  18.242  0.00  0.00    +0.000 OA
BRANCH  22  23
ATOM     23  C   UNL     1       5.506   6.066  18.344  0.00  0.00    +0.000 A 
ATOM     24  C   UNL     1       6.338   5.429  19.261  0.00  0.00    +0.000 A 
ATOM     25  C   UNL     1       7.671   5.822  19.367  0.00  0.00    +0.000 A 
ATOM     26  C   UNL     1       8.176   6.819  18.527  0.00  0.00    +0.000 A 
ATOM     27  C   UNL     1       7.357   7.414  17.571  0.00  0.00    +0.000 A 
ATOM     28  C   UNL     1       6.021   7.029  17.472  0.00  0.00    +0.000 A 
ENDBRANCH  22  23
ENDBRANCH   6  22
TORSDOF 7
ENDMDL
MODEL 5
REMARK VINA RESULT:      -7.8      2.575      6.831
REMARK  Name = 
REMARK  10 active torsions:
REMARK  status: ('A' for Active; 'I' for Inactive)
REMARK    1  A    between atoms: C_1  and  C_2
REMARK    2  A    between atoms: C_2  and  N_3
REMARK    3  A    between atoms: C_4  and  C_6
REMARK    4  A    between atoms: C_6  and  C_7
REMARK    5  A    between atoms: C_7  and  C_8
REMARK    6  A    between atoms: C_9  and  C_10
REMARK    7  A    between atoms: N_12  and  C_13
REMARK    8  A    between atoms: C_17  and  C_18
REMARK    9  A    between atoms: C_20  and  O_21
REMARK   10  A    between atoms: O_21  and  C_22
REMARK                            x       y       z     vdW  Elec       q    Type
REMARK                         _______ _______ _______ _____ _____    ______ ____
ROOT
ATOM      1  C   UNL     1       5.808   5.334  18.073  0.00  0.00    +0.000 A 
ATOM      2  C   UNL     1       7.193   5.675  17.958  0.00  0.00    +0.000 A 
ATOM      3  C   UNL     1       8.085   6.361  18.933  0.00  0.00    +0.000 C 
ATOM      4  N   UNL     1       7.714   5.295  16.791  0.00  0.00    +0.000 NA
ATOM      5  N   UNL     1       6.652   4.903  16.051  0.00  0.00    +0.000 N 
ATOM      6  C   UNL     1       5.486   4.831  16.807  0.00  0.00    +0.000 A 
ENDROOT
BRANCH   5   7
ATOM      7  C   UNL     1       6.811   4.679  14.656  0.00  0.00    +0.000 A 
ATOM      8  C   UNL     1       7.691   5.480  13.921  0.00  0.00    +0.000 A 
ATOM      9  C   UNL     1       7.837   5.273  12.550  0.00  0.00    +0.000 A 
ATOM     10  C   UNL     1       7.068   4.306  11.897  0.00  0.00    +0.000 A 
ATOM     11  C   UNL     1       6.157   3.523  12.613  0.00  0.00    +0.000 A 
ATOM     12  C   UNL     1       5.259   2.541  11.919  0.00  0.00    +0.000 C 
ATOM     13  C   UNL     1       6.048   3.696  13.997  0.00  0.00    +0.000 A 
ENDBRANCH   5   7
BRANCH   1  14
ATOM     14  C   UNL     1       4.972   5.527  19.310  0.00  0.00    +0.000 C 
BRANCH  14  15
ATOM     15  C   UNL     1       3.726   6.385  19.144  0.00  0.00    +0.000 C 
BRANCH  15  17
ATOM     16  N   UNL     1       2.766   4.728  20.581  0.00  0.00    +0.000 N 
ATOM     17  C   UNL     1       2.630   6.020  20.119  0.00  0.00    +0.000 C 
ATOM     18  O   UNL     1       1.731   6.780  20.456  0.00  0.00    +0.000 OA
ATOM     19  H   UNL     1       3.558   4.174  20.277  0.00  0.00    +0.000 HD
BRANCH  16  21
ATOM     20  C   UNL     1       2.262   2.727  21.894  0.00  0.00    +0.000 C 
ATOM     21  C   UNL     1       1.831   4.129  21.509  0.00  0.00    +0.000 C 
ENDBRANCH  16  21
ENDBRANCH  15  17
ENDBRANCH  14  15
ENDBRANCH   1  14
BRANCH   6  22
ATOM     22  O   UNL     1       4.416   4.243  16.259  0.00  0.00    +0.000 OA
BRANCH  22  23
ATOM     23  C   UNL     1       3.477   3.528  16.952  0.00  0.00    +0.000 A 
ATOM     24  C   UNL     1       2.150   3.925  17.091  0.00  0.00    +0.000 A 
ATOM     25  C   UNL     1       1.295   3.190  17.911  0.00  0.00    +0.000 A 
ATOM     26  C   UNL     1       1.759   2.039  18.553  0.00  0.00    +0.000 A 
ATOM     27  C   UNL     1       3.072   1.611  18.367  0.00  0.00    +0.000 A 
ATOM     28  C   UNL     1       3.930   2.352  17.555  0.00  0.00    +0.000 A 
ENDBRANCH  22  23
ENDBRANCH   6  22
TORSDOF 7
ENDMDL
MODEL 6
REMARK VINA RESULT:      -7.8      1.706      4.150
REMARK  Name = 
REMARK  10 active torsions:
REMARK  status: ('A' for Active; 'I' for Inactive)
REMARK    1  A    between atoms: C_1  and  C_2
REMARK    2  A    between atoms: C_2  and  N_3
REMARK    3  A    between atoms: C_4  and  C_6
REMARK    4  A    between atoms: C_6  and  C_7
REMARK    5  A    between atoms: C_7  and  C_8
REMARK    6  A    between atoms: C_9  and  C_10
REMARK    7  A    between atoms: N_12  and  C_13
REMARK    8  A    between atoms: C_17  and  C_18
REMARK    9  A    between atoms: C_20  and  O_21
REMARK   10  A    between atoms: O_21  and  C_22
REMARK                            x       y       z     vdW  Elec       q    Type
REMARK                         _______ _______ _______ _____ _____    ______ ____
ROOT
ATOM      1  C   UNL     1       3.890   3.977  17.173  0.00  0.00    +0.000 A 
ATOM      2  C   UNL     1       2.855   3.389  17.967  0.00  0.00    +0.000 A 
ATOM      3  C   UNL     1       2.307   2.005  17.938  0.00  0.00    +0.000 C 
ATOM      4  N   UNL     1       2.344   4.247  18.852  0.00  0.00    +0.000 NA
ATOM      5  N   UNL     1       2.872   5.445  18.513  0.00  0.00    +0.000 N 
ATOM      6  C   UNL     1       3.875   5.323  17.556  0.00  0.00    +0.000 A 
ENDROOT
BRANCH   5   7
ATOM      7  C   UNL     1       2.342   6.634  19.085  0.00  0.00    +0.000 A 
ATOM      8  C   UNL     1       1.894   6.625  20.410  0.00  0.00    +0.000 A 
ATOM      9  C   UNL     1       1.360   7.786  20.969  0.00  0.00    +0.000 A 
ATOM     10  C   UNL     1       1.218   8.940  20.195  0.00  0.00    +0.000 A 
ATOM     11  C   UNL     1       1.628   8.952  18.859  0.00  0.00    +0.000 A 
ATOM     12  C   UNL     1       1.406  10.153  17.986  0.00  0.00    +0.000 C 
ATOM     13  C   UNL     1       2.212   7.804  18.313  0.00  0.00    +0.000 A 
ENDBRANCH   5   7
BRANCH   1  14
ATOM     14  C   UNL     1       4.735   3.235  16.171  0.00  0.00    +0.000 C 
BRANCH  14  15
ATOM     15  C   UNL     1       6.131   3.792  15.936  0.00  0.00    +0.000 C 
BRANCH  15  17
ATOM     16  N   UNL     1       5.971   3.246  13.611  0.00  0.00    +0.000 N 
ATOM     17  C   UNL     1       6.357   4.223  14.505  0.00  0.00    +0.000 C 
ATOM     18  O   UNL     1       6.827   5.305  14.180  0.00  0.00    +0.000 OA
ATOM     19  H   UNL     1       5.561   2.388  13.961  0.00  0.00    +0.000 HD
BRANCH  16  21
ATOM     20  C   UNL     1       4.773   3.217  11.479  0.00  0.00    +0.000 C 
ATOM     21  C   UNL     1       6.105   3.403  12.179  0.00  0.00    +0.000 C 
ENDBRANCH  16  21
ENDBRANCH  15  17
ENDBRANCH  14  15
ENDBRANCH   1  14
BRANCH   6  22
ATOM     22  O   UNL     1       4.634   6.395  17.298  0.00  0.00    +0.000 OA
BRANCH  22  23
ATOM     23  C   UNL     1       5.908   6.580  17.761  0.00  0.00    +0.000 A 
ATOM     24  C   UNL     1       6.516   5.755  18.703  0.00  0.00    +0.000 A 
ATOM     25  C   UNL     1       7.776   6.089  19.198  0.00  0.00    +0.000 A 
ATOM     26  C   UNL     1       8.439   7.221  18.717  0.00  0.00    +0.000 A 
ATOM     27  C   UNL     1       7.854   8.013  17.732  0.00  0.00    +0.000 A 
ATOM     28  C   UNL     1       6.589   7.685  17.245  0.00  0.00    +0.000 A 
ENDBRANCH  22  23
ENDBRANCH   6  22
TORSDOF 7
ENDMDL
MODEL 7
REMARK VINA RESULT:      -7.7      1.971      6.990
REMARK  Name = 
REMARK  10 active torsions:
REMARK  status: ('A' for Active; 'I' for Inactive)
REMARK    1  A    between atoms: C_1  and  C_2
REMARK    2  A    between atoms: C_2  and  N_3
REMARK    3  A    between atoms: C_4  and  C_6
REMARK    4  A    between atoms: C_6  and  C_7
REMARK    5  A    between atoms: C_7  and  C_8
REMARK    6  A    between atoms: C_9  and  C_10
REMARK    7  A    between atoms: N_12  and  C_13
REMARK    8  A    between atoms: C_17  and  C_18
REMARK    9  A    between atoms: C_20  and  O_21
REMARK   10  A    between atoms: O_21  and  C_22
REMARK                            x       y       z     vdW  Elec       q    Type
REMARK                         _______ _______ _______ _____ _____    ______ ____
ROOT
ATOM      1  C   UNL     1       5.444   5.745  17.640  0.00  0.00    +0.000 A 
ATOM      2  C   UNL     1       6.728   6.309  17.360  0.00  0.00    +0.000 A 
ATOM      3  C   UNL     1       7.509   7.318  18.128  0.00  0.00    +0.000 C 
ATOM      4  N   UNL     1       7.264   5.822  16.240  0.00  0.00    +0.000 NA
ATOM      5  N   UNL     1       6.269   5.110  15.665  0.00  0.00    +0.000 N 
ATOM      6  C   UNL     1       5.174   4.964  16.509  0.00  0.00    +0.000 A 
ENDROOT
BRANCH   5   7
ATOM      7  C   UNL     1       6.410   4.663  14.321  0.00  0.00    +0.000 A 
ATOM      8  C   UNL     1       7.570   4.977  13.605  0.00  0.00    +0.000 A 
ATOM      9  C   UNL     1       7.704   4.554  12.283  0.00  0.00    +0.000 A 
ATOM     10  C   UNL     1       6.662   3.867  11.654  0.00  0.00    +0.000 A 
ATOM     11  C   UNL     1       5.483   3.580  12.347  0.00  0.00    +0.000 A 
ATOM     12  C   UNL     1       4.319   2.921  11.665  0.00  0.00    +0.000 C 
ATOM     13  C   UNL     1       5.369   3.958  13.688  0.00  0.00    +0.000 A 
ENDBRANCH   5   7
BRANCH   1  14
ATOM     14  C   UNL     1       4.639   6.006  18.885  0.00  0.00    +0.000 C 
BRANCH  14  15
ATOM     15  C   UNL     1       3.302   6.702  18.680  0.00  0.00    +0.000 C 
BRANCH  15  17
ATOM     16  N   UNL     1       2.033   7.934  20.294  0.00  0.00    +0.000 N 
ATOM     17  C   UNL     1       2.429   6.668  19.914  0.00  0.00    +0.000 C 
ATOM     18  O   UNL     1       2.113   5.643  20.503  0.00  0.00    +0.000 OA
ATOM     19  H   UNL     1       2.312   8.729  19.732  0.00  0.00    +0.000 HD
BRANCH  16  21
ATOM     20  C   UNL     1      -0.061   8.917  21.086  0.00  0.00    +0.000 C 
ATOM     21  C   UNL     1       1.208   8.177  21.458  0.00  0.00    +0.000 C 
ENDBRANCH  16  21
ENDBRANCH  15  17
ENDBRANCH  14  15
ENDBRANCH   1  14
BRANCH   6  22
ATOM     22  O   UNL     1       4.218   4.096  16.157  0.00  0.00    +0.000 OA
BRANCH  22  23
ATOM     23  C   UNL     1       3.385   3.454  17.033  0.00  0.00    +0.000 A 
ATOM     24  C   UNL     1       2.072   3.845  17.279  0.00  0.00    +0.000 A 
ATOM     25  C   UNL     1       1.337   3.199  18.272  0.00  0.00    +0.000 A 
ATOM     26  C   UNL     1       1.903   2.138  18.983  0.00  0.00    +0.000 A 
ATOM     27  C   UNL     1       3.197   1.709  18.694  0.00  0.00    +0.000 A 
ATOM     28  C   UNL     1       3.936   2.362  17.709  0.00  0.00    +0.000 A 
ENDBRANCH  22  23
ENDBRANCH   6  22
TORSDOF 7
ENDMDL
MODEL 8
REMARK VINA RESULT:      -7.7      2.067      6.884
REMARK  Name = 
REMARK  10 active torsions:
REMARK  status: ('A' for Active; 'I' for Inactive)
REMARK    1  A    between atoms: C_1  and  C_2
REMARK    2  A    between atoms: C_2  and  N_3
REMARK    3  A    between atoms: C_4  and  C_6
REMARK    4  A    between atoms: C_6  and  C_7
REMARK    5  A    between atoms: C_7  and  C_8
REMARK    6  A    between atoms: C_9  and  C_10
REMARK    7  A    between atoms: N_12  and  C_13
REMARK    8  A    between atoms: C_17  and  C_18
REMARK    9  A    between atoms: C_20  and  O_21
REMARK   10  A    between atoms: O_21  and  C_22
REMARK                            x       y       z     vdW  Elec       q    Type
REMARK                         _______ _______ _______ _____ _____    ______ ____
ROOT
ATOM      1  C   UNL     1       2.270   7.447  19.292  0.00  0.00    +0.000 A 
ATOM      2  C   UNL     1       2.599   8.341  18.225  0.00  0.00    +0.000 A 
ATOM      3  C   UNL     1       1.877   9.551  17.744  0.00  0.00    +0.000 C 
ATOM      4  N   UNL     1       3.730   7.999  17.606  0.00  0.00    +0.000 NA
ATOM      5  N   UNL     1       4.039   6.780  18.104  0.00  0.00    +0.000 N 
ATOM      6  C   UNL     1       3.233   6.437  19.185  0.00  0.00    +0.000 A 
ENDROOT
BRANCH   5   7
ATOM      7  C   UNL     1       5.048   5.999  17.476  0.00  0.00    +0.000 A 
ATOM      8  C   UNL     1       6.298   5.862  18.088  0.00  0.00    +0.000 A 
ATOM      9  C   UNL     1       7.295   5.110  17.467  0.00  0.00    +0.000 A 
ATOM     10  C   UNL     1       7.069   4.540  16.211  0.00  0.00    +0.000 A 
ATOM     11  C   UNL     1       5.836   4.701  15.572  0.00  0.00    +0.000 A 
ATOM     12  C   UNL     1       5.601   4.171  14.187  0.00  0.00    +0.000 C 
ATOM     13  C   UNL     1       4.819   5.411  16.218  0.00  0.00    +0.000 A 
ENDBRANCH   5   7
BRANCH   1  14
ATOM     14  C   UNL     1       1.120   7.630  20.247  0.00  0.00    +0.000 C 
BRANCH  14  15
ATOM     15  C   UNL     1       1.363   8.587  21.404  0.00  0.00    +0.000 C 
BRANCH  15  17
ATOM     16  N   UNL     1      -0.353   9.893  20.363  0.00  0.00    +0.000 N 
ATOM     17  C   UNL     1       0.766   9.956  21.168  0.00  0.00    +0.000 C 
ATOM     18  O   UNL     1       1.221  10.993  21.632  0.00  0.00    +0.000 OA
ATOM     19  H   UNL     1      -0.684   8.990  20.045  0.00  0.00    +0.000 HD
BRANCH  16  21
ATOM     20  C   UNL     1      -1.698  10.901  18.587  0.00  0.00    +0.000 C 
ATOM     21  C   UNL     1      -1.097  11.070  19.969  0.00  0.00    +0.000 C 
ENDBRANCH  16  21
ENDBRANCH  15  17
ENDBRANCH  14  15
ENDBRANCH   1  14
BRANCH   6  22
ATOM     22  O   UNL     1       3.576   5.367  19.912  0.00  0.00    +0.000 OA
BRANCH  22  23
ATOM     23  C   UNL     1       3.008   4.128  19.795  0.00  0.00    +0.000 A 
ATOM     24  C   UNL     1       3.564   3.088  19.055  0.00  0.00    +0.000 A 
ATOM     25  C   UNL     1       2.854   1.898  18.901  0.00  0.00    +0.000 A 
ATOM     26  C   UNL     1       1.613   1.737  19.524  0.00  0.00    +0.000 A 
ATOM     27  C   UNL     1       1.086   2.757  20.313  0.00  0.00    +0.000 A 
ATOM     28  C   UNL     1       1.790   3.951  20.458  0.00  0.00    +0.000 A 
ENDBRANCH  22  23
ENDBRANCH   6  22
TORSDOF 7
ENDMDL
MODEL 9
REMARK VINA RESULT:      -7.6      1.455      1.732
REMARK  Name = 
REMARK  10 active torsions:
REMARK  status: ('A' for Active; 'I' for Inactive)
REMARK    1  A    between atoms: C_1  and  C_2
REMARK    2  A    between atoms: C_2  and  N_3
REMARK    3  A    between atoms: C_4  and  C_6
REMARK    4  A    between atoms: C_6  and  C_7
REMARK    5  A    between atoms: C_7  and  C_8
REMARK    6  A    between atoms: C_9  and  C_10
REMARK    7  A    between atoms: N_12  and  C_13
REMARK    8  A    between atoms: C_17  and  C_18
REMARK    9  A    between atoms: C_20  and  O_21
REMARK   10  A    between atoms: O_21  and  C_22
REMARK                            x       y       z     vdW  Elec       q    Type
REMARK                         _______ _______ _______ _____ _____    ______ ____
ROOT
ATOM      1  C   UNL     1       4.270   6.089  18.802  0.00  0.00    +0.000 A 
ATOM      2  C   UNL     1       4.497   7.044  17.761  0.00  0.00    +0.000 A 
ATOM      3  C   UNL     1       5.673   7.207  16.863  0.00  0.00    +0.000 C 
ATOM      4  N   UNL     1       3.472   7.884  17.611  0.00  0.00    +0.000 NA
ATOM      5  N   UNL     1       2.668   7.639  18.670  0.00  0.00    +0.000 N 
ATOM      6  C   UNL     1       3.063   6.507  19.376  0.00  0.00    +0.000 A 
ENDROOT
BRANCH   5   7
ATOM      7  C   UNL     1       1.606   8.536  18.970  0.00  0.00    +0.000 A 
ATOM      8  C   UNL     1       1.010   9.272  17.940  0.00  0.00    +0.000 A 
ATOM      9  C   UNL     1      -0.021  10.164  18.234  0.00  0.00    +0.000 A 
ATOM     10  C   UNL     1      -0.422  10.368  19.557  0.00  0.00    +0.000 A 
ATOM     11  C   UNL     1       0.191   9.666  20.599  0.00  0.00    +0.000 A 
ATOM     12  C   UNL     1      -0.164   9.933  22.033  0.00  0.00    +0.000 C 
ATOM     13  C   UNL     1       1.189   8.733  20.299  0.00  0.00    +0.000 A 
ENDBRANCH   5   7
BRANCH   1  14
ATOM     14  C   UNL     1       5.187   4.942  19.136  0.00  0.00    +0.000 C 
BRANCH  14  15
ATOM     15  C   UNL     1       4.743   3.571  18.647  0.00  0.00    +0.000 C 
BRANCH  15  17
ATOM     16  N   UNL     1       5.672   3.723  16.445  0.00  0.00    +0.000 N 
ATOM     17  C   UNL     1       4.505   3.530  17.154  0.00  0.00    +0.000 C 
ATOM     18  O   UNL     1       3.409   3.350  16.639  0.00  0.00    +0.000 OA
ATOM     19  H   UNL     1       6.544   3.834  16.948  0.00  0.00    +0.000 HD
BRANCH  16  21
ATOM     20  C   UNL     1       6.894   4.553  14.497  0.00  0.00    +0.000 C 
ATOM     21  C   UNL     1       5.710   3.750  14.999  0.00  0.00    +0.000 C 
ENDBRANCH  16  21
ENDBRANCH  15  17
ENDBRANCH  14  15
ENDBRANCH   1  14
BRANCH   6  22
ATOM     22  O   UNL     1       2.231   6.021  20.304  0.00  0.00    +0.000 OA
BRANCH  22  23
ATOM     23  C   UNL     1       1.874   4.705  20.421  0.00  0.00    +0.000 A 
ATOM     24  C   UNL     1       2.164   3.921  21.535  0.00  0.00    +0.000 A 
ATOM     25  C   UNL     1       1.861   2.561  21.515  0.00  0.00    +0.000 A 
ATOM     26  C   UNL     1       1.230   2.000  20.400  0.00  0.00    +0.000 A 
ATOM     27  C   UNL     1       0.888   2.798  19.311  0.00  0.00    +0.000 A 
ATOM     28  C   UNL     1       1.201   4.157  19.326  0.00  0.00    +0.000 A 
ENDBRANCH  22  23
ENDBRANCH   6  22
TORSDOF 7
ENDMDL
