MODEL 1
REMARK VINA RESULT:      -7.8      0.000      0.000
REMARK  Name = 
REMARK  5 active torsions:
REMARK  status: ('A' for Active; 'I' for Inactive)
REMARK    1  A    between atoms: C_1  and  S_2
REMARK    2  A    between atoms: S_2  and  C_3
REMARK    3  A    between atoms: N_15  and  C_16
REMARK    4  A    between atoms: C_16  and  C_17
REMARK    5  A    between atoms: C_17  and  C_19
REMARK                            x       y       z     vdW  Elec       q    Type
REMARK                         _______ _______ _______ _____ _____    ______ ____
ROOT
ATOM      1  C   UNL     1       2.717   4.814  20.314  0.00  0.00    +0.000 A 
ATOM      2  N   UNL     1       3.707   4.520  19.440  0.00  0.00    +0.000 NA
ATOM      3  C   UNL     1       4.034   5.413  18.467  0.00  0.00    +0.000 A 
ATOM      4  N   UNL     1       5.135   5.201  17.663  0.00  0.00    +0.000 N 
ATOM      5  C   UNL     1       6.171   4.264  18.110  0.00  0.00    +0.000 C 
ATOM      6  C   UNL     1       7.498   4.707  17.463  0.00  0.00    +0.000 C 
ATOM      7  O   UNL     1       7.400   4.760  16.025  0.00  0.00    +0.000 OA
ATOM      8  C   UNL     1       6.351   5.660  15.618  0.00  0.00    +0.000 C 
ATOM      9  C   UNL     1       4.993   5.231  16.202  0.00  0.00    +0.000 C 
ATOM     10  C   UNL     1       3.328   6.625  18.444  0.00  0.00    +0.000 A 
ATOM     11  C   UNL     1       3.353   7.843  17.730  0.00  0.00    +0.000 A 
ATOM     12  N   UNL     1       2.487   8.748  18.200  0.00  0.00    +0.000 NA
ATOM     13  N   UNL     1       1.902   8.101  19.237  0.00  0.00    +0.000 N 
ATOM     14  C   UNL     1       2.366   6.825  19.416  0.00  0.00    +0.000 A 
ATOM     15  N   UNL     1       2.009   5.957  20.372  0.00  0.00    +0.000 NA
ENDROOT
BRANCH   1  17
ATOM     16  C   UNL     1       1.218   2.503  20.673  0.00  0.00    +0.000 C 
ATOM     17  S   UNL     1       2.306   3.626  21.581  0.00  0.00    +0.000 S 
ENDBRANCH   1  17
BRANCH  13  18
ATOM     18  C   UNL     1       0.977   8.814  20.098  0.00  0.00    +0.000 C 
BRANCH  18  19
ATOM     19  C   UNL     1       0.524  10.159  19.525  0.00  0.00    +0.000 C 
ATOM     20 CL   UNL     1      -0.465   9.916  18.040  0.00  0.00    +0.000 Cl
BRANCH  19  21
ATOM     21  C   UNL     1      -0.295  11.025  20.477  0.00  0.00    +0.000 A 
ATOM     22  C   UNL     1      -1.265  11.894  19.945  0.00  0.00    +0.000 A 
ATOM     23  C   UNL     1      -2.107  12.635  20.782  0.00  0.00    +0.000 A 
ATOM     24  C   UNL     1      -1.987  12.517  22.163  0.00  0.00    +0.000 A 
ATOM     25 CL   UNL     1      -3.046  13.395  23.195  0.00  0.00    +0.000 Cl
ATOM     26  C   UNL     1      -1.025  11.674  22.712  0.00  0.00    +0.000 A 
ATOM     27  C   UNL     1      -0.186  10.928  21.875  0.00  0.00    +0.000 A 
ENDBRANCH  19  21
ENDBRANCH  18  19
ENDBRANCH  13  18
TORSDOF 4
ENDMDL
MODEL 2
REMARK VINA RESULT:      -7.7      2.015      2.389
REMARK  Name = 
REMARK  5 active torsions:
REMARK  status: ('A' for Active; 'I' for Inactive)
REMARK    1  A    between atoms: C_1  and  S_2
REMARK    2  A    between atoms: S_2  and  C_3
REMARK    3  A    between atoms: N_15  and  C_16
REMARK    4  A    between atoms: C_16  and  C_17
REMARK    5  A    between atoms: C_17  and  C_19
REMARK                            x       y       z     vdW  Elec       q    Type
REMARK                         _______ _______ _______ _____ _____    ______ ____
ROOT
ATOM      1  C   UNL     1       2.717   5.089  20.098  0.00  0.00    +0.000 A 
ATOM      2  N   UNL     1       3.732   4.695  19.295  0.00  0.00    +0.000 NA
ATOM      3  C   UNL     1       4.124   5.490  18.264  0.00  0.00    +0.000 A 
ATOM      4  N   UNL     1       5.249   5.179  17.528  0.00  0.00    +0.000 N 
ATOM      5  C   UNL     1       6.237   4.257  18.097  0.00  0.00    +0.000 C 
ATOM      6  C   UNL     1       7.602   4.607  17.471  0.00  0.00    +0.000 C 
ATOM      7  O   UNL     1       7.562   4.537  16.031  0.00  0.00    +0.000 OA
ATOM      8  C   UNL     1       6.559   5.427  15.504  0.00  0.00    +0.000 C 
ATOM      9  C   UNL     1       5.166   5.087  16.065  0.00  0.00    +0.000 C 
ATOM     10  C   UNL     1       3.457   6.715  18.108  0.00  0.00    +0.000 A 
ATOM     11  C   UNL     1       3.548   7.865  17.294  0.00  0.00    +0.000 A 
ATOM     12  N   UNL     1       2.692   8.831  17.648  0.00  0.00    +0.000 NA
ATOM     13  N   UNL     1       2.047   8.292  18.711  0.00  0.00    +0.000 N 
ATOM     14  C   UNL     1       2.464   7.025  19.018  0.00  0.00    +0.000 A 
ATOM     15  N   UNL     1       2.043   6.252  20.028  0.00  0.00    +0.000 NA
ENDROOT
BRANCH   1  17
ATOM     16  C   UNL     1       1.445   2.661  20.548  0.00  0.00    +0.000 C 
ATOM     17  S   UNL     1       2.219   4.027  21.444  0.00  0.00    +0.000 S 
ENDBRANCH   1  17
BRANCH  13  18
ATOM     18  C   UNL     1       1.110   9.102  19.469  0.00  0.00    +0.000 C 
BRANCH  18  19
ATOM     19  C   UNL     1       0.591  10.316  18.696  0.00  0.00    +0.000 C 
ATOM     20 CL   UNL     1      -1.198  10.453  18.854  0.00  0.00    +0.000 Cl
BRANCH  19  21
ATOM     21  C   UNL     1       1.186  11.655  19.120  0.00  0.00    +0.000 A 
ATOM     22  C   UNL     1       0.831  12.195  20.372  0.00  0.00    +0.000 A 
ATOM     23  C   UNL     1       1.425  13.369  20.845  0.00  0.00    +0.000 A 
ATOM     24  C   UNL     1       2.379  14.022  20.072  0.00  0.00    +0.000 A 
ATOM     25 CL   UNL     1       3.140  15.445  20.668  0.00  0.00    +0.000 Cl
ATOM     26  C   UNL     1       2.736  13.515  18.826  0.00  0.00    +0.000 A 
ATOM     27  C   UNL     1       2.147  12.337  18.354  0.00  0.00    +0.000 A 
ENDBRANCH  19  21
ENDBRANCH  18  19
ENDBRANCH  13  18
TORSDOF 4
ENDMDL
MODEL 3
REMARK VINA RESULT:      -7.6      0.827      1.114
REMARK  Name = 
REMARK  5 active torsions:
REMARK  status: ('A' for Active; 'I' for Inactive)
REMARK    1  A    between atoms: C_1  and  S_2
REMARK    2  A    between atoms: S_2  and  C_3
REMARK    3  A    between atoms: N_15  and  C_16
REMARK    4  A    between atoms: C_16  and  C_17
REMARK    5  A    between atoms: C_17  and  C_19
REMARK                            x       y       z     vdW  Elec       q    Type
REMARK                         _______ _______ _______ _____ _____    ______ ____
ROOT
ATOM      1  C   UNL     1       2.533   4.825  20.100  0.00  0.00    +0.000 A 
ATOM      2  N   UNL     1       3.542   4.514  19.255  0.00  0.00    +0.000 NA
ATOM      3  C   UNL     1       3.949   5.422  18.328  0.00  0.00    +0.000 A 
ATOM      4  N   UNL     1       5.070   5.184  17.559  0.00  0.00    +0.000 N 
ATOM      5  C   UNL     1       6.042   4.184  18.012  0.00  0.00    +0.000 C 
ATOM      6  C   UNL     1       7.413   4.584  17.432  0.00  0.00    +0.000 C 
ATOM      7  O   UNL     1       7.375   4.691  15.994  0.00  0.00    +0.000 OA
ATOM      8  C   UNL     1       6.387   5.654  15.580  0.00  0.00    +0.000 C 
ATOM      9  C   UNL     1       4.988   5.272  16.096  0.00  0.00    +0.000 C 
ATOM     10  C   UNL     1       3.302   6.667  18.322  0.00  0.00    +0.000 A 
ATOM     11  C   UNL     1       3.413   7.906  17.653  0.00  0.00    +0.000 A 
ATOM     12  N   UNL     1       2.572   8.836  18.122  0.00  0.00    +0.000 NA
ATOM     13  N   UNL     1       1.916   8.182  19.112  0.00  0.00    +0.000 N 
ATOM     14  C   UNL     1       2.313   6.880  19.263  0.00  0.00    +0.000 A 
ATOM     15  N   UNL     1       1.877   5.998  20.172  0.00  0.00    +0.000 NA
ENDROOT
BRANCH   1  17
ATOM     16  C   UNL     1       3.309   2.365  21.131  0.00  0.00    +0.000 C 
ATOM     17  S   UNL     1       2.016   3.616  21.308  0.00  0.00    +0.000 S 
ENDBRANCH   1  17
BRANCH  13  18
ATOM     18  C   UNL     1       0.992   8.909  19.962  0.00  0.00    +0.000 C 
BRANCH  18  19
ATOM     19  C   UNL     1       0.646  10.303  19.434  0.00  0.00    +0.000 C 
ATOM     20 CL   UNL     1      -0.559  10.195  18.098  0.00  0.00    +0.000 Cl
BRANCH  19  21
ATOM     21  C   UNL     1       0.083  11.267  20.473  0.00  0.00    +0.000 A 
ATOM     22  C   UNL     1      -0.455  10.749  21.666  0.00  0.00    +0.000 A 
ATOM     23  C   UNL     1      -0.892  11.597  22.688  0.00  0.00    +0.000 A 
ATOM     24  C   UNL     1      -0.801  12.976  22.530  0.00  0.00    +0.000 A 
ATOM     25 CL   UNL     1      -1.302  14.022  23.800  0.00  0.00    +0.000 Cl
ATOM     26  C   UNL     1      -0.286  13.512  21.353  0.00  0.00    +0.000 A 
ATOM     27  C   UNL     1       0.157  12.664  20.331  0.00  0.00    +0.000 A 
ENDBRANCH  19  21
ENDBRANCH  18  19
ENDBRANCH  13  18
TORSDOF 4
ENDMDL
MODEL 4
REMARK VINA RESULT:      -7.4      1.833      1.849
REMARK  Name = 
REMARK  5 active torsions:
REMARK  status: ('A' for Active; 'I' for Inactive)
REMARK    1  A    between atoms: C_1  and  S_2
REMARK    2  A    between atoms: S_2  and  C_3
REMARK    3  A    between atoms: N_15  and  C_16
REMARK    4  A    between atoms: C_16  and  C_17
REMARK    5  A    between atoms: C_17  and  C_19
REMARK                            x       y       z     vdW  Elec       q    Type
REMARK                         _______ _______ _______ _____ _____    ______ ____
ROOT
ATOM      1  C   UNL     1       2.581   5.201  20.059  0.00  0.00    +0.000 A 
ATOM      2  N   UNL     1       3.610   4.800  19.277  0.00  0.00    +0.000 NA
ATOM      3  C   UNL     1       4.036   5.598  18.262  0.00  0.00    +0.000 A 
ATOM      4  N   UNL     1       5.176   5.280  17.551  0.00  0.00    +0.000 N 
ATOM      5  C   UNL     1       6.139   4.344  18.137  0.00  0.00    +0.000 C 
ATOM      6  C   UNL     1       7.522   4.682  17.547  0.00  0.00    +0.000 C 
ATOM      7  O   UNL     1       7.517   4.623  16.106  0.00  0.00    +0.000 OA
ATOM      8  C   UNL     1       6.537   5.527  15.562  0.00  0.00    +0.000 C 
ATOM      9  C   UNL     1       5.127   5.199  16.086  0.00  0.00    +0.000 C 
ATOM     10  C   UNL     1       3.386   6.831  18.099  0.00  0.00    +0.000 A 
ATOM     11  C   UNL     1       3.509   7.986  17.295  0.00  0.00    +0.000 A 
ATOM     12  N   UNL     1       2.656   8.959  17.635  0.00  0.00    +0.000 NA
ATOM     13  N   UNL     1       1.979   8.420  18.678  0.00  0.00    +0.000 N 
ATOM     14  C   UNL     1       2.375   7.146  18.986  0.00  0.00    +0.000 A 
ATOM     15  N   UNL     1       1.921   6.371  19.981  0.00  0.00    +0.000 NA
ENDROOT
BRANCH   1  17
ATOM     16  C   UNL     1       2.972   2.628  21.029  0.00  0.00    +0.000 C 
ATOM     17  S   UNL     1       2.039   4.135  21.384  0.00  0.00    +0.000 S 
ENDBRANCH   1  17
BRANCH  13  18
ATOM     18  C   UNL     1       1.033   9.235  19.419  0.00  0.00    +0.000 C 
BRANCH  18  19
ATOM     19  C   UNL     1       0.324  10.281  18.556  0.00  0.00    +0.000 C 
ATOM     20 CL   UNL     1      -1.451   9.978  18.520  0.00  0.00    +0.000 Cl
BRANCH  19  21
ATOM     21  C   UNL     1       0.527  11.727  18.996  0.00  0.00    +0.000 A 
ATOM     22  C   UNL     1      -0.334  12.721  18.492  0.00  0.00    +0.000 A 
ATOM     23  C   UNL     1      -0.249  14.043  18.942  0.00  0.00    +0.000 A 
ATOM     24  C   UNL     1       0.699  14.389  19.898  0.00  0.00    +0.000 A 
ATOM     25 CL   UNL     1       0.780  16.005  20.482  0.00  0.00    +0.000 Cl
ATOM     26  C   UNL     1       1.569  13.427  20.401  0.00  0.00    +0.000 A 
ATOM     27  C   UNL     1       1.482  12.102  19.956  0.00  0.00    +0.000 A 
ENDBRANCH  19  21
ENDBRANCH  18  19
ENDBRANCH  13  18
TORSDOF 4
ENDMDL
MODEL 5
REMARK VINA RESULT:      -7.3      2.976      4.391
REMARK  Name = 
REMARK  5 active torsions:
REMARK  status: ('A' for Active; 'I' for Inactive)
REMARK    1  A    between atoms: C_1  and  S_2
REMARK    2  A    between atoms: S_2  and  C_3
REMARK    3  A    between atoms: N_15  and  C_16
REMARK    4  A    between atoms: C_16  and  C_17
REMARK    5  A    between atoms: C_17  and  C_19
REMARK                            x       y       z     vdW  Elec       q    Type
REMARK                         _______ _______ _______ _____ _____    ______ ____
ROOT
ATOM      1  C   UNL     1       4.147   6.427  17.226  0.00  0.00    +0.000 A 
ATOM      2  N   UNL     1       3.885   5.325  17.966  0.00  0.00    +0.000 NA
ATOM      3  C   UNL     1       3.055   5.415  19.039  0.00  0.00    +0.000 A 
ATOM      4  N   UNL     1       2.657   4.280  19.716  0.00  0.00    +0.000 N 
ATOM      5  C   UNL     1       2.778   2.979  19.050  0.00  0.00    +0.000 C 
ATOM      6  C   UNL     1       1.705   2.054  19.657  0.00  0.00    +0.000 C 
ATOM      7  O   UNL     1       1.841   1.945  21.089  0.00  0.00    +0.000 OA
ATOM      8  C   UNL     1       1.753   3.242  21.710  0.00  0.00    +0.000 C 
ATOM      9  C   UNL     1       2.839   4.191  21.170  0.00  0.00    +0.000 C 
ATOM     10  C   UNL     1       2.484   6.669  19.305  0.00  0.00    +0.000 A 
ATOM     11  C   UNL     1       1.543   7.227  20.198  0.00  0.00    +0.000 A 
ATOM     12  N   UNL     1       1.271   8.513  19.942  0.00  0.00    +0.000 NA
ATOM     13  N   UNL     1       2.046   8.780  18.864  0.00  0.00    +0.000 N 
ATOM     14  C   UNL     1       2.796   7.710  18.452  0.00  0.00    +0.000 A 
ATOM     15  N   UNL     1       3.626   7.655  17.402  0.00  0.00    +0.000 NA
ENDROOT
BRANCH   1  17
ATOM     16  C   UNL     1       5.622   4.516  15.852  0.00  0.00    +0.000 C 
ATOM     17  S   UNL     1       5.241   6.283  15.823  0.00  0.00    +0.000 S 
ENDBRANCH   1  17
BRANCH  13  18
ATOM     18  C   UNL     1       1.932  10.063  18.197  0.00  0.00    +0.000 C 
BRANCH  18  19
ATOM     19  C   UNL     1       1.039  11.059  18.941  0.00  0.00    +0.000 C 
ATOM     20 CL   UNL     1       1.558  12.751  18.609  0.00  0.00    +0.000 Cl
BRANCH  19  21
ATOM     21  C   UNL     1      -0.447  10.969  18.608  0.00  0.00    +0.000 A 
ATOM     22  C   UNL     1      -1.339  11.874  19.215  0.00  0.00    +0.000 A 
ATOM     23  C   UNL     1      -2.693  11.894  18.867  0.00  0.00    +0.000 A 
ATOM     24  C   UNL     1      -3.175  11.007  17.910  0.00  0.00    +0.000 A 
ATOM     25 CL   UNL     1      -4.832  11.055  17.451  0.00  0.00    +0.000 Cl
ATOM     26  C   UNL     1      -2.316  10.094  17.307  0.00  0.00    +0.000 A 
ATOM     27  C   UNL     1      -0.958  10.077  17.650  0.00  0.00    +0.000 A 
ENDBRANCH  19  21
ENDBRANCH  18  19
ENDBRANCH  13  18
TORSDOF 4
ENDMDL
MODEL 6
REMARK VINA RESULT:      -7.3      4.257      8.686
REMARK  Name = 
REMARK  5 active torsions:
REMARK  status: ('A' for Active; 'I' for Inactive)
REMARK    1  A    between atoms: C_1  and  S_2
REMARK    2  A    between atoms: S_2  and  C_3
REMARK    3  A    between atoms: N_15  and  C_16
REMARK    4  A    between atoms: C_16  and  C_17
REMARK    5  A    between atoms: C_17  and  C_19
REMARK                            x       y       z     vdW  Elec       q    Type
REMARK                         _______ _______ _______ _____ _____    ______ ____
ROOT
ATOM      1  C   UNL     1       0.396  10.324  21.482  0.00  0.00    +0.000 A 
ATOM      2  N   UNL     1       0.529  11.649  21.245  0.00  0.00    +0.000 NA
ATOM      3  C   UNL     1       1.141  12.072  20.106  0.00  0.00    +0.000 A 
ATOM      4  N   UNL     1       1.154  13.411  19.774  0.00  0.00    +0.000 N 
ATOM      5  C   UNL     1       0.179  14.307  20.401  0.00  0.00    +0.000 C 
ATOM      6  C   UNL     1      -0.060  15.477  19.426  0.00  0.00    +0.000 C 
ATOM      7  O   UNL     1       1.168  16.158  19.097  0.00  0.00    +0.000 OA
ATOM      8  C   UNL     1       2.118  15.244  18.516  0.00  0.00    +0.000 C 
ATOM      9  C   UNL     1       2.427  14.080  19.474  0.00  0.00    +0.000 C 
ATOM     10  C   UNL     1       1.583  11.086  19.211  0.00  0.00    +0.000 A 
ATOM     11  C   UNL     1       2.163  11.018  17.925  0.00  0.00    +0.000 A 
ATOM     12  N   UNL     1       2.293   9.766  17.471  0.00  0.00    +0.000 NA
ATOM     13  N   UNL     1       1.782   9.020  18.480  0.00  0.00    +0.000 N 
ATOM     14  C   UNL     1       1.352   9.765  19.546  0.00  0.00    +0.000 A 
ATOM     15  N   UNL     1       0.772   9.320  20.669  0.00  0.00    +0.000 NA
ENDROOT
BRANCH   1  17
ATOM     16  C   UNL     1      -1.573  11.150  23.259  0.00  0.00    +0.000 C 
ATOM     17  S   UNL     1      -0.410   9.793  22.984  0.00  0.00    +0.000 S 
ENDBRANCH   1  17
BRANCH  13  18
ATOM     18  C   UNL     1       1.625   7.588  18.307  0.00  0.00    +0.000 C 
BRANCH  18  19
ATOM     19  C   UNL     1       2.773   6.773  18.908  0.00  0.00    +0.000 C 
ATOM     20 CL   UNL     1       2.138   5.494  20.007  0.00  0.00    +0.000 Cl
BRANCH  19  21
ATOM     21  C   UNL     1       3.680   6.086  17.893  0.00  0.00    +0.000 A 
ATOM     22  C   UNL     1       3.615   4.686  17.756  0.00  0.00    +0.000 A 
ATOM     23  C   UNL     1       4.355   4.023  16.772  0.00  0.00    +0.000 A 
ATOM     24  C   UNL     1       5.172   4.750  15.912  0.00  0.00    +0.000 A 
ATOM     25 CL   UNL     1       6.052   3.942  14.675  0.00  0.00    +0.000 Cl
ATOM     26  C   UNL     1       5.262   6.133  16.036  0.00  0.00    +0.000 A 
ATOM     27  C   UNL     1       4.518   6.799  17.018  0.00  0.00    +0.000 A 
ENDBRANCH  19  21
ENDBRANCH  18  19
ENDBRANCH  13  18
TORSDOF 4
ENDMDL
MODEL 7
REMARK VINA RESULT:      -7.2      4.628      9.438
REMARK  Name = 
REMARK  5 active torsions:
REMARK  status: ('A' for Active; 'I' for Inactive)
REMARK    1  A    between atoms: C_1  and  S_2
REMARK    2  A    between atoms: S_2  and  C_3
REMARK    3  A    between atoms: N_15  and  C_16
REMARK    4  A    between atoms: C_16  and  C_17
REMARK    5  A    between atoms: C_17  and  C_19
REMARK                            x       y       z     vdW  Elec       q    Type
REMARK                         _______ _______ _______ _____ _____    ______ ____
ROOT
ATOM      1  C   UNL     1      -1.830  10.803  17.732  0.00  0.00    +0.000 A 
ATOM      2  N   UNL     1      -2.152  11.630  18.754  0.00  0.00    +0.000 NA
ATOM      3  C   UNL     1      -1.424  11.598  19.902  0.00  0.00    +0.000 A 
ATOM      4  N   UNL     1      -1.638  12.532  20.894  0.00  0.00    +0.000 N 
ATOM      5  C   UNL     1      -2.331  13.779  20.557  0.00  0.00    +0.000 C 
ATOM      6  C   UNL     1      -1.849  14.854  21.551  0.00  0.00    +0.000 C 
ATOM      7  O   UNL     1      -2.081  14.458  22.919  0.00  0.00    +0.000 OA
ATOM      8  C   UNL     1      -1.418  13.213  23.210  0.00  0.00    +0.000 C 
ATOM      9  C   UNL     1      -1.902  12.093  22.270  0.00  0.00    +0.000 C 
ATOM     10  C   UNL     1      -0.339  10.708  19.950  0.00  0.00    +0.000 A 
ATOM     11  C   UNL     1       0.715  10.383  20.831  0.00  0.00    +0.000 A 
ATOM     12  N   UNL     1       1.572   9.490  20.321  0.00  0.00    +0.000 NA
ATOM     13  N   UNL     1       1.061   9.245  19.091  0.00  0.00    +0.000 N 
ATOM     14  C   UNL     1      -0.087   9.944  18.827  0.00  0.00    +0.000 A 
ATOM     15  N   UNL     1      -0.799   9.940  17.692  0.00  0.00    +0.000 NA
ENDROOT
BRANCH   1  17
ATOM     16  C   UNL     1      -4.370  11.511  16.859  0.00  0.00    +0.000 C 
ATOM     17  S   UNL     1      -2.801  10.863  16.236  0.00  0.00    +0.000 S 
ENDBRANCH   1  17
BRANCH  13  18
ATOM     18  C   UNL     1       1.797   8.408  18.161  0.00  0.00    +0.000 C 
BRANCH  18  19
ATOM     19  C   UNL     1       2.712   7.393  18.849  0.00  0.00    +0.000 C 
ATOM     20 CL   UNL     1       1.773   6.361  19.990  0.00  0.00    +0.000 Cl
BRANCH  19  21
ATOM     21  C   UNL     1       3.463   6.457  17.909  0.00  0.00    +0.000 A 
ATOM     22  C   UNL     1       4.476   6.984  17.085  0.00  0.00    +0.000 A 
ATOM     23  C   UNL     1       5.257   6.149  16.279  0.00  0.00    +0.000 A 
ATOM     24  C   UNL     1       5.034   4.777  16.283  0.00  0.00    +0.000 A 
ATOM     25 CL   UNL     1       6.019   3.743  15.323  0.00  0.00    +0.000 Cl
ATOM     26  C   UNL     1       4.030   4.234  17.079  0.00  0.00    +0.000 A 
ATOM     27  C   UNL     1       3.250   5.067  17.891  0.00  0.00    +0.000 A 
ENDBRANCH  19  21
ENDBRANCH  18  19
ENDBRANCH  13  18
TORSDOF 4
ENDMDL
MODEL 8
REMARK VINA RESULT:      -7.1      1.888      2.393
REMARK  Name = 
REMARK  5 active torsions:
REMARK  status: ('A' for Active; 'I' for Inactive)
REMARK    1  A    between atoms: C_1  and  S_2
REMARK    2  A    between atoms: S_2  and  C_3
REMARK    3  A    between atoms: N_15  and  C_16
REMARK    4  A    between atoms: C_16  and  C_17
REMARK    5  A    between atoms: C_17  and  C_19
REMARK                            x       y       z     vdW  Elec       q    Type
REMARK                         _______ _______ _______ _____ _____    ______ ____
ROOT
ATOM      1  C   UNL     1       2.686   4.920  20.258  0.00  0.00    +0.000 A 
ATOM      2  N   UNL     1       3.666   4.589  19.386  0.00  0.00    +0.000 NA
ATOM      3  C   UNL     1       4.005   5.453  18.393  0.00  0.00    +0.000 A 
ATOM      4  N   UNL     1       5.098   5.203  17.588  0.00  0.00    +0.000 N 
ATOM      5  C   UNL     1       6.117   4.256  18.051  0.00  0.00    +0.000 C 
ATOM      6  C   UNL     1       7.450   4.660  17.389  0.00  0.00    +0.000 C 
ATOM      7  O   UNL     1       7.346   4.683  15.950  0.00  0.00    +0.000 OA
ATOM      8  C   UNL     1       6.312   5.594  15.528  0.00  0.00    +0.000 C 
ATOM      9  C   UNL     1       4.949   5.204  16.127  0.00  0.00    +0.000 C 
ATOM     10  C   UNL     1       3.322   6.678  18.347  0.00  0.00    +0.000 A 
ATOM     11  C   UNL     1       3.367   7.880  17.605  0.00  0.00    +0.000 A 
ATOM     12  N   UNL     1       2.521   8.812  18.059  0.00  0.00    +0.000 NA
ATOM     13  N   UNL     1       1.928   8.198  19.113  0.00  0.00    +0.000 N 
ATOM     14  C   UNL     1       2.369   6.918  19.318  0.00  0.00    +0.000 A 
ATOM     15  N   UNL     1       2.000   6.078  20.294  0.00  0.00    +0.000 NA
ENDROOT
BRANCH   1  17
ATOM     16  C   UNL     1       1.453   2.455  20.605  0.00  0.00    +0.000 C 
ATOM     17  S   UNL     1       2.258   3.768  21.553  0.00  0.00    +0.000 S 
ENDBRANCH   1  17
BRANCH  13  18
ATOM     18  C   UNL     1       1.021   8.947  19.963  0.00  0.00    +0.000 C 
BRANCH  18  19
ATOM     19  C   UNL     1       0.710  10.349  19.434  0.00  0.00    +0.000 C 
ATOM     20 CL   UNL     1       1.981  10.890  18.278  0.00  0.00    +0.000 Cl
BRANCH  19  21
ATOM     21  C   UNL     1      -0.634  10.489  18.726  0.00  0.00    +0.000 A 
ATOM     22  C   UNL     1      -1.561  11.436  19.200  0.00  0.00    +0.000 A 
ATOM     23  C   UNL     1      -2.764  11.669  18.525  0.00  0.00    +0.000 A 
ATOM     24  C   UNL     1      -3.057  10.956  17.368  0.00  0.00    +0.000 A 
ATOM     25 CL   UNL     1      -4.516  11.267  16.513  0.00  0.00    +0.000 Cl
ATOM     26  C   UNL     1      -2.161  10.005  16.887  0.00  0.00    +0.000 A 
ATOM     27  C   UNL     1      -0.955   9.775  17.558  0.00  0.00    +0.000 A 
ENDBRANCH  19  21
ENDBRANCH  18  19
ENDBRANCH  13  18
TORSDOF 4
ENDMDL
MODEL 9
REMARK VINA RESULT:      -7.0      4.575      8.753
REMARK  Name = 
REMARK  5 active torsions:
REMARK  status: ('A' for Active; 'I' for Inactive)
REMARK    1  A    between atoms: C_1  and  S_2
REMARK    2  A    between atoms: S_2  and  C_3
REMARK    3  A    between atoms: N_15  and  C_16
REMARK    4  A    between atoms: C_16  and  C_17
REMARK    5  A    between atoms: C_17  and  C_19
REMARK                            x       y       z     vdW  Elec       q    Type
REMARK                         _______ _______ _______ _____ _____    ______ ____
ROOT
ATOM      1  C   UNL     1       0.061  11.364  21.291  0.00  0.00    +0.000 A 
ATOM      2  N   UNL     1       0.335  12.662  21.023  0.00  0.00    +0.000 NA
ATOM      3  C   UNL     1       1.115  12.980  19.956  0.00  0.00    +0.000 A 
ATOM      4  N   UNL     1       1.284  14.296  19.578  0.00  0.00    +0.000 N 
ATOM      5  C   UNL     1       0.319  15.297  20.044  0.00  0.00    +0.000 C 
ATOM      6  C   UNL     1       0.301  16.434  19.003  0.00  0.00    +0.000 C 
ATOM      7  O   UNL     1       1.615  16.998  18.807  0.00  0.00    +0.000 OA
ATOM      8  C   UNL     1       2.548  15.984  18.385  0.00  0.00    +0.000 C 
ATOM      9  C   UNL     1       2.636  14.846  19.417  0.00  0.00    +0.000 C 
ATOM     10  C   UNL     1       1.578  11.920  19.161  0.00  0.00    +0.000 A 
ATOM     11  C   UNL     1       2.304  11.744  17.962  0.00  0.00    +0.000 A 
ATOM     12  N   UNL     1       2.382  10.466  17.575  0.00  0.00    +0.000 NA
ATOM     13  N   UNL     1       1.688   9.813  18.539  0.00  0.00    +0.000 N 
ATOM     14  C   UNL     1       1.196  10.640  19.513  0.00  0.00    +0.000 A 
ATOM     15  N   UNL     1       0.447  10.296  20.570  0.00  0.00    +0.000 NA
ENDROOT
BRANCH   1  17
ATOM     16  C   UNL     1      -0.128   9.508  23.349  0.00  0.00    +0.000 C 
ATOM     17  S   UNL     1      -0.966  10.972  22.698  0.00  0.00    +0.000 S 
ENDBRANCH   1  17
BRANCH  13  18
ATOM     18  C   UNL     1       1.433   8.391  18.401  0.00  0.00    +0.000 C 
BRANCH  18  19
ATOM     19  C   UNL     1       2.498   7.513  19.062  0.00  0.00    +0.000 C 
ATOM     20 CL   UNL     1       1.771   6.503  20.364  0.00  0.00    +0.000 Cl
BRANCH  19  21
ATOM     21  C   UNL     1       3.237   6.571  18.118  0.00  0.00    +0.000 A 
ATOM     22  C   UNL     1       4.254   7.088  17.294  0.00  0.00    +0.000 A 
ATOM     23  C   UNL     1       5.025   6.246  16.485  0.00  0.00    +0.000 A 
ATOM     24  C   UNL     1       4.785   4.875  16.487  0.00  0.00    +0.000 A 
ATOM     25 CL   UNL     1       5.756   3.833  15.524  0.00  0.00    +0.000 Cl
ATOM     26  C   UNL     1       3.776   4.343  17.283  0.00  0.00    +0.000 A 
ATOM     27  C   UNL     1       3.008   5.184  18.098  0.00  0.00    +0.000 A 
ENDBRANCH  19  21
ENDBRANCH  18  19
ENDBRANCH  13  18
TORSDOF 4
ENDMDL
