MODEL 1
REMARK VINA RESULT:      -8.3      0.000      0.000
REMARK  Name = 
REMARK  10 active torsions:
REMARK  status: ('A' for Active; 'I' for Inactive)
REMARK    1  A    between atoms: C_1  and  C_2
REMARK    2  A    between atoms: C_2  and  C_3
REMARK    3  A    between atoms: C_3  and  C_4
REMARK    4  A    between atoms: C_6  and  C_7
REMARK    5  A    between atoms: C_7  and  C_8
REMARK    6  A    between atoms: C_7  and  C_9
REMARK    7  A    between atoms: C_7  and  N_10
REMARK    8  A    between atoms: C_11  and  C_13
REMARK    9  A    between atoms: N_17  and  C_18
REMARK   10  A    between atoms: C_18  and  C_19
REMARK                            x       y       z     vdW  Elec       q    Type
REMARK                         _______ _______ _______ _____ _____    ______ ____
ROOT
ATOM      1  N   UNL     1       5.503   4.986  17.624  0.00  0.00    +0.000 N 
ATOM      2  C   UNL     1       4.391   5.792  17.468  0.00  0.00    +0.000 C 
ATOM      3  O   UNL     1       4.407   6.891  16.923  0.00  0.00    +0.000 OA
ATOM      4  H   UNL     1       5.411   4.071  18.052  0.00  0.00    +0.000 HD
ENDROOT
BRANCH   2   5
ATOM      5  C   UNL     1       3.107   5.168  17.955  0.00  0.00    +0.000 C 
ATOM      6  C   UNL     1       2.771   3.815  17.334  0.00  0.00    +0.000 C 
ATOM      7  C   UNL     1       1.729   3.308  18.304  0.00  0.00    +0.000 C 
ATOM      8  O   UNL     1       0.839   2.519  18.039  0.00  0.00    +0.000 OA
ATOM      9  N   UNL     1       1.975   3.920  19.529  0.00  0.00    +0.000 N 
ATOM     10  C   UNL     1       3.093   4.834  19.442  0.00  0.00    +0.000 C 
BRANCH   9  11
ATOM     11  C   UNL     1       1.103   3.824  20.685  0.00  0.00    +0.000 C 
ATOM     12  C   UNL     1       1.562   2.738  21.648  0.00  0.00    +0.000 C 
ENDBRANCH   9  11
ENDBRANCH   2   5
BRANCH   1  13
ATOM     13  C   UNL     1       6.824   5.272  17.014  0.00  0.00    +0.000 C 
ATOM     14  C   UNL     1       7.927   4.443  17.697  0.00  0.00    +0.000 C 
ATOM     15  C   UNL     1       7.133   6.781  17.122  0.00  0.00    +0.000 C 
BRANCH  13  18
ATOM     16  C   UNL     1       6.225   4.046  13.695  0.00  0.00    +0.000 A 
ATOM     17  N   UNL     1       5.870   4.024  14.969  0.00  0.00    +0.000 NA
ATOM     18  C   UNL     1       6.783   4.899  15.530  0.00  0.00    +0.000 A 
ATOM     19  N   UNL     1       7.643   5.439  14.652  0.00  0.00    +0.000 NA
ATOM     20  O   UNL     1       7.277   4.872  13.440  0.00  0.00    +0.000 OA
BRANCH  16  21
ATOM     21  C   UNL     1       5.689   3.313  12.519  0.00  0.00    +0.000 C 
BRANCH  21  23
ATOM     22  C   UNL     1       6.504   1.386  11.117  0.00  0.00    +0.000 C 
ATOM     23  C   UNL     1       6.804   2.792  11.617  0.00  0.00    +0.000 C 
ENDBRANCH  21  23
ENDBRANCH  16  21
ENDBRANCH  13  18
ENDBRANCH   1  13
TORSDOF 6
ENDMDL
MODEL 2
REMARK VINA RESULT:      -8.0      1.187      1.346
REMARK  Name = 
REMARK  10 active torsions:
REMARK  status: ('A' for Active; 'I' for Inactive)
REMARK    1  A    between atoms: C_1  and  C_2
REMARK    2  A    between atoms: C_2  and  C_3
REMARK    3  A    between atoms: C_3  and  C_4
REMARK    4  A    between atoms: C_6  and  C_7
REMARK    5  A    between atoms: C_7  and  C_8
REMARK    6  A    between atoms: C_7  and  C_9
REMARK    7  A    between atoms: C_7  and  N_10
REMARK    8  A    between atoms: C_11  and  C_13
REMARK    9  A    between atoms: N_17  and  C_18
REMARK   10  A    between atoms: C_18  and  C_19
REMARK                            x       y       z     vdW  Elec       q    Type
REMARK                         _______ _______ _______ _____ _____    ______ ____
ROOT
ATOM      1  N   UNL     1       5.575   4.782  17.344  0.00  0.00    +0.000 N 
ATOM      2  C   UNL     1       5.171   4.771  18.667  0.00  0.00    +0.000 C 
ATOM      3  O   UNL     1       5.915   4.994  19.616  0.00  0.00    +0.000 OA
ATOM      4  H   UNL     1       4.898   4.626  16.606  0.00  0.00    +0.000 HD
ENDROOT
BRANCH   2   5
ATOM      5  C   UNL     1       3.692   4.545  18.855  0.00  0.00    +0.000 C 
ATOM      6  C   UNL     1       2.911   4.281  17.572  0.00  0.00    +0.000 C 
ATOM      7  C   UNL     1       1.634   3.698  18.131  0.00  0.00    +0.000 C 
ATOM      8  O   UNL     1       0.540   3.742  17.596  0.00  0.00    +0.000 OA
ATOM      9  N   UNL     1       1.947   3.126  19.361  0.00  0.00    +0.000 N 
ATOM     10  C   UNL     1       3.344   3.314  19.684  0.00  0.00    +0.000 C 
BRANCH   9  11
ATOM     11  C   UNL     1       0.970   2.598  20.294  0.00  0.00    +0.000 C 
ATOM     12  C   UNL     1       1.477   2.646  21.729  0.00  0.00    +0.000 C 
ENDBRANCH   9  11
ENDBRANCH   2   5
BRANCH   1  13
ATOM     13  C   UNL     1       6.919   5.218  16.893  0.00  0.00    +0.000 C 
ATOM     14  C   UNL     1       8.017   4.408  17.606  0.00  0.00    +0.000 C 
ATOM     15  C   UNL     1       7.096   6.727  17.162  0.00  0.00    +0.000 C 
BRANCH  13  18
ATOM     16  C   UNL     1       6.756   4.236  13.446  0.00  0.00    +0.000 A 
ATOM     17  N   UNL     1       6.318   4.041  14.678  0.00  0.00    +0.000 NA
ATOM     18  C   UNL     1       7.042   4.984  15.386  0.00  0.00    +0.000 A 
ATOM     19  N   UNL     1       7.870   5.726  14.631  0.00  0.00    +0.000 NA
ATOM     20  O   UNL     1       7.684   5.228  13.350  0.00  0.00    +0.000 OA
BRANCH  16  21
ATOM     21  C   UNL     1       6.425   3.546  12.172  0.00  0.00    +0.000 C 
BRANCH  21  23
ATOM     22  C   UNL     1       4.090   3.329  11.255  0.00  0.00    +0.000 C 
ATOM     23  C   UNL     1       5.101   2.795  12.259  0.00  0.00    +0.000 C 
ENDBRANCH  21  23
ENDBRANCH  16  21
ENDBRANCH  13  18
ENDBRANCH   1  13
TORSDOF 6
ENDMDL
MODEL 3
REMARK VINA RESULT:      -7.7      2.453      4.661
REMARK  Name = 
REMARK  10 active torsions:
REMARK  status: ('A' for Active; 'I' for Inactive)
REMARK    1  A    between atoms: C_1  and  C_2
REMARK    2  A    between atoms: C_2  and  C_3
REMARK    3  A    between atoms: C_3  and  C_4
REMARK    4  A    between atoms: C_6  and  C_7
REMARK    5  A    between atoms: C_7  and  C_8
REMARK    6  A    between atoms: C_7  and  C_9
REMARK    7  A    between atoms: C_7  and  N_10
REMARK    8  A    between atoms: C_11  and  C_13
REMARK    9  A    between atoms: N_17  and  C_18
REMARK   10  A    between atoms: C_18  and  C_19
REMARK                            x       y       z     vdW  Elec       q    Type
REMARK                         _______ _______ _______ _____ _____    ______ ____
ROOT
ATOM      1  N   UNL     1       4.821   4.680  17.241  0.00  0.00    +0.000 N 
ATOM      2  C   UNL     1       3.830   5.508  17.734  0.00  0.00    +0.000 C 
ATOM      3  O   UNL     1       3.828   6.729  17.613  0.00  0.00    +0.000 OA
ATOM      4  H   UNL     1       4.740   3.674  17.345  0.00  0.00    +0.000 HD
ENDROOT
BRANCH   2   5
ATOM      5  C   UNL     1       2.677   4.774  18.373  0.00  0.00    +0.000 C 
ATOM      6  C   UNL     1       2.032   3.702  17.500  0.00  0.00    +0.000 C 
ATOM      7  C   UNL     1       1.261   2.918  18.536  0.00  0.00    +0.000 C 
ATOM      8  O   UNL     1       0.251   2.269  18.327  0.00  0.00    +0.000 OA
ATOM      9  N   UNL     1       1.911   3.093  19.754  0.00  0.00    +0.000 N 
ATOM     10  C   UNL     1       3.051   3.973  19.615  0.00  0.00    +0.000 C 
BRANCH   9  11
ATOM     11  C   UNL     1       1.401   2.635  21.032  0.00  0.00    +0.000 C 
ATOM     12  C   UNL     1       2.207   3.196  22.195  0.00  0.00    +0.000 C 
ENDBRANCH   9  11
ENDBRANCH   2   5
BRANCH   1  13
ATOM     13  C   UNL     1       5.927   5.142  16.368  0.00  0.00    +0.000 C 
ATOM     14  C   UNL     1       5.370   5.795  15.090  0.00  0.00    +0.000 C 
ATOM     15  C   UNL     1       6.845   3.953  16.015  0.00  0.00    +0.000 C 
BRANCH  13  18
ATOM     16  C   UNL     1       7.663   7.984  17.704  0.00  0.00    +0.000 A 
ATOM     17  N   UNL     1       6.873   7.510  16.755  0.00  0.00    +0.000 NA
ATOM     18  C   UNL     1       6.760   6.181  17.122  0.00  0.00    +0.000 A 
ATOM     19  N   UNL     1       7.431   5.857  18.239  0.00  0.00    +0.000 NA
ATOM     20  O   UNL     1       8.032   7.048  18.621  0.00  0.00    +0.000 OA
BRANCH  16  21
ATOM     21  C   UNL     1       8.225   9.343  17.917  0.00  0.00    +0.000 C 
BRANCH  21  23
ATOM     22  C   UNL     1       9.699  10.792  19.356  0.00  0.00    +0.000 C 
ATOM     23  C   UNL     1       9.070   9.417  19.185  0.00  0.00    +0.000 C 
ENDBRANCH  21  23
ENDBRANCH  16  21
ENDBRANCH  13  18
ENDBRANCH   1  13
TORSDOF 6
ENDMDL
MODEL 4
REMARK VINA RESULT:      -7.5      2.491      4.951
REMARK  Name = 
REMARK  10 active torsions:
REMARK  status: ('A' for Active; 'I' for Inactive)
REMARK    1  A    between atoms: C_1  and  C_2
REMARK    2  A    between atoms: C_2  and  C_3
REMARK    3  A    between atoms: C_3  and  C_4
REMARK    4  A    between atoms: C_6  and  C_7
REMARK    5  A    between atoms: C_7  and  C_8
REMARK    6  A    between atoms: C_7  and  C_9
REMARK    7  A    between atoms: C_7  and  N_10
REMARK    8  A    between atoms: C_11  and  C_13
REMARK    9  A    between atoms: N_17  and  C_18
REMARK   10  A    between atoms: C_18  and  C_19
REMARK                            x       y       z     vdW  Elec       q    Type
REMARK                         _______ _______ _______ _____ _____    ______ ____
ROOT
ATOM      1  N   UNL     1       5.429   5.282  17.522  0.00  0.00    +0.000 N 
ATOM      2  C   UNL     1       4.631   4.261  17.038  0.00  0.00    +0.000 C 
ATOM      3  O   UNL     1       4.977   3.472  16.164  0.00  0.00    +0.000 OA
ATOM      4  H   UNL     1       5.092   5.875  18.273  0.00  0.00    +0.000 HD
ENDROOT
BRANCH   2   5
ATOM      5  C   UNL     1       3.304   4.131  17.741  0.00  0.00    +0.000 C 
ATOM      6  C   UNL     1       2.489   2.899  17.362  0.00  0.00    +0.000 C 
ATOM      7  C   UNL     1       1.495   2.853  18.499  0.00  0.00    +0.000 C 
ATOM      8  O   UNL     1       0.380   2.365  18.446  0.00  0.00    +0.000 OA
ATOM      9  N   UNL     1       2.089   3.479  19.590  0.00  0.00    +0.000 N 
ATOM     10  C   UNL     1       3.406   3.976  19.255  0.00  0.00    +0.000 C 
BRANCH   9  11
ATOM     11  C   UNL     1       1.407   3.786  20.833  0.00  0.00    +0.000 C 
ATOM     12  C   UNL     1       1.486   2.630  21.820  0.00  0.00    +0.000 C 
ENDBRANCH   9  11
ENDBRANCH   2   5
BRANCH   1  13
ATOM     13  C   UNL     1       6.857   5.458  17.163  0.00  0.00    +0.000 C 
ATOM     14  C   UNL     1       7.071   5.202  15.659  0.00  0.00    +0.000 C 
ATOM     15  C   UNL     1       7.728   4.504  18.007  0.00  0.00    +0.000 C 
BRANCH  13  18
ATOM     16  C   UNL     1       8.256   8.559  18.303  0.00  0.00    +0.000 A 
ATOM     17  N   UNL     1       8.240   7.241  18.411  0.00  0.00    +0.000 NA
ATOM     18  C   UNL     1       7.279   6.895  17.478  0.00  0.00    +0.000 A 
ATOM     19  N   UNL     1       6.742   7.938  16.824  0.00  0.00    +0.000 NA
ATOM     20  O   UNL     1       7.384   9.038  17.373  0.00  0.00    +0.000 OA
BRANCH  16  21
ATOM     21  C   UNL     1       9.038   9.589  19.035  0.00  0.00    +0.000 C 
BRANCH  21  23
ATOM     22  C   UNL     1      10.525  11.557  18.526  0.00  0.00    +0.000 C 
ATOM     23  C   UNL     1       9.206  10.865  18.216  0.00  0.00    +0.000 C 
ENDBRANCH  21  23
ENDBRANCH  16  21
ENDBRANCH  13  18
ENDBRANCH   1  13
TORSDOF 6
ENDMDL
MODEL 5
REMARK VINA RESULT:      -7.3      1.615      1.856
REMARK  Name = 
REMARK  10 active torsions:
REMARK  status: ('A' for Active; 'I' for Inactive)
REMARK    1  A    between atoms: C_1  and  C_2
REMARK    2  A    between atoms: C_2  and  C_3
REMARK    3  A    between atoms: C_3  and  C_4
REMARK    4  A    between atoms: C_6  and  C_7
REMARK    5  A    between atoms: C_7  and  C_8
REMARK    6  A    between atoms: C_7  and  C_9
REMARK    7  A    between atoms: C_7  and  N_10
REMARK    8  A    between atoms: C_11  and  C_13
REMARK    9  A    between atoms: N_17  and  C_18
REMARK   10  A    between atoms: C_18  and  C_19
REMARK                            x       y       z     vdW  Elec       q    Type
REMARK                         _______ _______ _______ _____ _____    ______ ____
ROOT
ATOM      1  N   UNL     1       5.692   4.795  17.777  0.00  0.00    +0.000 N 
ATOM      2  C   UNL     1       5.543   4.798  19.152  0.00  0.00    +0.000 C 
ATOM      3  O   UNL     1       6.454   5.019  19.944  0.00  0.00    +0.000 OA
ATOM      4  H   UNL     1       4.886   4.641  17.181  0.00  0.00    +0.000 HD
ENDROOT
BRANCH   2   5
ATOM      5  C   UNL     1       4.123   4.590  19.617  0.00  0.00    +0.000 C 
ATOM      6  C   UNL     1       3.346   5.869  19.911  0.00  0.00    +0.000 C 
ATOM      7  C   UNL     1       1.929   5.346  19.921  0.00  0.00    +0.000 C 
ATOM      8  O   UNL     1       0.997   5.835  20.536  0.00  0.00    +0.000 OA
ATOM      9  N   UNL     1       1.904   4.209  19.119  0.00  0.00    +0.000 N 
ATOM     10  C   UNL     1       3.219   3.911  18.595  0.00  0.00    +0.000 C 
BRANCH   9  11
ATOM     11  C   UNL     1       0.767   3.317  18.992  0.00  0.00    +0.000 C 
ATOM     12  C   UNL     1       1.203   1.873  18.787  0.00  0.00    +0.000 C 
ENDBRANCH   9  11
ENDBRANCH   2   5
BRANCH   1  13
ATOM     13  C   UNL     1       6.932   5.212  17.079  0.00  0.00    +0.000 C 
ATOM     14  C   UNL     1       8.154   4.478  17.661  0.00  0.00    +0.000 C 
ATOM     15  C   UNL     1       7.108   6.741  17.198  0.00  0.00    +0.000 C 
BRANCH  13  18
ATOM     16  C   UNL     1       6.170   4.021  13.781  0.00  0.00    +0.000 A 
ATOM     17  N   UNL     1       5.890   3.971  15.072  0.00  0.00    +0.000 NA
ATOM     18  C   UNL     1       6.813   4.860  15.594  0.00  0.00    +0.000 A 
ATOM     19  N   UNL     1       7.608   5.433  14.676  0.00  0.00    +0.000 NA
ATOM     20  O   UNL     1       7.186   4.875  13.479  0.00  0.00    +0.000 OA
BRANCH  16  21
ATOM     21  C   UNL     1       5.584   3.292  12.626  0.00  0.00    +0.000 C 
BRANCH  21  23
ATOM     22  C   UNL     1       6.439   1.429  11.162  0.00  0.00    +0.000 C 
ATOM     23  C   UNL     1       6.651   2.864  11.623  0.00  0.00    +0.000 C 
ENDBRANCH  21  23
ENDBRANCH  16  21
ENDBRANCH  13  18
ENDBRANCH   1  13
TORSDOF 6
ENDMDL
MODEL 6
REMARK VINA RESULT:      -7.3      0.919      1.224
REMARK  Name = 
REMARK  10 active torsions:
REMARK  status: ('A' for Active; 'I' for Inactive)
REMARK    1  A    between atoms: C_1  and  C_2
REMARK    2  A    between atoms: C_2  and  C_3
REMARK    3  A    between atoms: C_3  and  C_4
REMARK    4  A    between atoms: C_6  and  C_7
REMARK    5  A    between atoms: C_7  and  C_8
REMARK    6  A    between atoms: C_7  and  C_9
REMARK    7  A    between atoms: C_7  and  N_10
REMARK    8  A    between atoms: C_11  and  C_13
REMARK    9  A    between atoms: N_17  and  C_18
REMARK   10  A    between atoms: C_18  and  C_19
REMARK                            x       y       z     vdW  Elec       q    Type
REMARK                         _______ _______ _______ _____ _____    ______ ____
ROOT
ATOM      1  N   UNL     1       5.363   5.033  18.141  0.00  0.00    +0.000 N 
ATOM      2  C   UNL     1       4.099   5.522  17.863  0.00  0.00    +0.000 C 
ATOM      3  O   UNL     1       3.872   6.441  17.083  0.00  0.00    +0.000 OA
ATOM      4  H   UNL     1       5.475   4.245  18.769  0.00  0.00    +0.000 HD
ENDROOT
BRANCH   2   5
ATOM      5  C   UNL     1       2.985   4.764  18.540  0.00  0.00    +0.000 C 
ATOM      6  C   UNL     1       2.023   4.050  17.596  0.00  0.00    +0.000 C 
ATOM      7  C   UNL     1       1.345   3.094  18.549  0.00  0.00    +0.000 C 
ATOM      8  O   UNL     1       0.222   2.638  18.418  0.00  0.00    +0.000 OA
ATOM      9  N   UNL     1       2.233   2.855  19.593  0.00  0.00    +0.000 N 
ATOM     10  C   UNL     1       3.453   3.614  19.425  0.00  0.00    +0.000 C 
BRANCH   9  11
ATOM     11  C   UNL     1       1.907   2.115  20.798  0.00  0.00    +0.000 C 
ATOM     12  C   UNL     1       1.684   3.040  21.986  0.00  0.00    +0.000 C 
ENDBRANCH   9  11
ENDBRANCH   2   5
BRANCH   1  13
ATOM     13  C   UNL     1       6.589   5.450  17.417  0.00  0.00    +0.000 C 
ATOM     14  C   UNL     1       7.847   4.951  18.152  0.00  0.00    +0.000 C 
ATOM     15  C   UNL     1       6.615   6.987  17.278  0.00  0.00    +0.000 C 
BRANCH  13  18
ATOM     16  C   UNL     1       6.933   4.508  13.972  0.00  0.00    +0.000 A 
ATOM     17  N   UNL     1       7.230   5.381  14.920  0.00  0.00    +0.000 NA
ATOM     18  C   UNL     1       6.572   4.844  16.012  0.00  0.00    +0.000 A 
ATOM     19  N   UNL     1       5.916   3.700  15.755  0.00  0.00    +0.000 NA
ATOM     20  O   UNL     1       6.151   3.481  14.406  0.00  0.00    +0.000 OA
BRANCH  16  21
ATOM     21  C   UNL     1       7.285   4.477  12.529  0.00  0.00    +0.000 C 
BRANCH  21  23
ATOM     22  C   UNL     1       7.363   2.294  11.276  0.00  0.00    +0.000 C 
ATOM     23  C   UNL     1       6.478   3.430  11.769  0.00  0.00    +0.000 C 
ENDBRANCH  21  23
ENDBRANCH  16  21
ENDBRANCH  13  18
ENDBRANCH   1  13
TORSDOF 6
ENDMDL
MODEL 7
REMARK VINA RESULT:      -7.2      1.331      1.463
REMARK  Name = 
REMARK  10 active torsions:
REMARK  status: ('A' for Active; 'I' for Inactive)
REMARK    1  A    between atoms: C_1  and  C_2
REMARK    2  A    between atoms: C_2  and  C_3
REMARK    3  A    between atoms: C_3  and  C_4
REMARK    4  A    between atoms: C_6  and  C_7
REMARK    5  A    between atoms: C_7  and  C_8
REMARK    6  A    between atoms: C_7  and  C_9
REMARK    7  A    between atoms: C_7  and  N_10
REMARK    8  A    between atoms: C_11  and  C_13
REMARK    9  A    between atoms: N_17  and  C_18
REMARK   10  A    between atoms: C_18  and  C_19
REMARK                            x       y       z     vdW  Elec       q    Type
REMARK                         _______ _______ _______ _____ _____    ______ ____
ROOT
ATOM      1  N   UNL     1       5.837   4.769  17.794  0.00  0.00    +0.000 N 
ATOM      2  C   UNL     1       5.662   4.865  19.163  0.00  0.00    +0.000 C 
ATOM      3  O   UNL     1       6.543   5.196  19.949  0.00  0.00    +0.000 OA
ATOM      4  H   UNL     1       5.053   4.526  17.199  0.00  0.00    +0.000 HD
ENDROOT
BRANCH   2   5
ATOM      5  C   UNL     1       4.247   4.610  19.620  0.00  0.00    +0.000 C 
ATOM      6  C   UNL     1       3.164   5.242  18.751  0.00  0.00    +0.000 C 
ATOM      7  C   UNL     1       1.947   4.471  19.207  0.00  0.00    +0.000 C 
ATOM      8  O   UNL     1       0.798   4.875  19.172  0.00  0.00    +0.000 OA
ATOM      9  N   UNL     1       2.393   3.240  19.679  0.00  0.00    +0.000 N 
ATOM     10  C   UNL     1       3.835   3.143  19.604  0.00  0.00    +0.000 C 
BRANCH   9  11
ATOM     11  C   UNL     1       1.556   2.266  20.354  0.00  0.00    +0.000 C 
ATOM     12  C   UNL     1       1.447   2.553  21.845  0.00  0.00    +0.000 C 
ENDBRANCH   9  11
ENDBRANCH   2   5
BRANCH   1  13
ATOM     13  C   UNL     1       7.065   5.204  17.085  0.00  0.00    +0.000 C 
ATOM     14  C   UNL     1       8.295   4.451  17.623  0.00  0.00    +0.000 C 
ATOM     15  C   UNL     1       7.248   6.729  17.247  0.00  0.00    +0.000 C 
BRANCH  13  18
ATOM     16  C   UNL     1       6.252   4.098  13.771  0.00  0.00    +0.000 A 
ATOM     17  N   UNL     1       6.007   3.999  15.066  0.00  0.00    +0.000 NA
ATOM     18  C   UNL     1       6.918   4.896  15.594  0.00  0.00    +0.000 A 
ATOM     19  N   UNL     1       7.673   5.521  14.676  0.00  0.00    +0.000 NA
ATOM     20  O   UNL     1       7.236   4.990  13.471  0.00  0.00    +0.000 OA
BRANCH  16  21
ATOM     21  C   UNL     1       5.658   3.390  12.607  0.00  0.00    +0.000 C 
BRANCH  21  23
ATOM     22  C   UNL     1       6.337   1.407  11.211  0.00  0.00    +0.000 C 
ATOM     23  C   UNL     1       6.726   2.796  11.695  0.00  0.00    +0.000 C 
ENDBRANCH  21  23
ENDBRANCH  16  21
ENDBRANCH  13  18
ENDBRANCH   1  13
TORSDOF 6
ENDMDL
MODEL 8
REMARK VINA RESULT:      -7.2      1.695      2.079
REMARK  Name = 
REMARK  10 active torsions:
REMARK  status: ('A' for Active; 'I' for Inactive)
REMARK    1  A    between atoms: C_1  and  C_2
REMARK    2  A    between atoms: C_2  and  C_3
REMARK    3  A    between atoms: C_3  and  C_4
REMARK    4  A    between atoms: C_6  and  C_7
REMARK    5  A    between atoms: C_7  and  C_8
REMARK    6  A    between atoms: C_7  and  C_9
REMARK    7  A    between atoms: C_7  and  N_10
REMARK    8  A    between atoms: C_11  and  C_13
REMARK    9  A    between atoms: N_17  and  C_18
REMARK   10  A    between atoms: C_18  and  C_19
REMARK                            x       y       z     vdW  Elec       q    Type
REMARK                         _______ _______ _______ _____ _____    ______ ____
ROOT
ATOM      1  N   UNL     1       5.376   5.318  17.239  0.00  0.00    +0.000 N 
ATOM      2  C   UNL     1       4.954   4.508  18.277  0.00  0.00    +0.000 C 
ATOM      3  O   UNL     1       5.667   3.684  18.842  0.00  0.00    +0.000 OA
ATOM      4  H   UNL     1       4.743   6.004  16.843  0.00  0.00    +0.000 HD
ENDROOT
BRANCH   2   5
ATOM      5  C   UNL     1       3.543   4.780  18.735  0.00  0.00    +0.000 C 
ATOM      6  C   UNL     1       2.841   3.600  19.399  0.00  0.00    +0.000 C 
ATOM      7  C   UNL     1       1.692   4.302  20.085  0.00  0.00    +0.000 C 
ATOM      8  O   UNL     1       0.616   3.800  20.358  0.00  0.00    +0.000 OA
ATOM      9  N   UNL     1       2.094   5.612  20.324  0.00  0.00    +0.000 N 
ATOM     10  C   UNL     1       3.426   5.852  19.813  0.00  0.00    +0.000 C 
BRANCH   9  11
ATOM     11  C   UNL     1       1.225   6.661  20.823  0.00  0.00    +0.000 C 
ATOM     12  C   UNL     1       1.700   8.041  20.391  0.00  0.00    +0.000 C 
ENDBRANCH   9  11
ENDBRANCH   2   5
BRANCH   1  13
ATOM     13  C   UNL     1       6.783   5.407  16.778  0.00  0.00    +0.000 C 
ATOM     14  C   UNL     1       7.680   4.459  17.596  0.00  0.00    +0.000 C 
ATOM     15  C   UNL     1       7.279   6.864  16.899  0.00  0.00    +0.000 C 
BRANCH  13  18
ATOM     16  C   UNL     1       6.441   4.099  13.455  0.00  0.00    +0.000 A 
ATOM     17  N   UNL     1       5.991   4.105  14.698  0.00  0.00    +0.000 NA
ATOM     18  C   UNL     1       6.855   4.998  15.306  0.00  0.00    +0.000 A 
ATOM     19  N   UNL     1       7.777   5.523  14.482  0.00  0.00    +0.000 NA
ATOM     20  O   UNL     1       7.507   4.924  13.260  0.00  0.00    +0.000 OA
BRANCH  16  21
ATOM     21  C   UNL     1       5.999   3.334  12.260  0.00  0.00    +0.000 C 
BRANCH  21  23
ATOM     22  C   UNL     1       3.980   3.470  10.761  0.00  0.00    +0.000 C 
ATOM     23  C   UNL     1       4.479   3.234  12.179  0.00  0.00    +0.000 C 
ENDBRANCH  21  23
ENDBRANCH  16  21
ENDBRANCH  13  18
ENDBRANCH   1  13
TORSDOF 6
ENDMDL
MODEL 9
REMARK VINA RESULT:      -7.1      2.610      5.053
REMARK  Name = 
REMARK  10 active torsions:
REMARK  status: ('A' for Active; 'I' for Inactive)
REMARK    1  A    between atoms: C_1  and  C_2
REMARK    2  A    between atoms: C_2  and  C_3
REMARK    3  A    between atoms: C_3  and  C_4
REMARK    4  A    between atoms: C_6  and  C_7
REMARK    5  A    between atoms: C_7  and  C_8
REMARK    6  A    between atoms: C_7  and  C_9
REMARK    7  A    between atoms: C_7  and  N_10
REMARK    8  A    between atoms: C_11  and  C_13
REMARK    9  A    between atoms: N_17  and  C_18
REMARK   10  A    between atoms: C_18  and  C_19
REMARK                            x       y       z     vdW  Elec       q    Type
REMARK                         _______ _______ _______ _____ _____    ______ ____
ROOT
ATOM      1  N   UNL     1       5.241   5.248  17.379  0.00  0.00    +0.000 N 
ATOM      2  C   UNL     1       4.322   4.294  16.980  0.00  0.00    +0.000 C 
ATOM      3  O   UNL     1       4.371   3.695  15.910  0.00  0.00    +0.000 OA
ATOM      4  H   UNL     1       5.160   5.677  18.295  0.00  0.00    +0.000 HD
ENDROOT
BRANCH   2   5
ATOM      5  C   UNL     1       3.278   3.973  18.020  0.00  0.00    +0.000 C 
ATOM      6  C   UNL     1       2.040   3.257  17.491  0.00  0.00    +0.000 C 
ATOM      7  C   UNL     1       1.446   2.729  18.776  0.00  0.00    +0.000 C 
ATOM      8  O   UNL     1       0.266   2.493  18.968  0.00  0.00    +0.000 OA
ATOM      9  N   UNL     1       2.491   2.585  19.684  0.00  0.00    +0.000 N 
ATOM     10  C   UNL     1       3.747   3.013  19.107  0.00  0.00    +0.000 C 
BRANCH   9  11
ATOM     11  C   UNL     1       2.322   2.254  21.086  0.00  0.00    +0.000 C 
ATOM     12  C   UNL     1       2.062   3.493  21.931  0.00  0.00    +0.000 C 
ENDBRANCH   9  11
ENDBRANCH   2   5
BRANCH   1  13
ATOM     13  C   UNL     1       6.488   5.556  16.639  0.00  0.00    +0.000 C 
ATOM     14  C   UNL     1       6.164   6.057  15.219  0.00  0.00    +0.000 C 
ATOM     15  C   UNL     1       7.384   4.301  16.581  0.00  0.00    +0.000 C 
BRANCH  13  18
ATOM     16  C   UNL     1       8.061   8.514  17.924  0.00  0.00    +0.000 A 
ATOM     17  N   UNL     1       7.322   7.974  16.969  0.00  0.00    +0.000 NA
ATOM     18  C   UNL     1       7.253   6.655  17.380  0.00  0.00    +0.000 A 
ATOM     19  N   UNL     1       7.901   6.399  18.528  0.00  0.00    +0.000 NA
ATOM     20  O   UNL     1       8.439   7.627  18.885  0.00  0.00    +0.000 OA
BRANCH  16  21
ATOM     21  C   UNL     1       8.559   9.902  18.106  0.00  0.00    +0.000 C 
BRANCH  21  23
ATOM     22  C   UNL     1       9.524  11.529  19.768  0.00  0.00    +0.000 C 
ATOM     23  C   UNL     1       9.334  10.063  19.409  0.00  0.00    +0.000 C 
ENDBRANCH  21  23
ENDBRANCH  16  21
ENDBRANCH  13  18
ENDBRANCH   1  13
TORSDOF 6
ENDMDL
