MODEL 1
REMARK VINA RESULT:      -8.1      0.000      0.000
REMARK  Name = 
REMARK  6 active torsions:
REMARK  status: ('A' for Active; 'I' for Inactive)
REMARK    1  A    between atoms: C_1  and  C_2
REMARK    2  A    between atoms: C_2  and  C_3
REMARK    3  A    between atoms: C_2  and  C_4
REMARK    4  A    between atoms: C_12  and  C_13
REMARK    5  A    between atoms: C_12  and  C_14
REMARK    6  A    between atoms: C_18  and  C_19
REMARK                            x       y       z     vdW  Elec       q    Type
REMARK                         _______ _______ _______ _____ _____    ______ ____
ROOT
ATOM      1  C   UNL     1       2.258   7.843  18.856  0.00  0.00    +0.000 C 
ATOM      2  C   UNL     1       3.142   8.103  17.848  0.00  0.00    +0.000 C 
ATOM      3  C   UNL     1       4.120   6.912  17.328  0.00  0.00    +0.000 C 
ATOM      4  O   UNL     1       5.024   7.134  16.538  0.00  0.00    +0.000 OA
ATOM      5  C   UNL     1       3.666   5.530  17.716  0.00  0.00    +0.000 C 
ATOM      6  C   UNL     1       2.361   5.700  17.855  0.00  0.00    +0.000 C 
ATOM      7  C   UNL     1       1.634   4.488  17.668  0.00  0.00    +0.000 C 
ATOM      8  C   UNL     1       2.430   3.589  18.269  0.00  0.00    +0.000 C 
ATOM      9  C   UNL     1       1.856   3.102  19.608  0.00  0.00    +0.000 C 
ATOM     10  C   UNL     1       0.717   3.995  20.236  0.00  0.00    +0.000 C 
ATOM     11  C   UNL     1       1.159   1.792  19.213  0.00  0.00    +0.000 C 
ATOM     12  C   UNL     1       2.936   2.931  20.682  0.00  0.00    +0.000 C 
ATOM     13  C   UNL     1       4.299   2.560  20.121  0.00  0.00    +0.000 C 
ATOM     14  C   UNL     1       4.849   3.678  19.209  0.00  0.00    +0.000 C 
ATOM     15  C   UNL     1       3.934   4.027  17.992  0.00  0.00    +0.000 C 
ATOM     16  C   UNL     1       4.426   3.179  16.797  0.00  0.00    +0.000 C 
ATOM     17  C   UNL     1       2.410   6.441  19.147  0.00  0.00    +0.000 C 
ATOM     18  O   UNL     1       2.818   6.059  20.235  0.00  0.00    +0.000 OA
ENDROOT
BRANCH   1  20
ATOM     19  C   UNL     1       0.669   9.800  19.479  0.00  0.00    +0.000 C 
ATOM     20  C   UNL     1       1.250   8.424  19.826  0.00  0.00    +0.000 C 
ATOM     21  C   UNL     1       1.602   8.269  21.293  0.00  0.00    +0.000 C 
ENDBRANCH   1  20
TORSDOF 1
ENDMDL
MODEL 2
REMARK VINA RESULT:      -7.9      1.866      4.397
REMARK  Name = 
REMARK  6 active torsions:
REMARK  status: ('A' for Active; 'I' for Inactive)
REMARK    1  A    between atoms: C_1  and  C_2
REMARK    2  A    between atoms: C_2  and  C_3
REMARK    3  A    between atoms: C_2  and  C_4
REMARK    4  A    between atoms: C_12  and  C_13
REMARK    5  A    between atoms: C_12  and  C_14
REMARK    6  A    between atoms: C_18  and  C_19
REMARK                            x       y       z     vdW  Elec       q    Type
REMARK                         _______ _______ _______ _____ _____    ______ ____
ROOT
ATOM      1  C   UNL     1       5.171   5.469  16.544  0.00  0.00    +0.000 C 
ATOM      2  C   UNL     1       4.686   6.742  16.634  0.00  0.00    +0.000 C 
ATOM      3  C   UNL     1       3.370   7.023  17.549  0.00  0.00    +0.000 C 
ATOM      4  O   UNL     1       2.813   8.109  17.542  0.00  0.00    +0.000 OA
ATOM      5  C   UNL     1       3.068   5.932  18.542  0.00  0.00    +0.000 C 
ATOM      6  C   UNL     1       4.261   5.394  18.728  0.00  0.00    +0.000 C 
ATOM      7  C   UNL     1       4.370   4.740  19.991  0.00  0.00    +0.000 C 
ATOM      8  C   UNL     1       3.163   4.164  20.112  0.00  0.00    +0.000 C 
ATOM      9  C   UNL     1       3.220   2.642  19.920  0.00  0.00    +0.000 C 
ATOM     10  C   UNL     1       4.521   2.082  19.224  0.00  0.00    +0.000 C 
ATOM     11  C   UNL     1       3.291   2.127  21.365  0.00  0.00    +0.000 C 
ATOM     12  C   UNL     1       2.021   2.104  19.129  0.00  0.00    +0.000 C 
ATOM     13  C   UNL     1       0.754   2.922  19.315  0.00  0.00    +0.000 C 
ATOM     14  C   UNL     1       0.938   4.362  18.789  0.00  0.00    +0.000 C 
ATOM     15  C   UNL     1       2.097   5.156  19.471  0.00  0.00    +0.000 C 
ATOM     16  C   UNL     1       1.475   5.949  20.642  0.00  0.00    +0.000 C 
ATOM     17  C   UNL     1       4.347   4.681  17.422  0.00  0.00    +0.000 C 
ATOM     18  O   UNL     1       3.636   3.784  16.990  0.00  0.00    +0.000 OA
ENDROOT
BRANCH   1  20
ATOM     19  C   UNL     1       7.537   4.397  16.518  0.00  0.00    +0.000 C 
ATOM     20  C   UNL     1       6.159   4.545  15.861  0.00  0.00    +0.000 C 
ATOM     21  C   UNL     1       6.220   4.669  14.350  0.00  0.00    +0.000 C 
ENDBRANCH   1  20
TORSDOF 1
ENDMDL
MODEL 3
REMARK VINA RESULT:      -7.2      1.635      3.843
REMARK  Name = 
REMARK  6 active torsions:
REMARK  status: ('A' for Active; 'I' for Inactive)
REMARK    1  A    between atoms: C_1  and  C_2
REMARK    2  A    between atoms: C_2  and  C_3
REMARK    3  A    between atoms: C_2  and  C_4
REMARK    4  A    between atoms: C_12  and  C_13
REMARK    5  A    between atoms: C_12  and  C_14
REMARK    6  A    between atoms: C_18  and  C_19
REMARK                            x       y       z     vdW  Elec       q    Type
REMARK                         _______ _______ _______ _____ _____    ______ ____
ROOT
ATOM      1  C   UNL     1       2.010   7.075  19.740  0.00  0.00    +0.000 C 
ATOM      2  C   UNL     1       1.490   6.193  20.643  0.00  0.00    +0.000 C 
ATOM      3  C   UNL     1       1.881   4.618  20.527  0.00  0.00    +0.000 C 
ATOM      4  O   UNL     1       1.328   3.775  21.214  0.00  0.00    +0.000 OA
ATOM      5  C   UNL     1       3.109   4.351  19.697  0.00  0.00    +0.000 C 
ATOM      6  C   UNL     1       3.769   5.492  19.809  0.00  0.00    +0.000 C 
ATOM      7  C   UNL     1       5.172   5.329  19.605  0.00  0.00    +0.000 C 
ATOM      8  C   UNL     1       5.206   4.436  18.603  0.00  0.00    +0.000 C 
ATOM      9  C   UNL     1       5.627   5.070  17.269  0.00  0.00    +0.000 C 
ATOM     10  C   UNL     1       5.533   6.644  17.193  0.00  0.00    +0.000 C 
ATOM     11  C   UNL     1       7.130   4.760  17.213  0.00  0.00    +0.000 C 
ATOM     12  C   UNL     1       4.835   4.515  16.079  0.00  0.00    +0.000 C 
ATOM     13  C   UNL     1       4.383   3.076  16.267  0.00  0.00    +0.000 C 
ATOM     14  C   UNL     1       3.411   2.949  17.459  0.00  0.00    +0.000 C 
ATOM     15  C   UNL     1       3.999   3.424  18.827  0.00  0.00    +0.000 C 
ATOM     16  C   UNL     1       4.593   2.178  19.522  0.00  0.00    +0.000 C 
ATOM     17  C   UNL     1       2.894   6.298  18.911  0.00  0.00    +0.000 C 
ATOM     18  O   UNL     1       2.678   6.149  17.717  0.00  0.00    +0.000 OA
ENDROOT
BRANCH   1  20
ATOM     19  C   UNL     1       0.995   9.462  19.867  0.00  0.00    +0.000 C 
ATOM     20  C   UNL     1       1.991   8.495  19.214  0.00  0.00    +0.000 C 
ATOM     21  C   UNL     1       2.057   8.625  17.704  0.00  0.00    +0.000 C 
ENDBRANCH   1  20
TORSDOF 1
ENDMDL
MODEL 4
REMARK VINA RESULT:      -6.9      2.407      3.855
REMARK  Name = 
REMARK  6 active torsions:
REMARK  status: ('A' for Active; 'I' for Inactive)
REMARK    1  A    between atoms: C_1  and  C_2
REMARK    2  A    between atoms: C_2  and  C_3
REMARK    3  A    between atoms: C_2  and  C_4
REMARK    4  A    between atoms: C_12  and  C_13
REMARK    5  A    between atoms: C_12  and  C_14
REMARK    6  A    between atoms: C_18  and  C_19
REMARK                            x       y       z     vdW  Elec       q    Type
REMARK                         _______ _______ _______ _____ _____    ______ ____
ROOT
ATOM      1  C   UNL     1       6.703   5.760  17.369  0.00  0.00    +0.000 C 
ATOM      2  C   UNL     1       6.761   5.158  16.145  0.00  0.00    +0.000 C 
ATOM      3  C   UNL     1       5.752   3.924  15.822  0.00  0.00    +0.000 C 
ATOM      4  O   UNL     1       5.866   3.261  14.804  0.00  0.00    +0.000 OA
ATOM      5  C   UNL     1       4.566   3.842  16.747  0.00  0.00    +0.000 C 
ATOM      6  C   UNL     1       4.441   5.098  17.144  0.00  0.00    +0.000 C 
ATOM      7  C   UNL     1       3.111   5.406  17.559  0.00  0.00    +0.000 C 
ATOM      8  C   UNL     1       2.754   4.284  18.204  0.00  0.00    +0.000 C 
ATOM      9  C   UNL     1       2.703   4.477  19.727  0.00  0.00    +0.000 C 
ATOM     10  C   UNL     1       3.452   5.748  20.287  0.00  0.00    +0.000 C 
ATOM     11  C   UNL     1       1.213   4.752  19.977  0.00  0.00    +0.000 C 
ATOM     12  C   UNL     1       3.246   3.264  20.491  0.00  0.00    +0.000 C 
ATOM     13  C   UNL     1       3.043   1.946  19.763  0.00  0.00    +0.000 C 
ATOM     14  C   UNL     1       3.813   1.923  18.425  0.00  0.00    +0.000 C 
ATOM     15  C   UNL     1       3.414   3.060  17.430  0.00  0.00    +0.000 C 
ATOM     16  C   UNL     1       2.319   2.486  16.502  0.00  0.00    +0.000 C 
ATOM     17  C   UNL     1       5.616   5.119  18.061  0.00  0.00    +0.000 C 
ATOM     18  O   UNL     1       5.808   4.462  19.075  0.00  0.00    +0.000 OA
ENDROOT
BRANCH   1  20
ATOM     19  C   UNL     1       7.861   8.063  17.689  0.00  0.00    +0.000 C 
ATOM     20  C   UNL     1       7.342   6.760  18.311  0.00  0.00    +0.000 C 
ATOM     21  C   UNL     1       8.282   6.166  19.342  0.00  0.00    +0.000 C 
ENDBRANCH   1  20
TORSDOF 1
ENDMDL
MODEL 5
REMARK VINA RESULT:      -6.9      9.773     12.540
REMARK  Name = 
REMARK  6 active torsions:
REMARK  status: ('A' for Active; 'I' for Inactive)
REMARK    1  A    between atoms: C_1  and  C_2
REMARK    2  A    between atoms: C_2  and  C_3
REMARK    3  A    between atoms: C_2  and  C_4
REMARK    4  A    between atoms: C_12  and  C_13
REMARK    5  A    between atoms: C_12  and  C_14
REMARK    6  A    between atoms: C_18  and  C_19
REMARK                            x       y       z     vdW  Elec       q    Type
REMARK                         _______ _______ _______ _____ _____    ______ ____
ROOT
ATOM      1  C   UNL     1      10.108  11.802  18.569  0.00  0.00    +0.000 C 
ATOM      2  C   UNL     1      11.074  11.819  17.604  0.00  0.00    +0.000 C 
ATOM      3  C   UNL     1      11.584  13.250  17.020  0.00  0.00    +0.000 C 
ATOM      4  O   UNL     1      12.331  13.311  16.058  0.00  0.00    +0.000 OA
ATOM      5  C   UNL     1      11.249  14.426  17.899  0.00  0.00    +0.000 C 
ATOM      6  C   UNL     1      11.158  13.859  19.091  0.00  0.00    +0.000 C 
ATOM      7  C   UNL     1      11.403  14.783  20.150  0.00  0.00    +0.000 C 
ATOM      8  C   UNL     1      10.793  15.891  19.701  0.00  0.00    +0.000 C 
ATOM      9  C   UNL     1       9.491  16.190  20.458  0.00  0.00    +0.000 C 
ATOM     10  C   UNL     1       8.886  14.994  21.290  0.00  0.00    +0.000 C 
ATOM     11  C   UNL     1       9.945  17.214  21.508  0.00  0.00    +0.000 C 
ATOM     12  C   UNL     1       8.379  16.702  19.534  0.00  0.00    +0.000 C 
ATOM     13  C   UNL     1       8.894  17.472  18.330  0.00  0.00    +0.000 C 
ATOM     14  C   UNL     1       9.755  16.571  17.419  0.00  0.00    +0.000 C 
ATOM     15  C   UNL     1      10.999  15.940  18.124  0.00  0.00    +0.000 C 
ATOM     16  C   UNL     1      12.194  16.887  17.866  0.00  0.00    +0.000 C 
ATOM     17  C   UNL     1       9.847  13.185  18.874  0.00  0.00    +0.000 C 
ATOM     18  O   UNL     1       8.753  13.687  18.655  0.00  0.00    +0.000 OA
ENDROOT
BRANCH   1  20
ATOM     19  C   UNL     1       9.325  11.009  20.915  0.00  0.00    +0.000 C 
ATOM     20  C   UNL     1       9.166  10.947  19.391  0.00  0.00    +0.000 C 
ATOM     21  C   UNL     1       8.943   9.542  18.863  0.00  0.00    +0.000 C 
ENDBRANCH   1  20
TORSDOF 1
ENDMDL
MODEL 6
REMARK VINA RESULT:      -6.8      9.282     12.054
REMARK  Name = 
REMARK  6 active torsions:
REMARK  status: ('A' for Active; 'I' for Inactive)
REMARK    1  A    between atoms: C_1  and  C_2
REMARK    2  A    between atoms: C_2  and  C_3
REMARK    3  A    between atoms: C_2  and  C_4
REMARK    4  A    between atoms: C_12  and  C_13
REMARK    5  A    between atoms: C_12  and  C_14
REMARK    6  A    between atoms: C_18  and  C_19
REMARK                            x       y       z     vdW  Elec       q    Type
REMARK                         _______ _______ _______ _____ _____    ______ ____
ROOT
ATOM      1  C   UNL     1      10.399  11.590  18.634  0.00  0.00    +0.000 C 
ATOM      2  C   UNL     1      11.386  11.927  17.753  0.00  0.00    +0.000 C 
ATOM      3  C   UNL     1      11.543  13.482  17.299  0.00  0.00    +0.000 C 
ATOM      4  O   UNL     1      12.309  13.807  16.405  0.00  0.00    +0.000 OA
ATOM      5  C   UNL     1      10.859  14.461  18.215  0.00  0.00    +0.000 C 
ATOM      6  C   UNL     1      10.842  13.799  19.360  0.00  0.00    +0.000 C 
ATOM      7  C   UNL     1      10.771  14.669  20.488  0.00  0.00    +0.000 C 
ATOM      8  C   UNL     1       9.924  15.617  20.057  0.00  0.00    +0.000 C 
ATOM      9  C   UNL     1       8.544  15.514  20.722  0.00  0.00    +0.000 C 
ATOM     10  C   UNL     1       8.219  14.142  21.430  0.00  0.00    +0.000 C 
ATOM     11  C   UNL     1       8.649  16.535  21.864  0.00  0.00    +0.000 C 
ATOM     12  C   UNL     1       7.398  15.796  19.742  0.00  0.00    +0.000 C 
ATOM     13  C   UNL     1       7.771  16.764  18.632  0.00  0.00    +0.000 C 
ATOM     14  C   UNL     1       8.893  16.186  17.743  0.00  0.00    +0.000 C 
ATOM     15  C   UNL     1      10.210  15.840  18.507  0.00  0.00    +0.000 C 
ATOM     16  C   UNL     1      11.132  17.077  18.404  0.00  0.00    +0.000 C 
ATOM     17  C   UNL     1       9.769  12.832  18.997  0.00  0.00    +0.000 C 
ATOM     18  O   UNL     1       8.598  13.054  18.719  0.00  0.00    +0.000 OA
ENDROOT
BRANCH   1  20
ATOM     19  C   UNL     1       8.625   9.699  18.489  0.00  0.00    +0.000 C 
ATOM     20  C   UNL     1       9.661  10.461  19.324  0.00  0.00    +0.000 C 
ATOM     21  C   UNL     1       9.195  10.764  20.736  0.00  0.00    +0.000 C 
ENDBRANCH   1  20
TORSDOF 1
ENDMDL
MODEL 7
REMARK VINA RESULT:      -6.8      9.451     11.357
REMARK  Name = 
REMARK  6 active torsions:
REMARK  status: ('A' for Active; 'I' for Inactive)
REMARK    1  A    between atoms: C_1  and  C_2
REMARK    2  A    between atoms: C_2  and  C_3
REMARK    3  A    between atoms: C_2  and  C_4
REMARK    4  A    between atoms: C_12  and  C_13
REMARK    5  A    between atoms: C_12  and  C_14
REMARK    6  A    between atoms: C_18  and  C_19
REMARK                            x       y       z     vdW  Elec       q    Type
REMARK                         _______ _______ _______ _____ _____    ______ ____
ROOT
ATOM      1  C   UNL     1       8.481  16.451  19.692  0.00  0.00    +0.000 C 
ATOM      2  C   UNL     1       8.998  17.100  18.608  0.00  0.00    +0.000 C 
ATOM      3  C   UNL     1      10.174  16.381  17.743  0.00  0.00    +0.000 C 
ATOM      4  O   UNL     1      10.769  16.980  16.861  0.00  0.00    +0.000 OA
ATOM      5  C   UNL     1      10.281  14.896  17.968  0.00  0.00    +0.000 C 
ATOM      6  C   UNL     1       9.053  14.588  18.348  0.00  0.00    +0.000 C 
ATOM      7  C   UNL     1       8.732  13.222  18.088  0.00  0.00    +0.000 C 
ATOM      8  C   UNL     1       9.883  12.602  18.392  0.00  0.00    +0.000 C 
ATOM      9  C   UNL     1       9.794  11.817  19.709  0.00  0.00    +0.000 C 
ATOM     10  C   UNL     1       8.589  12.192  20.656  0.00  0.00    +0.000 C 
ATOM     11  C   UNL     1       9.489  10.392  19.225  0.00  0.00    +0.000 C 
ATOM     12  C   UNL     1      11.074  11.926  20.545  0.00  0.00    +0.000 C 
ATOM     13  C   UNL     1      12.332  12.110  19.712  0.00  0.00    +0.000 C 
ATOM     14  C   UNL     1      12.286  13.433  18.918  0.00  0.00    +0.000 C 
ATOM     15  C   UNL     1      11.071  13.561  17.945  0.00  0.00    +0.000 C 
ATOM     16  C   UNL     1      11.544  13.058  16.561  0.00  0.00    +0.000 C 
ATOM     17  C   UNL     1       9.133  15.168  19.718  0.00  0.00    +0.000 C 
ATOM     18  O   UNL     1       9.864  14.847  20.645  0.00  0.00    +0.000 OA
ENDROOT
BRANCH   1  20
ATOM     19  C   UNL     1       8.195  17.061  22.200  0.00  0.00    +0.000 C 
ATOM     20  C   UNL     1       7.569  16.546  20.898  0.00  0.00    +0.000 C 
ATOM     21  C   UNL     1       6.641  15.363  21.100  0.00  0.00    +0.000 C 
ENDBRANCH   1  20
TORSDOF 1
ENDMDL
MODEL 8
REMARK VINA RESULT:      -6.6      1.887      4.398
REMARK  Name = 
REMARK  6 active torsions:
REMARK  status: ('A' for Active; 'I' for Inactive)
REMARK    1  A    between atoms: C_1  and  C_2
REMARK    2  A    between atoms: C_2  and  C_3
REMARK    3  A    between atoms: C_2  and  C_4
REMARK    4  A    between atoms: C_12  and  C_13
REMARK    5  A    between atoms: C_12  and  C_14
REMARK    6  A    between atoms: C_18  and  C_19
REMARK                            x       y       z     vdW  Elec       q    Type
REMARK                         _______ _______ _______ _____ _____    ______ ____
ROOT
ATOM      1  C   UNL     1       2.289   4.200  20.246  0.00  0.00    +0.000 C 
ATOM      2  C   UNL     1       1.774   5.456  20.392  0.00  0.00    +0.000 C 
ATOM      3  C   UNL     1       2.505   6.702  19.644  0.00  0.00    +0.000 C 
ATOM      4  O   UNL     1       2.174   7.856  19.863  0.00  0.00    +0.000 OA
ATOM      5  C   UNL     1       3.425   6.292  18.524  0.00  0.00    +0.000 C 
ATOM      6  C   UNL     1       2.910   5.129  18.159  0.00  0.00    +0.000 C 
ATOM      7  C   UNL     1       3.220   4.801  16.806  0.00  0.00    +0.000 C 
ATOM      8  C   UNL     1       4.489   5.225  16.699  0.00  0.00    +0.000 C 
ATOM      9  C   UNL     1       5.492   4.063  16.651  0.00  0.00    +0.000 C 
ATOM     10  C   UNL     1       4.952   2.664  17.142  0.00  0.00    +0.000 C 
ATOM     11  C   UNL     1       5.726   3.890  15.143  0.00  0.00    +0.000 C 
ATOM     12  C   UNL     1       6.769   4.356  17.447  0.00  0.00    +0.000 C 
ATOM     13  C   UNL     1       7.131   5.830  17.494  0.00  0.00    +0.000 C 
ATOM     14  C   UNL     1       6.040   6.649  18.218  0.00  0.00    +0.000 C 
ATOM     15  C   UNL     1       4.622   6.549  17.571  0.00  0.00    +0.000 C 
ATOM     16  C   UNL     1       4.486   7.736  16.591  0.00  0.00    +0.000 C 
ATOM     17  C   UNL     1       3.389   4.341  19.329  0.00  0.00    +0.000 C 
ATOM     18  O   UNL     1       4.539   4.106  19.676  0.00  0.00    +0.000 OA
ENDROOT
BRANCH   1  20
ATOM     19  C   UNL     1       1.968   1.703  19.608  0.00  0.00    +0.000 C 
ATOM     20  C   UNL     1       2.225   2.754  20.694  0.00  0.00    +0.000 C 
ATOM     21  C   UNL     1       1.442   2.508  21.970  0.00  0.00    +0.000 C 
ENDBRANCH   1  20
TORSDOF 1
ENDMDL
MODEL 9
REMARK VINA RESULT:      -6.6      1.902      4.158
REMARK  Name = 
REMARK  6 active torsions:
REMARK  status: ('A' for Active; 'I' for Inactive)
REMARK    1  A    between atoms: C_1  and  C_2
REMARK    2  A    between atoms: C_2  and  C_3
REMARK    3  A    between atoms: C_2  and  C_4
REMARK    4  A    between atoms: C_12  and  C_13
REMARK    5  A    between atoms: C_12  and  C_14
REMARK    6  A    between atoms: C_18  and  C_19
REMARK                            x       y       z     vdW  Elec       q    Type
REMARK                         _______ _______ _______ _____ _____    ______ ____
ROOT
ATOM      1  C   UNL     1       1.488   4.429  20.430  0.00  0.00    +0.000 C 
ATOM      2  C   UNL     1       1.175   5.747  20.602  0.00  0.00    +0.000 C 
ATOM      3  C   UNL     1       2.145   6.882  19.956  0.00  0.00    +0.000 C 
ATOM      4  O   UNL     1       1.991   8.066  20.207  0.00  0.00    +0.000 OA
ATOM      5  C   UNL     1       3.058   6.365  18.875  0.00  0.00    +0.000 C 
ATOM      6  C   UNL     1       2.387   5.317  18.428  0.00  0.00    +0.000 C 
ATOM      7  C   UNL     1       2.728   4.989  17.082  0.00  0.00    +0.000 C 
ATOM      8  C   UNL     1       4.053   5.203  17.070  0.00  0.00    +0.000 C 
ATOM      9  C   UNL     1       4.856   3.894  17.028  0.00  0.00    +0.000 C 
ATOM     10  C   UNL     1       4.066   2.587  17.423  0.00  0.00    +0.000 C 
ATOM     11  C   UNL     1       5.158   3.738  15.531  0.00  0.00    +0.000 C 
ATOM     12  C   UNL     1       6.109   3.946  17.911  0.00  0.00    +0.000 C 
ATOM     13  C   UNL     1       6.701   5.339  18.046  0.00  0.00    +0.000 C 
ATOM     14  C   UNL     1       5.711   6.299  18.740  0.00  0.00    +0.000 C 
ATOM     15  C   UNL     1       4.341   6.456  18.007  0.00  0.00    +0.000 C 
ATOM     16  C   UNL     1       4.463   7.683  17.075  0.00  0.00    +0.000 C 
ATOM     17  C   UNL     1       2.655   4.420  19.587  0.00  0.00    +0.000 C 
ATOM     18  O   UNL     1       3.726   3.988  19.991  0.00  0.00    +0.000 OA
ENDROOT
BRANCH   1  20
ATOM     19  C   UNL     1       1.849   2.441  22.061  0.00  0.00    +0.000 C 
ATOM     20  C   UNL     1       1.163   2.999  20.809  0.00  0.00    +0.000 C 
ATOM     21  C   UNL     1       1.127   2.018  19.652  0.00  0.00    +0.000 C 
ENDBRANCH   1  20
TORSDOF 1
ENDMDL
