MODEL 1
REMARK VINA RESULT:      -6.1      0.000      0.000
REMARK  Name = 
REMARK  4 active torsions:
REMARK  status: ('A' for Active; 'I' for Inactive)
REMARK    1  A    between atoms: C_4  and  C_5
REMARK    2  A    between atoms: C_5  and  S_6
REMARK    3  A    between atoms: S_6  and  C_7
REMARK    4  A    between atoms: C_7  and  N_9
REMARK                            x       y       z     vdW  Elec       q    Type
REMARK                         _______ _______ _______ _____ _____    ______ ____
ROOT
ATOM      1  S   UNL     1       4.838   4.811  18.594  0.00  0.00    +0.000 S 
ENDROOT
BRANCH   1   2
ATOM      2  C   UNL     1       3.238   5.564  18.833  0.00  0.00    +0.000 C 
ATOM      3  S   UNL     1       2.838   7.093  18.255  0.00  0.00    +0.000 S 
BRANCH   2   4
ATOM      4  N   UNL     1       2.327   4.735  19.488  0.00  0.00    +0.000 N 
ATOM      5  C   UNL     1       2.062   4.710  20.925  0.00  0.00    +0.000 C 
ATOM      6  C   UNL     1       1.599   3.286  21.167  0.00  0.00    +0.000 C 
ATOM      7  C   UNL     1       0.779   2.972  19.923  0.00  0.00    +0.000 C 
ATOM      8  C   UNL     1       1.417   3.807  18.817  0.00  0.00    +0.000 C 
ENDBRANCH   2   4
ENDBRANCH   1   2
BRANCH   1   9
ATOM      9  C   UNL     1       4.734   3.942  17.022  0.00  0.00    +0.000 C 
BRANCH   9  13
ATOM     10  O   UNL     1       7.251   4.739  12.971  0.00  0.00    +0.000 OA
ATOM     11  C   UNL     1       6.938   4.793  14.154  0.00  0.00    +0.000 C 
ATOM     12  C   UNL     1       5.762   4.153  14.732  0.00  0.00    +0.000 C 
ATOM     13  C   UNL     1       5.748   4.437  16.034  0.00  0.00    +0.000 C 
ATOM     14  C   UNL     1       6.931   5.263  16.376  0.00  0.00    +0.000 C 
ATOM     15  O   UNL     1       7.622   5.435  15.131  0.00  0.00    +0.000 OA
ENDBRANCH   9  13
ENDBRANCH   1   9
TORSDOF 4
ENDMDL
MODEL 2
REMARK VINA RESULT:      -6.0      3.902      6.253
REMARK  Name = 
REMARK  4 active torsions:
REMARK  status: ('A' for Active; 'I' for Inactive)
REMARK    1  A    between atoms: C_4  and  C_5
REMARK    2  A    between atoms: C_5  and  S_6
REMARK    3  A    between atoms: S_6  and  C_7
REMARK    4  A    between atoms: C_7  and  N_9
REMARK                            x       y       z     vdW  Elec       q    Type
REMARK                         _______ _______ _______ _____ _____    ______ ____
ROOT
ATOM      1  S   UNL     1       4.180   3.597  17.191  0.00  0.00    +0.000 S 
ENDROOT
BRANCH   1   2
ATOM      2  C   UNL     1       4.133   5.268  17.815  0.00  0.00    +0.000 C 
ATOM      3  S   UNL     1       2.709   6.069  18.214  0.00  0.00    +0.000 S 
BRANCH   2   4
ATOM      4  N   UNL     1       5.399   5.826  18.001  0.00  0.00    +0.000 N 
ATOM      5  C   UNL     1       5.950   6.973  17.285  0.00  0.00    +0.000 C 
ATOM      6  C   UNL     1       7.446   6.723  17.329  0.00  0.00    +0.000 C 
ATOM      7  C   UNL     1       7.655   6.126  18.713  0.00  0.00    +0.000 C 
ATOM      8  C   UNL     1       6.353   5.395  19.023  0.00  0.00    +0.000 C 
ENDBRANCH   2   4
ENDBRANCH   1   2
BRANCH   1   9
ATOM      9  C   UNL     1       2.667   2.819  17.779  0.00  0.00    +0.000 C 
BRANCH   9  13
ATOM     10  O   UNL     1       1.285   2.540  22.405  0.00  0.00    +0.000 OA
ATOM     11  C   UNL     1       2.026   2.543  21.429  0.00  0.00    +0.000 C 
ATOM     12  C   UNL     1       1.582   2.709  20.050  0.00  0.00    +0.000 C 
ATOM     13  C   UNL     1       2.661   2.651  19.270  0.00  0.00    +0.000 C 
ATOM     14  C   UNL     1       3.871   2.464  20.106  0.00  0.00    +0.000 C 
ATOM     15  O   UNL     1       3.374   2.408  21.450  0.00  0.00    +0.000 OA
ENDBRANCH   9  13
ENDBRANCH   1   9
TORSDOF 4
ENDMDL
MODEL 3
REMARK VINA RESULT:      -6.0      2.352      2.576
REMARK  Name = 
REMARK  4 active torsions:
REMARK  status: ('A' for Active; 'I' for Inactive)
REMARK    1  A    between atoms: C_4  and  C_5
REMARK    2  A    between atoms: C_5  and  S_6
REMARK    3  A    between atoms: S_6  and  C_7
REMARK    4  A    between atoms: C_7  and  N_9
REMARK                            x       y       z     vdW  Elec       q    Type
REMARK                         _______ _______ _______ _____ _____    ______ ____
ROOT
ATOM      1  S   UNL     1       3.975   4.618  17.402  0.00  0.00    +0.000 S 
ENDROOT
BRANCH   1   2
ATOM      2  C   UNL     1       2.864   5.533  18.456  0.00  0.00    +0.000 C 
ATOM      3  S   UNL     1       2.613   7.191  18.320  0.00  0.00    +0.000 S 
BRANCH   2   4
ATOM      4  N   UNL     1       2.172   4.730  19.363  0.00  0.00    +0.000 N 
ATOM      5  C   UNL     1       2.079   4.942  20.806  0.00  0.00    +0.000 C 
ATOM      6  C   UNL     1       1.872   3.540  21.348  0.00  0.00    +0.000 C 
ATOM      7  C   UNL     1       0.975   2.893  20.302  0.00  0.00    +0.000 C 
ATOM      8  C   UNL     1       1.346   3.581  18.992  0.00  0.00    +0.000 C 
ENDBRANCH   2   4
ENDBRANCH   1   2
BRANCH   1   9
ATOM      9  C   UNL     1       5.443   4.311  18.398  0.00  0.00    +0.000 C 
BRANCH   9  13
ATOM     10  O   UNL     1       7.823   8.311  17.086  0.00  0.00    +0.000 OA
ATOM     11  C   UNL     1       7.535   7.308  17.728  0.00  0.00    +0.000 C 
ATOM     12  C   UNL     1       6.406   6.432  17.438  0.00  0.00    +0.000 C 
ATOM     13  C   UNL     1       6.408   5.458  18.349  0.00  0.00    +0.000 C 
ATOM     14  C   UNL     1       7.556   5.640  19.269  0.00  0.00    +0.000 C 
ATOM     15  O   UNL     1       8.208   6.828  18.801  0.00  0.00    +0.000 OA
ENDBRANCH   9  13
ENDBRANCH   1   9
TORSDOF 4
ENDMDL
MODEL 4
REMARK VINA RESULT:      -5.9      3.946      6.671
REMARK  Name = 
REMARK  4 active torsions:
REMARK  status: ('A' for Active; 'I' for Inactive)
REMARK    1  A    between atoms: C_4  and  C_5
REMARK    2  A    between atoms: C_5  and  S_6
REMARK    3  A    between atoms: S_6  and  C_7
REMARK    4  A    between atoms: C_7  and  N_9
REMARK                            x       y       z     vdW  Elec       q    Type
REMARK                         _______ _______ _______ _____ _____    ______ ____
ROOT
ATOM      1  S   UNL     1       2.977   6.115  18.029  0.00  0.00    +0.000 S 
ENDROOT
BRANCH   1   2
ATOM      2  C   UNL     1       4.432   5.152  17.654  0.00  0.00    +0.000 C 
ATOM      3  S   UNL     1       4.376   3.618  16.965  0.00  0.00    +0.000 S 
BRANCH   2   4
ATOM      4  N   UNL     1       5.625   5.821  17.929  0.00  0.00    +0.000 N 
ATOM      5  C   UNL     1       6.125   7.010  17.242  0.00  0.00    +0.000 C 
ATOM      6  C   UNL     1       7.630   6.894  17.400  0.00  0.00    +0.000 C 
ATOM      7  C   UNL     1       7.787   6.324  18.803  0.00  0.00    +0.000 C 
ATOM      8  C   UNL     1       6.534   5.481  19.023  0.00  0.00    +0.000 C 
ENDBRANCH   2   4
ENDBRANCH   1   2
BRANCH   1   9
ATOM      9  C   UNL     1       2.773   6.008  19.814  0.00  0.00    +0.000 C 
BRANCH   9  13
ATOM     10  O   UNL     1       1.359   2.139  22.345  0.00  0.00    +0.000 OA
ATOM     11  C   UNL     1       1.474   2.909  21.399  0.00  0.00    +0.000 C 
ATOM     12  C   UNL     1       2.224   4.159  21.434  0.00  0.00    +0.000 C 
ATOM     13  C   UNL     1       2.117   4.727  20.232  0.00  0.00    +0.000 C 
ATOM     14  C   UNL     1       1.307   3.859  19.343  0.00  0.00    +0.000 C 
ATOM     15  O   UNL     1       0.947   2.740  20.163  0.00  0.00    +0.000 OA
ENDBRANCH   9  13
ENDBRANCH   1   9
TORSDOF 4
ENDMDL
MODEL 5
REMARK VINA RESULT:      -5.9      0.696      1.169
REMARK  Name = 
REMARK  4 active torsions:
REMARK  status: ('A' for Active; 'I' for Inactive)
REMARK    1  A    between atoms: C_4  and  C_5
REMARK    2  A    between atoms: C_5  and  S_6
REMARK    3  A    between atoms: S_6  and  C_7
REMARK    4  A    between atoms: C_7  and  N_9
REMARK                            x       y       z     vdW  Elec       q    Type
REMARK                         _______ _______ _______ _____ _____    ______ ____
ROOT
ATOM      1  S   UNL     1       5.155   4.278  18.279  0.00  0.00    +0.000 S 
ENDROOT
BRANCH   1   2
ATOM      2  C   UNL     1       3.620   4.969  18.872  0.00  0.00    +0.000 C 
ATOM      3  S   UNL     1       3.076   6.507  18.461  0.00  0.00    +0.000 S 
BRANCH   2   4
ATOM      4  N   UNL     1       2.880   4.084  19.657  0.00  0.00    +0.000 N 
ATOM      5  C   UNL     1       2.637   2.672  19.371  0.00  0.00    +0.000 C 
ATOM      6  C   UNL     1       1.314   2.402  20.062  0.00  0.00    +0.000 C 
ATOM      7  C   UNL     1       1.412   3.233  21.334  0.00  0.00    +0.000 C 
ATOM      8  C   UNL     1       2.297   4.418  20.957  0.00  0.00    +0.000 C 
ENDBRANCH   2   4
ENDBRANCH   1   2
BRANCH   1   9
ATOM      9  C   UNL     1       4.847   3.816  16.567  0.00  0.00    +0.000 C 
BRANCH   9  13
ATOM     10  O   UNL     1       7.498   4.827  12.651  0.00  0.00    +0.000 OA
ATOM     11  C   UNL     1       7.125   4.846  13.818  0.00  0.00    +0.000 C 
ATOM     12  C   UNL     1       5.969   4.121  14.332  0.00  0.00    +0.000 C 
ATOM     13  C   UNL     1       5.872   4.391  15.634  0.00  0.00    +0.000 C 
ATOM     14  C   UNL     1       6.977   5.292  16.040  0.00  0.00    +0.000 C 
ATOM     15  O   UNL     1       7.713   5.524  14.832  0.00  0.00    +0.000 OA
ENDBRANCH   9  13
ENDBRANCH   1   9
TORSDOF 4
ENDMDL
MODEL 6
REMARK VINA RESULT:      -5.8      1.484      2.273
REMARK  Name = 
REMARK  4 active torsions:
REMARK  status: ('A' for Active; 'I' for Inactive)
REMARK    1  A    between atoms: C_4  and  C_5
REMARK    2  A    between atoms: C_5  and  S_6
REMARK    3  A    between atoms: S_6  and  C_7
REMARK    4  A    between atoms: C_7  and  N_9
REMARK                            x       y       z     vdW  Elec       q    Type
REMARK                         _______ _______ _______ _____ _____    ______ ____
ROOT
ATOM      1  S   UNL     1       4.059   3.870  17.659  0.00  0.00    +0.000 S 
ENDROOT
BRANCH   1   2
ATOM      2  C   UNL     1       3.024   4.990  18.586  0.00  0.00    +0.000 C 
ATOM      3  S   UNL     1       2.877   6.628  18.227  0.00  0.00    +0.000 S 
BRANCH   2   4
ATOM      4  N   UNL     1       2.297   4.364  19.599  0.00  0.00    +0.000 N 
ATOM      5  C   UNL     1       2.343   4.690  21.022  0.00  0.00    +0.000 C 
ATOM      6  C   UNL     1       1.983   3.376  21.690  0.00  0.00    +0.000 C 
ATOM      7  C   UNL     1       0.927   2.794  20.760  0.00  0.00    +0.000 C 
ATOM      8  C   UNL     1       1.292   3.325  19.377  0.00  0.00    +0.000 C 
ENDBRANCH   2   4
ENDBRANCH   1   2
BRANCH   1   9
ATOM      9  C   UNL     1       5.713   4.064  18.341  0.00  0.00    +0.000 C 
BRANCH   9  13
ATOM     10  O   UNL     1       7.892   8.260  17.326  0.00  0.00    +0.000 OA
ATOM     11  C   UNL     1       7.477   7.118  17.170  0.00  0.00    +0.000 C 
ATOM     12  C   UNL     1       6.763   6.349  18.182  0.00  0.00    +0.000 C 
ATOM     13  C   UNL     1       6.481   5.156  17.657  0.00  0.00    +0.000 C 
ATOM     14  C   UNL     1       6.979   5.096  16.262  0.00  0.00    +0.000 C 
ATOM     15  O   UNL     1       7.590   6.375  16.043  0.00  0.00    +0.000 OA
ENDBRANCH   9  13
ENDBRANCH   1   9
TORSDOF 4
ENDMDL
MODEL 7
REMARK VINA RESULT:      -5.8      4.007      6.536
REMARK  Name = 
REMARK  4 active torsions:
REMARK  status: ('A' for Active; 'I' for Inactive)
REMARK    1  A    between atoms: C_4  and  C_5
REMARK    2  A    between atoms: C_5  and  S_6
REMARK    3  A    between atoms: S_6  and  C_7
REMARK    4  A    between atoms: C_7  and  N_9
REMARK                            x       y       z     vdW  Elec       q    Type
REMARK                         _______ _______ _______ _____ _____    ______ ____
ROOT
ATOM      1  S   UNL     1       3.736   5.522  17.677  0.00  0.00    +0.000 S 
ENDROOT
BRANCH   1   2
ATOM      2  C   UNL     1       5.244   5.155  16.795  0.00  0.00    +0.000 C 
ATOM      3  S   UNL     1       5.284   4.321  15.335  0.00  0.00    +0.000 S 
BRANCH   2   4
ATOM      4  N   UNL     1       6.384   5.685  17.401  0.00  0.00    +0.000 N 
ATOM      5  C   UNL     1       7.407   4.931  18.122  0.00  0.00    +0.000 C 
ATOM      6  C   UNL     1       7.957   5.947  19.106  0.00  0.00    +0.000 C 
ATOM      7  C   UNL     1       7.948   7.242  18.306  0.00  0.00    +0.000 C 
ATOM      8  C   UNL     1       6.783   7.090  17.333  0.00  0.00    +0.000 C 
ENDBRANCH   2   4
ENDBRANCH   1   2
BRANCH   1   9
ATOM      9  C   UNL     1       2.732   4.033  17.557  0.00  0.00    +0.000 C 
BRANCH   9  13
ATOM     10  O   UNL     1       2.220   3.245  22.300  0.00  0.00    +0.000 OA
ATOM     11  C   UNL     1       1.978   3.206  21.100  0.00  0.00    +0.000 C 
ATOM     12  C   UNL     1       2.783   3.849  20.069  0.00  0.00    +0.000 C 
ATOM     13  C   UNL     1       2.208   3.597  18.893  0.00  0.00    +0.000 C 
ATOM     14  C   UNL     1       1.006   2.754  19.097  0.00  0.00    +0.000 C 
ATOM     15  O   UNL     1       0.941   2.558  20.516  0.00  0.00    +0.000 OA
ENDBRANCH   9  13
ENDBRANCH   1   9
TORSDOF 4
ENDMDL
MODEL 8
REMARK VINA RESULT:      -5.7      3.577      6.311
REMARK  Name = 
REMARK  4 active torsions:
REMARK  status: ('A' for Active; 'I' for Inactive)
REMARK    1  A    between atoms: C_4  and  C_5
REMARK    2  A    between atoms: C_5  and  S_6
REMARK    3  A    between atoms: S_6  and  C_7
REMARK    4  A    between atoms: C_7  and  N_9
REMARK                            x       y       z     vdW  Elec       q    Type
REMARK                         _______ _______ _______ _____ _____    ______ ____
ROOT
ATOM      1  S   UNL     1       2.830   6.233  18.156  0.00  0.00    +0.000 S 
ENDROOT
BRANCH   1   2
ATOM      2  C   UNL     1       4.411   5.405  18.129  0.00  0.00    +0.000 C 
ATOM      3  S   UNL     1       5.261   4.983  19.519  0.00  0.00    +0.000 S 
BRANCH   2   4
ATOM      4  N   UNL     1       4.846   5.082  16.843  0.00  0.00    +0.000 N 
ATOM      5  C   UNL     1       4.928   3.740  16.271  0.00  0.00    +0.000 C 
ATOM      6  C   UNL     1       6.038   3.868  15.245  0.00  0.00    +0.000 C 
ATOM      7  C   UNL     1       5.821   5.262  14.673  0.00  0.00    +0.000 C 
ATOM      8  C   UNL     1       5.210   6.062  15.820  0.00  0.00    +0.000 C 
ENDBRANCH   2   4
ENDBRANCH   1   2
BRANCH   1   9
ATOM      9  C   UNL     1       1.608   4.950  17.840  0.00  0.00    +0.000 C 
BRANCH   9  13
ATOM     10  O   UNL     1       1.428   2.609  22.068  0.00  0.00    +0.000 OA
ATOM     11  C   UNL     1       1.566   2.791  20.863  0.00  0.00    +0.000 C 
ATOM     12  C   UNL     1       1.408   4.076  20.194  0.00  0.00    +0.000 C 
ATOM     13  C   UNL     1       1.625   3.882  18.893  0.00  0.00    +0.000 C 
ATOM     14  C   UNL     1       1.959   2.458  18.651  0.00  0.00    +0.000 C 
ATOM     15  O   UNL     1       1.898   1.849  19.948  0.00  0.00    +0.000 OA
ENDBRANCH   9  13
ENDBRANCH   1   9
TORSDOF 4
ENDMDL
MODEL 9
REMARK VINA RESULT:      -5.7      1.921      2.185
REMARK  Name = 
REMARK  4 active torsions:
REMARK  status: ('A' for Active; 'I' for Inactive)
REMARK    1  A    between atoms: C_4  and  C_5
REMARK    2  A    between atoms: C_5  and  S_6
REMARK    3  A    between atoms: S_6  and  C_7
REMARK    4  A    between atoms: C_7  and  N_9
REMARK                            x       y       z     vdW  Elec       q    Type
REMARK                         _______ _______ _______ _____ _____    ______ ____
ROOT
ATOM      1  S   UNL     1       4.164   5.959  19.131  0.00  0.00    +0.000 S 
ENDROOT
BRANCH   1   2
ATOM      2  C   UNL     1       2.762   5.004  19.684  0.00  0.00    +0.000 C 
ATOM      3  S   UNL     1       1.596   5.596  20.742  0.00  0.00    +0.000 S 
BRANCH   2   4
ATOM      4  N   UNL     1       2.689   3.738  19.101  0.00  0.00    +0.000 N 
ATOM      5  C   UNL     1       2.974   2.467  19.762  0.00  0.00    +0.000 C 
ATOM      6  C   UNL     1       3.423   1.576  18.619  0.00  0.00    +0.000 C 
ATOM      7  C   UNL     1       2.520   2.005  17.471  0.00  0.00    +0.000 C 
ATOM      8  C   UNL     1       2.222   3.477  17.739  0.00  0.00    +0.000 C 
ENDBRANCH   2   4
ENDBRANCH   1   2
BRANCH   1   9
ATOM      9  C   UNL     1       5.570   4.837  19.199  0.00  0.00    +0.000 C 
BRANCH   9  13
ATOM     10  O   UNL     1       6.310   3.851  14.523  0.00  0.00    +0.000 OA
ATOM     11  C   UNL     1       6.559   4.165  15.681  0.00  0.00    +0.000 C 
ATOM     12  C   UNL     1       5.566   4.280  16.742  0.00  0.00    +0.000 C 
ATOM     13  C   UNL     1       6.205   4.646  17.854  0.00  0.00    +0.000 C 
ATOM     14  C   UNL     1       7.657   4.766  17.577  0.00  0.00    +0.000 C 
ATOM     15  O   UNL     1       7.785   4.444  16.186  0.00  0.00    +0.000 OA
ENDBRANCH   9  13
ENDBRANCH   1   9
TORSDOF 4
ENDMDL
