MODEL 1
REMARK VINA RESULT:      -7.0      0.000      0.000
REMARK  Name = 
REMARK  3 active torsions:
REMARK  status: ('A' for Active; 'I' for Inactive)
REMARK    1  A    between atoms: C_1  and  N_2
REMARK    2  A    between atoms: N_2  and  C_3
REMARK    3  A    between atoms: N_2  and  C_4
REMARK                            x       y       z     vdW  Elec       q    Type
REMARK                         _______ _______ _______ _____ _____    ______ ____
ROOT
ATOM      1  C   UNL     1       5.151   6.178  17.263  0.00  0.00    +0.000 C 
ATOM      2  C   UNL     1       4.682   5.282  18.152  0.00  0.00    +0.000 C 
ATOM      3  C   UNL     1       5.576   4.334  18.852  0.00  0.00    +0.000 C 
ATOM      4  O   UNL     1       6.800   4.401  18.882  0.00  0.00    +0.000 OA
ATOM      5  O   UNL     1       4.938   3.301  19.516  0.00  0.00    +0.000 OA
ATOM      6  C   UNL     1       3.611   3.408  19.940  0.00  0.00    +0.000 A 
ATOM      7  C   UNL     1       3.204   2.483  20.903  0.00  0.00    +0.000 A 
ATOM      8  C   UNL     1       1.914   2.565  21.422  0.00  0.00    +0.000 A 
ATOM      9  C   UNL     1       1.041   3.556  20.968  0.00  0.00    +0.000 A 
ATOM     10  C   UNL     1       1.454   4.465  19.989  0.00  0.00    +0.000 A 
ATOM     11  C   UNL     1       2.754   4.391  19.476  0.00  0.00    +0.000 A 
ATOM     12  C   UNL     1       3.232   5.342  18.466  0.00  0.00    +0.000 C 
ATOM     13  O   UNL     1       2.451   6.130  17.946  0.00  0.00    +0.000 OA
ENDROOT
BRANCH   1  15
ATOM     14  C   UNL     1       7.397   7.253  17.402  0.00  0.00    +0.000 C 
ATOM     15  N   UNL     1       6.428   6.370  16.746  0.00  0.00    +0.000 N 
ATOM     16  C   UNL     1       6.973   5.434  15.765  0.00  0.00    +0.000 C 
ENDBRANCH   1  15
TORSDOF 1
ENDMDL
MODEL 2
REMARK VINA RESULT:      -6.9      2.037      5.131
REMARK  Name = 
REMARK  3 active torsions:
REMARK  status: ('A' for Active; 'I' for Inactive)
REMARK    1  A    between atoms: C_1  and  N_2
REMARK    2  A    between atoms: N_2  and  C_3
REMARK    3  A    between atoms: N_2  and  C_4
REMARK                            x       y       z     vdW  Elec       q    Type
REMARK                         _______ _______ _______ _____ _____    ______ ____
ROOT
ATOM      1  C   UNL     1       2.050   4.085  19.126  0.00  0.00    +0.000 C 
ATOM      2  C   UNL     1       3.349   4.411  18.988  0.00  0.00    +0.000 C 
ATOM      3  C   UNL     1       4.434   3.486  19.383  0.00  0.00    +0.000 C 
ATOM      4  O   UNL     1       4.293   2.297  19.647  0.00  0.00    +0.000 OA
ATOM      5  O   UNL     1       5.696   4.048  19.445  0.00  0.00    +0.000 OA
ATOM      6  C   UNL     1       6.026   5.198  18.722  0.00  0.00    +0.000 A 
ATOM      7  C   UNL     1       7.390   5.449  18.568  0.00  0.00    +0.000 A 
ATOM      8  C   UNL     1       7.799   6.541  17.806  0.00  0.00    +0.000 A 
ATOM      9  C   UNL     1       6.848   7.377  17.219  0.00  0.00    +0.000 A 
ATOM     10  C   UNL     1       5.484   7.126  17.396  0.00  0.00    +0.000 A 
ATOM     11  C   UNL     1       5.072   6.022  18.151  0.00  0.00    +0.000 A 
ATOM     12  C   UNL     1       3.650   5.713  18.339  0.00  0.00    +0.000 C 
ATOM     13  O   UNL     1       2.793   6.502  17.958  0.00  0.00    +0.000 OA
ENDROOT
BRANCH   1  15
ATOM     14  C   UNL     1       1.233   2.873  21.147  0.00  0.00    +0.000 C 
ATOM     15  N   UNL     1       1.442   2.973  19.700  0.00  0.00    +0.000 N 
ATOM     16  C   UNL     1       0.665   2.052  18.874  0.00  0.00    +0.000 C 
ENDBRANCH   1  15
TORSDOF 1
ENDMDL
MODEL 3
REMARK VINA RESULT:      -6.9      1.331      1.652
REMARK  Name = 
REMARK  3 active torsions:
REMARK  status: ('A' for Active; 'I' for Inactive)
REMARK    1  A    between atoms: C_1  and  N_2
REMARK    2  A    between atoms: N_2  and  C_3
REMARK    3  A    between atoms: N_2  and  C_4
REMARK                            x       y       z     vdW  Elec       q    Type
REMARK                         _______ _______ _______ _____ _____    ______ ____
ROOT
ATOM      1  C   UNL     1       4.581   4.471  16.357  0.00  0.00    +0.000 C 
ATOM      2  C   UNL     1       4.222   4.027  17.576  0.00  0.00    +0.000 C 
ATOM      3  C   UNL     1       5.206   3.854  18.667  0.00  0.00    +0.000 C 
ATOM      4  O   UNL     1       6.352   4.289  18.666  0.00  0.00    +0.000 OA
ATOM      5  O   UNL     1       4.756   3.137  19.762  0.00  0.00    +0.000 OA
ATOM      6  C   UNL     1       3.395   3.035  20.065  0.00  0.00    +0.000 A 
ATOM      7  C   UNL     1       3.090   2.622  21.362  0.00  0.00    +0.000 A 
ATOM      8  C   UNL     1       1.757   2.557  21.759  0.00  0.00    +0.000 A 
ATOM      9  C   UNL     1       0.743   2.890  20.859  0.00  0.00    +0.000 A 
ATOM     10  C   UNL     1       1.060   3.284  19.555  0.00  0.00    +0.000 A 
ATOM     11  C   UNL     1       2.401   3.363  19.159  0.00  0.00    +0.000 A 
ATOM     12  C   UNL     1       2.773   3.796  17.808  0.00  0.00    +0.000 C 
ATOM     13  O   UNL     1       1.909   3.958  16.954  0.00  0.00    +0.000 OA
ENDROOT
BRANCH   1  15
ATOM     14  C   UNL     1       6.445   3.902  14.801  0.00  0.00    +0.000 C 
ATOM     15  N   UNL     1       5.832   4.759  15.821  0.00  0.00    +0.000 N 
ATOM     16  C   UNL     1       6.406   6.094  15.967  0.00  0.00    +0.000 C 
ENDBRANCH   1  15
TORSDOF 1
ENDMDL
MODEL 4
REMARK VINA RESULT:      -6.6      1.856      2.719
REMARK  Name = 
REMARK  3 active torsions:
REMARK  status: ('A' for Active; 'I' for Inactive)
REMARK    1  A    between atoms: C_1  and  N_2
REMARK    2  A    between atoms: N_2  and  C_3
REMARK    3  A    between atoms: N_2  and  C_4
REMARK                            x       y       z     vdW  Elec       q    Type
REMARK                         _______ _______ _______ _____ _____    ______ ____
ROOT
ATOM      1  C   UNL     1       5.286   3.632  16.013  0.00  0.00    +0.000 C 
ATOM      2  C   UNL     1       4.523   4.167  16.985  0.00  0.00    +0.000 C 
ATOM      3  C   UNL     1       4.388   5.630  17.157  0.00  0.00    +0.000 C 
ATOM      4  O   UNL     1       4.744   6.477  16.346  0.00  0.00    +0.000 OA
ATOM      5  O   UNL     1       3.807   6.034  18.346  0.00  0.00    +0.000 OA
ATOM      6  C   UNL     1       2.961   5.193  19.075  0.00  0.00    +0.000 A 
ATOM      7  C   UNL     1       2.157   5.817  20.028  0.00  0.00    +0.000 A 
ATOM      8  C   UNL     1       1.241   5.055  20.750  0.00  0.00    +0.000 A 
ATOM      9  C   UNL     1       1.147   3.680  20.525  0.00  0.00    +0.000 A 
ATOM     10  C   UNL     1       1.973   3.062  19.581  0.00  0.00    +0.000 A 
ATOM     11  C   UNL     1       2.883   3.830  18.845  0.00  0.00    +0.000 A 
ATOM     12  C   UNL     1       3.748   3.221  17.828  0.00  0.00    +0.000 C 
ATOM     13  O   UNL     1       3.792   2.003  17.707  0.00  0.00    +0.000 OA
ENDROOT
BRANCH   1  15
ATOM     14  C   UNL     1       7.413   4.822  15.482  0.00  0.00    +0.000 C 
ATOM     15  N   UNL     1       6.133   4.228  15.084  0.00  0.00    +0.000 N 
ATOM     16  C   UNL     1       5.968   3.956  13.658  0.00  0.00    +0.000 C 
ENDBRANCH   1  15
TORSDOF 1
ENDMDL
MODEL 5
REMARK VINA RESULT:      -6.6      2.188      5.681
REMARK  Name = 
REMARK  3 active torsions:
REMARK  status: ('A' for Active; 'I' for Inactive)
REMARK    1  A    between atoms: C_1  and  N_2
REMARK    2  A    between atoms: N_2  and  C_3
REMARK    3  A    between atoms: N_2  and  C_4
REMARK                            x       y       z     vdW  Elec       q    Type
REMARK                         _______ _______ _______ _____ _____    ______ ____
ROOT
ATOM      1  C   UNL     1       3.503   4.173  20.013  0.00  0.00    +0.000 C 
ATOM      2  C   UNL     1       3.947   4.184  18.742  0.00  0.00    +0.000 C 
ATOM      3  C   UNL     1       3.027   4.049  17.591  0.00  0.00    +0.000 C 
ATOM      4  O   UNL     1       1.806   4.141  17.643  0.00  0.00    +0.000 OA
ATOM      5  O   UNL     1       3.637   3.800  16.374  0.00  0.00    +0.000 OA
ATOM      6  C   UNL     1       4.967   4.153  16.131  0.00  0.00    +0.000 A 
ATOM      7  C   UNL     1       5.349   4.199  14.790  0.00  0.00    +0.000 A 
ATOM      8  C   UNL     1       6.641   4.605  14.464  0.00  0.00    +0.000 A 
ATOM      9  C   UNL     1       7.540   4.947  15.475  0.00  0.00    +0.000 A 
ATOM     10  C   UNL     1       7.152   4.878  16.817  0.00  0.00    +0.000 A 
ATOM     11  C   UNL     1       5.850   4.484  17.145  0.00  0.00    +0.000 A 
ATOM     12  C   UNL     1       5.399   4.423  18.539  0.00  0.00    +0.000 C 
ATOM     13  O   UNL     1       6.201   4.579  19.453  0.00  0.00    +0.000 OA
ENDROOT
BRANCH   1  15
ATOM     14  C   UNL     1       1.884   2.709  21.220  0.00  0.00    +0.000 C 
ATOM     15  N   UNL     1       2.232   3.958  20.536  0.00  0.00    +0.000 N 
ATOM     16  C   UNL     1       1.327   5.084  20.756  0.00  0.00    +0.000 C 
ENDBRANCH   1  15
TORSDOF 1
ENDMDL
MODEL 6
REMARK VINA RESULT:      -6.4      2.011      5.671
REMARK  Name = 
REMARK  3 active torsions:
REMARK  status: ('A' for Active; 'I' for Inactive)
REMARK    1  A    between atoms: C_1  and  N_2
REMARK    2  A    between atoms: N_2  and  C_3
REMARK    3  A    between atoms: N_2  and  C_4
REMARK                            x       y       z     vdW  Elec       q    Type
REMARK                         _______ _______ _______ _____ _____    ______ ____
ROOT
ATOM      1  C   UNL     1       2.942   3.515  19.452  0.00  0.00    +0.000 C 
ATOM      2  C   UNL     1       3.720   4.454  18.883  0.00  0.00    +0.000 C 
ATOM      3  C   UNL     1       3.154   5.538  18.050  0.00  0.00    +0.000 C 
ATOM      4  O   UNL     1       1.966   5.830  17.975  0.00  0.00    +0.000 OA
ATOM      5  O   UNL     1       4.076   6.258  17.311  0.00  0.00    +0.000 OA
ATOM      6  C   UNL     1       5.421   6.331  17.683  0.00  0.00    +0.000 A 
ATOM      7  C   UNL     1       6.159   7.361  17.098  0.00  0.00    +0.000 A 
ATOM      8  C   UNL     1       7.490   7.539  17.468  0.00  0.00    +0.000 A 
ATOM      9  C   UNL     1       8.075   6.684  18.402  0.00  0.00    +0.000 A 
ATOM     10  C   UNL     1       7.331   5.643  18.968  0.00  0.00    +0.000 A 
ATOM     11  C   UNL     1       5.990   5.471  18.607  0.00  0.00    +0.000 A 
ATOM     12  C   UNL     1       5.171   4.406  19.197  0.00  0.00    +0.000 C 
ATOM     13  O   UNL     1       5.689   3.555  19.910  0.00  0.00    +0.000 OA
ENDROOT
BRANCH   1  15
ATOM     14  C   UNL     1       1.048   2.219  18.474  0.00  0.00    +0.000 C 
ATOM     15  N   UNL     1       1.576   3.272  19.348  0.00  0.00    +0.000 N 
ATOM     16  C   UNL     1       0.658   3.784  20.362  0.00  0.00    +0.000 C 
ENDBRANCH   1  15
TORSDOF 1
ENDMDL
MODEL 7
REMARK VINA RESULT:      -6.2      0.889      2.372
REMARK  Name = 
REMARK  3 active torsions:
REMARK  status: ('A' for Active; 'I' for Inactive)
REMARK    1  A    between atoms: C_1  and  N_2
REMARK    2  A    between atoms: N_2  and  C_3
REMARK    3  A    between atoms: N_2  and  C_4
REMARK                            x       y       z     vdW  Elec       q    Type
REMARK                         _______ _______ _______ _____ _____    ______ ____
ROOT
ATOM      1  C   UNL     1       6.255   4.807  17.822  0.00  0.00    +0.000 C 
ATOM      2  C   UNL     1       5.020   4.808  18.359  0.00  0.00    +0.000 C 
ATOM      3  C   UNL     1       3.997   5.802  17.965  0.00  0.00    +0.000 C 
ATOM      4  O   UNL     1       4.069   6.549  16.996  0.00  0.00    +0.000 OA
ATOM      5  O   UNL     1       2.884   5.860  18.784  0.00  0.00    +0.000 OA
ATOM      6  C   UNL     1       2.494   4.775  19.575  0.00  0.00    +0.000 A 
ATOM      7  C   UNL     1       1.184   4.812  20.054  0.00  0.00    +0.000 A 
ATOM      8  C   UNL     1       0.702   3.736  20.796  0.00  0.00    +0.000 A 
ATOM      9  C   UNL     1       1.530   2.645  21.064  0.00  0.00    +0.000 A 
ATOM     10  C   UNL     1       2.848   2.629  20.594  0.00  0.00    +0.000 A 
ATOM     11  C   UNL     1       3.329   3.703  19.837  0.00  0.00    +0.000 A 
ATOM     12  C   UNL     1       4.697   3.711  19.307  0.00  0.00    +0.000 C 
ATOM     13  O   UNL     1       5.492   2.839  19.641  0.00  0.00    +0.000 OA
ENDROOT
BRANCH   1  15
ATOM     14  C   UNL     1       7.562   6.890  17.409  0.00  0.00    +0.000 C 
ATOM     15  N   UNL     1       6.868   5.687  16.937  0.00  0.00    +0.000 N 
ATOM     16  C   UNL     1       7.168   5.267  15.571  0.00  0.00    +0.000 C 
ENDBRANCH   1  15
TORSDOF 1
ENDMDL
MODEL 8
REMARK VINA RESULT:      -6.0      2.330      5.392
REMARK  Name = 
REMARK  3 active torsions:
REMARK  status: ('A' for Active; 'I' for Inactive)
REMARK    1  A    between atoms: C_1  and  N_2
REMARK    2  A    between atoms: N_2  and  C_3
REMARK    3  A    between atoms: N_2  and  C_4
REMARK                            x       y       z     vdW  Elec       q    Type
REMARK                         _______ _______ _______ _____ _____    ______ ____
ROOT
ATOM      1  C   UNL     1       2.425   4.468  19.577  0.00  0.00    +0.000 C 
ATOM      2  C   UNL     1       3.280   4.270  18.556  0.00  0.00    +0.000 C 
ATOM      3  C   UNL     1       3.597   2.914  18.054  0.00  0.00    +0.000 C 
ATOM      4  O   UNL     1       2.982   1.892  18.332  0.00  0.00    +0.000 OA
ATOM      5  O   UNL     1       4.684   2.840  17.202  0.00  0.00    +0.000 OA
ATOM      6  C   UNL     1       5.120   3.946  16.467  0.00  0.00    +0.000 A 
ATOM      7  C   UNL     1       5.960   3.667  15.388  0.00  0.00    +0.000 A 
ATOM      8  C   UNL     1       6.386   4.710  14.570  0.00  0.00    +0.000 A 
ATOM      9  C   UNL     1       5.982   6.019  14.841  0.00  0.00    +0.000 A 
ATOM     10  C   UNL     1       5.156   6.289  15.936  0.00  0.00    +0.000 A 
ATOM     11  C   UNL     1       4.717   5.239  16.752  0.00  0.00    +0.000 A 
ATOM     12  C   UNL     1       3.830   5.480  17.895  0.00  0.00    +0.000 C 
ATOM     13  O   UNL     1       3.573   6.627  18.244  0.00  0.00    +0.000 OA
ENDROOT
BRANCH   1  15
ATOM     14  C   UNL     1       2.214   3.312  21.777  0.00  0.00    +0.000 C 
ATOM     15  N   UNL     1       1.764   3.566  20.405  0.00  0.00    +0.000 N 
ATOM     16  C   UNL     1       0.407   3.130  20.084  0.00  0.00    +0.000 C 
ENDBRANCH   1  15
TORSDOF 1
ENDMDL
MODEL 9
REMARK VINA RESULT:      -5.9      2.269      5.367
REMARK  Name = 
REMARK  3 active torsions:
REMARK  status: ('A' for Active; 'I' for Inactive)
REMARK    1  A    between atoms: C_1  and  N_2
REMARK    2  A    between atoms: N_2  and  C_3
REMARK    3  A    between atoms: N_2  and  C_4
REMARK                            x       y       z     vdW  Elec       q    Type
REMARK                         _______ _______ _______ _____ _____    ______ ____
ROOT
ATOM      1  C   UNL     1       2.903   3.658  19.161  0.00  0.00    +0.000 C 
ATOM      2  C   UNL     1       3.931   4.030  18.375  0.00  0.00    +0.000 C 
ATOM      3  C   UNL     1       5.184   4.580  18.935  0.00  0.00    +0.000 C 
ATOM      4  O   UNL     1       5.509   4.548  20.116  0.00  0.00    +0.000 OA
ATOM      5  O   UNL     1       6.033   5.171  18.015  0.00  0.00    +0.000 OA
ATOM      6  C   UNL     1       5.995   4.837  16.659  0.00  0.00    +0.000 A 
ATOM      7  C   UNL     1       7.115   5.202  15.911  0.00  0.00    +0.000 A 
ATOM      8  C   UNL     1       7.180   4.847  14.566  0.00  0.00    +0.000 A 
ATOM      9  C   UNL     1       6.126   4.147  13.977  0.00  0.00    +0.000 A 
ATOM     10  C   UNL     1       4.999   3.803  14.732  0.00  0.00    +0.000 A 
ATOM     11  C   UNL     1       4.939   4.148  16.088  0.00  0.00    +0.000 A 
ATOM     12  C   UNL     1       3.786   3.783  16.917  0.00  0.00    +0.000 C 
ATOM     13  O   UNL     1       2.786   3.296  16.402  0.00  0.00    +0.000 OA
ENDROOT
BRANCH   1  15
ATOM     14  C   UNL     1       2.090   4.951  21.133  0.00  0.00    +0.000 C 
ATOM     15  N   UNL     1       2.716   3.768  20.536  0.00  0.00    +0.000 N 
ATOM     16  C   UNL     1       2.787   2.581  21.385  0.00  0.00    +0.000 C 
ENDBRANCH   1  15
TORSDOF 1
ENDMDL
