MODEL 1
REMARK VINA RESULT:      -6.0      0.000      0.000
REMARK  Name = 
REMARK  5 active torsions:
REMARK  status: ('A' for Active; 'I' for Inactive)
REMARK    1  A    between atoms: C_1  and  S_2
REMARK    2  A    between atoms: S_2  and  C_3
REMARK    3  A    between atoms: C_6  and  S_7
REMARK    4  A    between atoms: S_7  and  C_8
REMARK    5  A    between atoms: C_8  and  C_9
REMARK                            x       y       z     vdW  Elec       q    Type
REMARK                         _______ _______ _______ _____ _____    ______ ____
ROOT
ATOM      1  C   UNL     1       4.124   3.986  17.439  0.00  0.00    +0.000 C 
ENDROOT
BRANCH   1   2
ATOM      2  C   UNL     1       3.391   3.754  18.755  0.00  0.00    +0.000 C 
ATOM      3  N   UNL     1       3.206   2.524  19.120  0.00  0.00    +0.000 NA
ATOM      4  N   UNL     1       2.583   2.232  20.286  0.00  0.00    +0.000 N 
ATOM      5  C   UNL     1       2.017   3.038  21.234  0.00  0.00    +0.000 C 
ATOM      6  O   UNL     1       1.492   2.561  22.234  0.00  0.00    +0.000 OA
ATOM      7  S   UNL     1       2.036   4.755  20.995  0.00  0.00    +0.000 S 
ATOM      8  C   UNL     1       2.980   4.981  19.509  0.00  0.00    +0.000 C 
ATOM      9  H   UNL     1       2.502   1.241  20.493  0.00  0.00    +0.000 HD
ENDBRANCH   1   2
BRANCH   1  10
ATOM     10  S   UNL     1       5.637   4.940  17.747  0.00  0.00    +0.000 S 
BRANCH  10  14
ATOM     11  C   UNL     1       6.965   4.689  13.872  0.00  0.00    +0.000 A 
ATOM     12  N   UNL     1       7.791   5.480  14.524  0.00  0.00    +0.000 NA
ATOM     13  N   UNL     1       7.431   5.628  15.851  0.00  0.00    +0.000 NA
ATOM     14  C   UNL     1       6.348   4.940  16.146  0.00  0.00    +0.000 A 
ATOM     15  S   UNL     1       5.686   4.063  14.830  0.00  0.00    +0.000 S 
BRANCH  11  17
ATOM     16  C   UNL     1       5.924   3.002  11.978  0.00  0.00    +0.000 C 
ATOM     17  S   UNL     1       7.154   4.314  12.173  0.00  0.00    +0.000 S 
ENDBRANCH  11  17
ENDBRANCH  10  14
ENDBRANCH   1  10
TORSDOF 4
ENDMDL
MODEL 2
REMARK VINA RESULT:      -6.0      1.662      1.733
REMARK  Name = 
REMARK  5 active torsions:
REMARK  status: ('A' for Active; 'I' for Inactive)
REMARK    1  A    between atoms: C_1  and  S_2
REMARK    2  A    between atoms: S_2  and  C_3
REMARK    3  A    between atoms: C_6  and  S_7
REMARK    4  A    between atoms: S_7  and  C_8
REMARK    5  A    between atoms: C_8  and  C_9
REMARK                            x       y       z     vdW  Elec       q    Type
REMARK                         _______ _______ _______ _____ _____    ______ ____
ROOT
ATOM      1  C   UNL     1       5.010   5.949  18.566  0.00  0.00    +0.000 C 
ENDROOT
BRANCH   1   2
ATOM      2  C   UNL     1       4.128   5.008  19.376  0.00  0.00    +0.000 C 
ATOM      3  N   UNL     1       3.102   5.526  19.974  0.00  0.00    +0.000 NA
ATOM      4  N   UNL     1       2.256   4.755  20.696  0.00  0.00    +0.000 N 
ATOM      5  C   UNL     1       2.279   3.420  20.990  0.00  0.00    +0.000 C 
ATOM      6  O   UNL     1       1.399   2.912  21.677  0.00  0.00    +0.000 OA
ATOM      7  S   UNL     1       3.585   2.451  20.390  0.00  0.00    +0.000 S 
ATOM      8  C   UNL     1       4.526   3.564  19.376  0.00  0.00    +0.000 C 
ATOM      9  H   UNL     1       1.472   5.250  21.112  0.00  0.00    +0.000 HD
ENDBRANCH   1   2
BRANCH   1  10
ATOM     10  S   UNL     1       6.670   5.233  18.396  0.00  0.00    +0.000 S 
BRANCH  10  14
ATOM     11  C   UNL     1       6.481   4.314  14.401  0.00  0.00    +0.000 A 
ATOM     12  N   UNL     1       7.386   5.258  14.549  0.00  0.00    +0.000 NA
ATOM     13  N   UNL     1       7.530   5.638  15.870  0.00  0.00    +0.000 NA
ATOM     14  C   UNL     1       6.729   4.963  16.666  0.00  0.00    +0.000 A 
ATOM     15  S   UNL     1       5.738   3.816  15.865  0.00  0.00    +0.000 S 
BRANCH  11  17
ATOM     16  C   UNL     1       7.324   4.399  11.794  0.00  0.00    +0.000 C 
ATOM     17  S   UNL     1       6.069   3.630  12.843  0.00  0.00    +0.000 S 
ENDBRANCH  11  17
ENDBRANCH  10  14
ENDBRANCH   1  10
TORSDOF 4
ENDMDL
MODEL 3
REMARK VINA RESULT:      -5.9      2.452      2.621
REMARK  Name = 
REMARK  5 active torsions:
REMARK  status: ('A' for Active; 'I' for Inactive)
REMARK    1  A    between atoms: C_1  and  S_2
REMARK    2  A    between atoms: S_2  and  C_3
REMARK    3  A    between atoms: C_6  and  S_7
REMARK    4  A    between atoms: S_7  and  C_8
REMARK    5  A    between atoms: C_8  and  C_9
REMARK                            x       y       z     vdW  Elec       q    Type
REMARK                         _______ _______ _______ _____ _____    ______ ____
ROOT
ATOM      1  C   UNL     1       4.960   4.346  18.106  0.00  0.00    +0.000 C 
ENDROOT
BRANCH   1   2
ATOM      2  C   UNL     1       4.010   5.423  18.616  0.00  0.00    +0.000 C 
ATOM      3  N   UNL     1       3.544   5.279  19.817  0.00  0.00    +0.000 NA
ATOM      4  N   UNL     1       2.712   6.202  20.354  0.00  0.00    +0.000 N 
ATOM      5  C   UNL     1       2.175   7.346  19.832  0.00  0.00    +0.000 C 
ATOM      6  O   UNL     1       1.428   8.052  20.500  0.00  0.00    +0.000 OA
ATOM      7  S   UNL     1       2.554   7.780  18.197  0.00  0.00    +0.000 S 
ATOM      8  C   UNL     1       3.733   6.559  17.680  0.00  0.00    +0.000 C 
ATOM      9  H   UNL     1       2.415   6.010  21.306  0.00  0.00    +0.000 HD
ENDBRANCH   1   2
BRANCH   1  10
ATOM     10  S   UNL     1       6.625   5.045  17.916  0.00  0.00    +0.000 S 
BRANCH  10  14
ATOM     11  C   UNL     1       6.829   4.396  13.869  0.00  0.00    +0.000 A 
ATOM     12  N   UNL     1       7.585   5.438  14.143  0.00  0.00    +0.000 NA
ATOM     13  N   UNL     1       7.588   5.739  15.492  0.00  0.00    +0.000 NA
ATOM     14  C   UNL     1       6.835   4.910  16.182  0.00  0.00    +0.000 A 
ATOM     15  S   UNL     1       6.064   3.702  15.239  0.00  0.00    +0.000 S 
BRANCH  11  17
ATOM     16  C   UNL     1       4.854   3.378  12.263  0.00  0.00    +0.000 C 
ATOM     17  S   UNL     1       6.617   3.777  12.245  0.00  0.00    +0.000 S 
ENDBRANCH  11  17
ENDBRANCH  10  14
ENDBRANCH   1  10
TORSDOF 4
ENDMDL
MODEL 4
REMARK VINA RESULT:      -5.8      3.171      7.097
REMARK  Name = 
REMARK  5 active torsions:
REMARK  status: ('A' for Active; 'I' for Inactive)
REMARK    1  A    between atoms: C_1  and  S_2
REMARK    2  A    between atoms: S_2  and  C_3
REMARK    3  A    between atoms: C_6  and  S_7
REMARK    4  A    between atoms: S_7  and  C_8
REMARK    5  A    between atoms: C_8  and  C_9
REMARK                            x       y       z     vdW  Elec       q    Type
REMARK                         _______ _______ _______ _____ _____    ______ ____
ROOT
ATOM      1  C   UNL     1       6.072   6.476  17.650  0.00  0.00    +0.000 C 
ENDROOT
BRANCH   1   2
ATOM      2  C   UNL     1       6.266   5.788  16.303  0.00  0.00    +0.000 C 
ATOM      3  N   UNL     1       7.402   5.967  15.706  0.00  0.00    +0.000 NA
ATOM      4  N   UNL     1       7.663   5.374  14.518  0.00  0.00    +0.000 N 
ATOM      5  C   UNL     1       6.891   4.580  13.716  0.00  0.00    +0.000 C 
ATOM      6  O   UNL     1       7.327   4.140  12.658  0.00  0.00    +0.000 OA
ATOM      7  S   UNL     1       5.271   4.212  14.210  0.00  0.00    +0.000 S 
ATOM      8  C   UNL     1       5.125   4.948  15.819  0.00  0.00    +0.000 C 
ATOM      9  H   UNL     1       8.586   5.561  14.137  0.00  0.00    +0.000 HD
ENDBRANCH   1   2
BRANCH   1  10
ATOM     10  S   UNL     1       6.628   5.373  18.981  0.00  0.00    +0.000 S 
BRANCH  10  14
ATOM     11  C   UNL     1       2.948   3.734  19.762  0.00  0.00    +0.000 A 
ATOM     12  N   UNL     1       3.815   2.746  19.687  0.00  0.00    +0.000 NA
ATOM     13  N   UNL     1       5.096   3.197  19.429  0.00  0.00    +0.000 NA
ATOM     14  C   UNL     1       5.144   4.507  19.322  0.00  0.00    +0.000 A 
ATOM     15  S   UNL     1       3.632   5.290  19.525  0.00  0.00    +0.000 S 
BRANCH  11  17
ATOM     16  C   UNL     1       1.312   2.642  21.672  0.00  0.00    +0.000 C 
ATOM     17  S   UNL     1       1.244   3.479  20.071  0.00  0.00    +0.000 S 
ENDBRANCH  11  17
ENDBRANCH  10  14
ENDBRANCH   1  10
TORSDOF 4
ENDMDL
MODEL 5
REMARK VINA RESULT:      -5.7      4.719      7.028
REMARK  Name = 
REMARK  5 active torsions:
REMARK  status: ('A' for Active; 'I' for Inactive)
REMARK    1  A    between atoms: C_1  and  S_2
REMARK    2  A    between atoms: S_2  and  C_3
REMARK    3  A    between atoms: C_6  and  S_7
REMARK    4  A    between atoms: S_7  and  C_8
REMARK    5  A    between atoms: C_8  and  C_9
REMARK                            x       y       z     vdW  Elec       q    Type
REMARK                         _______ _______ _______ _____ _____    ______ ____
ROOT
ATOM      1  C   UNL     1       2.863   5.328  17.996  0.00  0.00    +0.000 C 
ENDROOT
BRANCH   1   2
ATOM      2  C   UNL     1       4.353   5.096  17.779  0.00  0.00    +0.000 C 
ATOM      3  N   UNL     1       4.971   4.365  18.652  0.00  0.00    +0.000 NA
ATOM      4  N   UNL     1       6.290   4.093  18.521  0.00  0.00    +0.000 N 
ATOM      5  C   UNL     1       7.209   4.498  17.592  0.00  0.00    +0.000 C 
ATOM      6  O   UNL     1       8.376   4.130  17.660  0.00  0.00    +0.000 OA
ATOM      7  S   UNL     1       6.701   5.558  16.319  0.00  0.00    +0.000 S 
ATOM      8  C   UNL     1       4.949   5.720  16.554  0.00  0.00    +0.000 C 
ATOM      9  H   UNL     1       6.681   3.498  19.246  0.00  0.00    +0.000 HD
ENDBRANCH   1   2
BRANCH   1  10
ATOM     10  S   UNL     1       2.602   6.160  19.588  0.00  0.00    +0.000 S 
BRANCH  10  14
ATOM     11  C   UNL     1       1.356   9.972  18.719  0.00  0.00    +0.000 A 
ATOM     12  N   UNL     1       1.966   9.500  17.652  0.00  0.00    +0.000 NA
ATOM     13  N   UNL     1       2.423   8.210  17.842  0.00  0.00    +0.000 NA
ATOM     14  C   UNL     1       2.138   7.759  19.044  0.00  0.00    +0.000 A 
ATOM     15  S   UNL     1       1.293   8.873  20.036  0.00  0.00    +0.000 S 
BRANCH  11  17
ATOM     16  C   UNL     1       2.171  12.589  18.651  0.00  0.00    +0.000 C 
ATOM     17  S   UNL     1       0.675  11.583  18.789  0.00  0.00    +0.000 S 
ENDBRANCH  11  17
ENDBRANCH  10  14
ENDBRANCH   1  10
TORSDOF 4
ENDMDL
MODEL 6
REMARK VINA RESULT:      -5.7      1.860      2.015
REMARK  Name = 
REMARK  5 active torsions:
REMARK  status: ('A' for Active; 'I' for Inactive)
REMARK    1  A    between atoms: C_1  and  S_2
REMARK    2  A    between atoms: S_2  and  C_3
REMARK    3  A    between atoms: C_6  and  S_7
REMARK    4  A    between atoms: S_7  and  C_8
REMARK    5  A    between atoms: C_8  and  C_9
REMARK                            x       y       z     vdW  Elec       q    Type
REMARK                         _______ _______ _______ _____ _____    ______ ____
ROOT
ATOM      1  C   UNL     1       4.263   5.846  18.952  0.00  0.00    +0.000 C 
ENDROOT
BRANCH   1   2
ATOM      2  C   UNL     1       3.170   4.784  18.966  0.00  0.00    +0.000 C 
ATOM      3  N   UNL     1       2.563   4.544  17.847  0.00  0.00    +0.000 NA
ATOM      4  N   UNL     1       1.596   3.601  17.769  0.00  0.00    +0.000 N 
ATOM      5  C   UNL     1       1.041   2.795  18.725  0.00  0.00    +0.000 C 
ATOM      6  O   UNL     1       0.158   1.995  18.438  0.00  0.00    +0.000 OA
ATOM      7  S   UNL     1       1.596   2.931  20.361  0.00  0.00    +0.000 S 
ATOM      8  C   UNL     1       2.928   4.102  20.278  0.00  0.00    +0.000 C 
ATOM      9  H   UNL     1       1.192   3.474  16.846  0.00  0.00    +0.000 HD
ENDBRANCH   1   2
BRANCH   1  10
ATOM     10  S   UNL     1       5.888   5.048  19.081  0.00  0.00    +0.000 S 
BRANCH  10  14
ATOM     11  C   UNL     1       6.864   4.997  15.096  0.00  0.00    +0.000 A 
ATOM     12  N   UNL     1       7.602   5.921  15.673  0.00  0.00    +0.000 NA
ATOM     13  N   UNL     1       7.350   6.016  17.029  0.00  0.00    +0.000 NA
ATOM     14  C   UNL     1       6.433   5.157  17.420  0.00  0.00    +0.000 A 
ATOM     15  S   UNL     1       5.807   4.170  16.165  0.00  0.00    +0.000 S 
BRANCH  11  17
ATOM     16  C   UNL     1       5.509   3.574  13.184  0.00  0.00    +0.000 C 
ATOM     17  S   UNL     1       6.951   4.646  13.383  0.00  0.00    +0.000 S 
ENDBRANCH  11  17
ENDBRANCH  10  14
ENDBRANCH   1  10
TORSDOF 4
ENDMDL
MODEL 7
REMARK VINA RESULT:      -5.6      1.473      1.551
REMARK  Name = 
REMARK  5 active torsions:
REMARK  status: ('A' for Active; 'I' for Inactive)
REMARK    1  A    between atoms: C_1  and  S_2
REMARK    2  A    between atoms: S_2  and  C_3
REMARK    3  A    between atoms: C_6  and  S_7
REMARK    4  A    between atoms: S_7  and  C_8
REMARK    5  A    between atoms: C_8  and  C_9
REMARK                            x       y       z     vdW  Elec       q    Type
REMARK                         _______ _______ _______ _____ _____    ______ ____
ROOT
ATOM      1  C   UNL     1       3.496   5.635  17.791  0.00  0.00    +0.000 C 
ENDROOT
BRANCH   1   2
ATOM      2  C   UNL     1       2.808   4.738  18.813  0.00  0.00    +0.000 C 
ATOM      3  N   UNL     1       3.195   4.841  20.046  0.00  0.00    +0.000 NA
ATOM      4  N   UNL     1       2.620   4.096  21.018  0.00  0.00    +0.000 N 
ATOM      5  C   UNL     1       1.648   3.135  20.965  0.00  0.00    +0.000 C 
ATOM      6  O   UNL     1       1.265   2.570  21.983  0.00  0.00    +0.000 OA
ATOM      7  S   UNL     1       0.971   2.712  19.426  0.00  0.00    +0.000 S 
ATOM      8  C   UNL     1       1.727   3.844  18.287  0.00  0.00    +0.000 C 
ATOM      9  H   UNL     1       2.979   4.259  21.954  0.00  0.00    +0.000 HD
ENDBRANCH   1   2
BRANCH   1  10
ATOM     10  S   UNL     1       5.269   5.734  18.166  0.00  0.00    +0.000 S 
BRANCH  10  14
ATOM     11  C   UNL     1       6.487   4.505  14.445  0.00  0.00    +0.000 A 
ATOM     12  N   UNL     1       7.451   5.241  14.955  0.00  0.00    +0.000 NA
ATOM     13  N   UNL     1       7.139   5.704  16.219  0.00  0.00    +0.000 NA
ATOM     14  C   UNL     1       5.951   5.297  16.613  0.00  0.00    +0.000 A 
ATOM     15  S   UNL     1       5.124   4.320  15.472  0.00  0.00    +0.000 S 
BRANCH  11  17
ATOM     16  C   UNL     1       7.577   5.017  11.982  0.00  0.00    +0.000 C 
ATOM     17  S   UNL     1       6.585   3.782  12.854  0.00  0.00    +0.000 S 
ENDBRANCH  11  17
ENDBRANCH  10  14
ENDBRANCH   1  10
TORSDOF 4
ENDMDL
MODEL 8
REMARK VINA RESULT:      -5.6      3.127      6.645
REMARK  Name = 
REMARK  5 active torsions:
REMARK  status: ('A' for Active; 'I' for Inactive)
REMARK    1  A    between atoms: C_1  and  S_2
REMARK    2  A    between atoms: S_2  and  C_3
REMARK    3  A    between atoms: C_6  and  S_7
REMARK    4  A    between atoms: S_7  and  C_8
REMARK    5  A    between atoms: C_8  and  C_9
REMARK                            x       y       z     vdW  Elec       q    Type
REMARK                         _______ _______ _______ _____ _____    ______ ____
ROOT
ATOM      1  C   UNL     1       6.284   3.880  16.010  0.00  0.00    +0.000 C 
ENDROOT
BRANCH   1   2
ATOM      2  C   UNL     1       6.885   5.018  16.826  0.00  0.00    +0.000 C 
ATOM      3  N   UNL     1       7.131   6.127  16.202  0.00  0.00    +0.000 NA
ATOM      4  N   UNL     1       7.645   7.193  16.859  0.00  0.00    +0.000 N 
ATOM      5  C   UNL     1       8.034   7.352  18.160  0.00  0.00    +0.000 C 
ATOM      6  O   UNL     1       8.484   8.421  18.556  0.00  0.00    +0.000 OA
ATOM      7  S   UNL     1       7.898   6.007  19.245  0.00  0.00    +0.000 S 
ATOM      8  C   UNL     1       7.106   4.744  18.282  0.00  0.00    +0.000 C 
ATOM      9  H   UNL     1       7.786   8.022  16.288  0.00  0.00    +0.000 HD
ENDBRANCH   1   2
BRANCH   1  10
ATOM     10  S   UNL     1       4.552   4.260  15.620  0.00  0.00    +0.000 S 
BRANCH  10  14
ATOM     11  C   UNL     1       2.643   4.036  19.246  0.00  0.00    +0.000 A 
ATOM     12  N   UNL     1       3.189   2.862  19.012  0.00  0.00    +0.000 NA
ATOM     13  N   UNL     1       3.866   2.834  17.807  0.00  0.00    +0.000 NA
ATOM     14  C   UNL     1       3.804   3.990  17.181  0.00  0.00    +0.000 A 
ATOM     15  S   UNL     1       2.916   5.198  18.013  0.00  0.00    +0.000 S 
BRANCH  11  17
ATOM     16  C   UNL     1       1.822   2.792  21.547  0.00  0.00    +0.000 C 
ATOM     17  S   UNL     1       1.715   4.380  20.689  0.00  0.00    +0.000 S 
ENDBRANCH  11  17
ENDBRANCH  10  14
ENDBRANCH   1  10
TORSDOF 4
ENDMDL
MODEL 9
REMARK VINA RESULT:      -5.6      3.413      7.198
REMARK  Name = 
REMARK  5 active torsions:
REMARK  status: ('A' for Active; 'I' for Inactive)
REMARK    1  A    between atoms: C_1  and  S_2
REMARK    2  A    between atoms: S_2  and  C_3
REMARK    3  A    between atoms: C_6  and  S_7
REMARK    4  A    between atoms: S_7  and  C_8
REMARK    5  A    between atoms: C_8  and  C_9
REMARK                            x       y       z     vdW  Elec       q    Type
REMARK                         _______ _______ _______ _____ _____    ______ ____
ROOT
ATOM      1  C   UNL     1       6.801   5.494  17.229  0.00  0.00    +0.000 C 
ENDROOT
BRANCH   1   2
ATOM      2  C   UNL     1       6.823   5.101  15.757  0.00  0.00    +0.000 C 
ATOM      3  N   UNL     1       7.738   5.642  15.014  0.00  0.00    +0.000 NA
ATOM      4  N   UNL     1       7.839   5.330  13.701  0.00  0.00    +0.000 N 
ATOM      5  C   UNL     1       7.083   4.515  12.905  0.00  0.00    +0.000 C 
ATOM      6  O   UNL     1       7.351   4.371  11.717  0.00  0.00    +0.000 OA
ATOM      7  S   UNL     1       5.722   3.695  13.597  0.00  0.00    +0.000 S 
ATOM      8  C   UNL     1       5.795   4.102  15.323  0.00  0.00    +0.000 C 
ATOM      9  H   UNL     1       8.598   5.791  13.207  0.00  0.00    +0.000 HD
ENDBRANCH   1   2
BRANCH   1  10
ATOM     10  S   UNL     1       5.248   6.356  17.605  0.00  0.00    +0.000 S 
BRANCH  10  14
ATOM     11  C   UNL     1       2.899   3.673  19.634  0.00  0.00    +0.000 A 
ATOM     12  N   UNL     1       4.137   3.231  19.681  0.00  0.00    +0.000 NA
ATOM     13  N   UNL     1       5.016   4.072  19.025  0.00  0.00    +0.000 NA
ATOM     14  C   UNL     1       4.404   5.118  18.511  0.00  0.00    +0.000 A 
ATOM     15  S   UNL     1       2.711   5.152  18.786  0.00  0.00    +0.000 S 
BRANCH  11  17
ATOM     16  C   UNL     1       0.679   2.241  18.899  0.00  0.00    +0.000 C 
ATOM     17  S   UNL     1       1.558   2.820  20.369  0.00  0.00    +0.000 S 
ENDBRANCH  11  17
ENDBRANCH  10  14
ENDBRANCH   1  10
TORSDOF 4
ENDMDL
