MODEL 1
REMARK VINA RESULT:      -9.6      0.000      0.000
REMARK  Name = 
REMARK  5 active torsions:
REMARK  status: ('A' for Active; 'I' for Inactive)
REMARK    1  A    between atoms: C_1  and  N_2
REMARK    2  A    between atoms: C_6  and  C_7
REMARK    3  A    between atoms: C_11  and  C_12
REMARK    4  A    between atoms: N_14  and  C_15
REMARK    5  A    between atoms: C_20  and  C_21
REMARK                            x       y       z     vdW  Elec       q    Type
REMARK                         _______ _______ _______ _____ _____    ______ ____
ROOT
ATOM      1  C   UNL     1       2.286   6.422  19.266  0.00  0.00    +0.000 C 
ATOM      2  O   UNL     1       2.671   5.863  20.283  0.00  0.00    +0.000 OA
ATOM      3  N   UNL     1       2.155   5.759  18.065  0.00  0.00    +0.000 N 
ATOM      4  H   UNL     1       1.679   6.223  17.300  0.00  0.00    +0.000 HD
ENDROOT
BRANCH   1   9
ATOM      5  C   UNL     1       1.225  10.592  19.024  0.00  0.00    +0.000 A 
ATOM      6  C   UNL     1       1.930   9.943  18.008  0.00  0.00    +0.000 A 
ATOM      7  C   UNL     1       2.339   8.620  18.141  0.00  0.00    +0.000 A 
ATOM      8  F   UNL     1       3.066   8.103  17.142  0.00  0.00    +0.000 F 
ATOM      9  C   UNL     1       1.979   7.870  19.255  0.00  0.00    +0.000 A 
ATOM     10  C   UNL     1       1.269   8.509  20.271  0.00  0.00    +0.000 A 
ATOM     11  F   UNL     1       0.909   7.845  21.384  0.00  0.00    +0.000 F 
ATOM     12  C   UNL     1       0.902   9.850  20.173  0.00  0.00    +0.000 A 
BRANCH   5  18
ATOM     13  C   UNL     1      -1.579  11.624  18.038  0.00  0.00    +0.000 C 
ATOM     14  N   UNL     1      -0.461  12.414  18.502  0.00  0.00    +0.000 N 
ATOM     15  N   UNL     1      -0.577  13.757  18.461  0.00  0.00    +0.000 NA
ATOM     16  C   UNL     1       0.624  14.198  18.830  0.00  0.00    +0.000 A 
ATOM     17  C   UNL     1       1.509  13.148  19.113  0.00  0.00    +0.000 A 
ATOM     18  C   UNL     1       0.790  11.981  18.904  0.00  0.00    +0.000 A 
ENDBRANCH   5  18
ENDBRANCH   1   9
BRANCH   3  19
ATOM     19  C   UNL     1       2.468   4.347  17.891  0.00  0.00    +0.000 C 
ATOM     20  C   UNL     1       1.331   3.454  18.420  0.00  0.00    +0.000 C 
ATOM     21  N   UNL     1       1.547   2.048  18.069  0.00  0.00    +0.000 NA
ATOM     22  C   UNL     1       2.793   1.566  18.670  0.00  0.00    +0.000 C 
ATOM     23  C   UNL     1       4.018   2.380  18.236  0.00  0.00    +0.000 C 
ATOM     24  C   UNL     1       3.826   3.889  18.497  0.00  0.00    +0.000 C 
ATOM     25  H   UNL     1       1.599   1.958  17.055  0.00  0.00    +0.000 HD
BRANCH  24  26
ATOM     26  C   UNL     1       4.995   4.729  17.990  0.00  0.00    +0.000 A 
ATOM     27  C   UNL     1       5.041   5.217  16.673  0.00  0.00    +0.000 A 
ATOM     28  C   UNL     1       6.070   6.070  16.261  0.00  0.00    +0.000 A 
ATOM     29  C   UNL     1       7.062   6.436  17.162  0.00  0.00    +0.000 A 
ATOM     30  F   UNL     1       8.028   7.278  16.769  0.00  0.00    +0.000 F 
ATOM     31  C   UNL     1       7.045   5.945  18.460  0.00  0.00    +0.000 A 
ATOM     32  F   UNL     1       8.002   6.303  19.327  0.00  0.00    +0.000 F 
ATOM     33  C   UNL     1       6.024   5.095  18.879  0.00  0.00    +0.000 A 
ENDBRANCH  24  26
ENDBRANCH   3  19
TORSDOF 4
ENDMDL
MODEL 2
REMARK VINA RESULT:      -9.4      0.660      1.110
REMARK  Name = 
REMARK  5 active torsions:
REMARK  status: ('A' for Active; 'I' for Inactive)
REMARK    1  A    between atoms: C_1  and  N_2
REMARK    2  A    between atoms: C_6  and  C_7
REMARK    3  A    between atoms: C_11  and  C_12
REMARK    4  A    between atoms: N_14  and  C_15
REMARK    5  A    between atoms: C_20  and  C_21
REMARK                            x       y       z     vdW  Elec       q    Type
REMARK                         _______ _______ _______ _____ _____    ______ ____
ROOT
ATOM      1  C   UNL     1       2.262   6.510  19.295  0.00  0.00    +0.000 C 
ATOM      2  O   UNL     1       2.645   5.945  20.309  0.00  0.00    +0.000 OA
ATOM      3  N   UNL     1       2.160   5.861  18.083  0.00  0.00    +0.000 N 
ATOM      4  H   UNL     1       1.683   6.326  17.319  0.00  0.00    +0.000 HD
ENDROOT
BRANCH   1   9
ATOM      5  C   UNL     1       1.110  10.658  19.101  0.00  0.00    +0.000 A 
ATOM      6  C   UNL     1       1.813  10.032  18.069  0.00  0.00    +0.000 A 
ATOM      7  C   UNL     1       2.252   8.716  18.186  0.00  0.00    +0.000 A 
ATOM      8  F   UNL     1       2.974   8.222  17.173  0.00  0.00    +0.000 F 
ATOM      9  C   UNL     1       1.924   7.951  19.300  0.00  0.00    +0.000 A 
ATOM     10  C   UNL     1       1.216   8.567  20.331  0.00  0.00    +0.000 A 
ATOM     11  F   UNL     1       0.888   7.888  21.445  0.00  0.00    +0.000 F 
ATOM     12  C   UNL     1       0.820   9.901  20.249  0.00  0.00    +0.000 A 
BRANCH   5  18
ATOM     13  C   UNL     1       2.479  13.218  20.316  0.00  0.00    +0.000 C 
ATOM     14  N   UNL     1       1.280  13.156  19.509  0.00  0.00    +0.000 N 
ATOM     15  N   UNL     1       0.610  14.305  19.286  0.00  0.00    +0.000 NA
ATOM     16  C   UNL     1      -0.484  13.920  18.631  0.00  0.00    +0.000 A 
ATOM     17  C   UNL     1      -0.518  12.533  18.427  0.00  0.00    +0.000 A 
ATOM     18  C   UNL     1       0.644  12.039  18.998  0.00  0.00    +0.000 A 
ENDBRANCH   5  18
ENDBRANCH   1   9
BRANCH   3  19
ATOM     19  C   UNL     1       2.504   4.458  17.894  0.00  0.00    +0.000 C 
ATOM     20  C   UNL     1       1.380   3.535  18.397  0.00  0.00    +0.000 C 
ATOM     21  N   UNL     1       1.630   2.138  18.030  0.00  0.00    +0.000 NA
ATOM     22  C   UNL     1       2.879   1.674  18.640  0.00  0.00    +0.000 C 
ATOM     23  C   UNL     1       4.091   2.519  18.232  0.00  0.00    +0.000 C 
ATOM     24  C   UNL     1       3.864   4.021  18.511  0.00  0.00    +0.000 C 
ATOM     25  H   UNL     1       1.695   2.063  17.016  0.00  0.00    +0.000 HD
BRANCH  24  26
ATOM     26  C   UNL     1       5.021   4.892  18.029  0.00  0.00    +0.000 A 
ATOM     27  C   UNL     1       5.012   5.503  16.764  0.00  0.00    +0.000 A 
ATOM     28  C   UNL     1       6.034   6.380  16.386  0.00  0.00    +0.000 A 
ATOM     29  C   UNL     1       7.074   6.646  17.267  0.00  0.00    +0.000 A 
ATOM     30  F   UNL     1       8.033   7.511  16.910  0.00  0.00    +0.000 F 
ATOM     31  C   UNL     1       7.111   6.033  18.512  0.00  0.00    +0.000 A 
ATOM     32  F   UNL     1       8.114   6.295  19.362  0.00  0.00    +0.000 F 
ATOM     33  C   UNL     1       6.097   5.159  18.897  0.00  0.00    +0.000 A 
ENDBRANCH  24  26
ENDBRANCH   3  19
TORSDOF 4
ENDMDL
MODEL 3
REMARK VINA RESULT:      -9.2      0.310      1.516
REMARK  Name = 
REMARK  5 active torsions:
REMARK  status: ('A' for Active; 'I' for Inactive)
REMARK    1  A    between atoms: C_1  and  N_2
REMARK    2  A    between atoms: C_6  and  C_7
REMARK    3  A    between atoms: C_11  and  C_12
REMARK    4  A    between atoms: N_14  and  C_15
REMARK    5  A    between atoms: C_20  and  C_21
REMARK                            x       y       z     vdW  Elec       q    Type
REMARK                         _______ _______ _______ _____ _____    ______ ____
ROOT
ATOM      1  C   UNL     1       2.251   6.506  19.213  0.00  0.00    +0.000 C 
ATOM      2  O   UNL     1       2.678   6.060  20.268  0.00  0.00    +0.000 OA
ATOM      3  N   UNL     1       2.136   5.733  18.078  0.00  0.00    +0.000 N 
ATOM      4  H   UNL     1       1.625   6.104  17.284  0.00  0.00    +0.000 HD
ENDROOT
BRANCH   1   9
ATOM      5  C   UNL     1       1.300  10.706  19.040  0.00  0.00    +0.000 A 
ATOM      6  C   UNL     1       0.908   9.898  20.110  0.00  0.00    +0.000 A 
ATOM      7  C   UNL     1       1.149   8.527  20.108  0.00  0.00    +0.000 A 
ATOM      8  F   UNL     1       0.679   7.824  21.146  0.00  0.00    +0.000 F 
ATOM      9  C   UNL     1       1.871   7.930  19.080  0.00  0.00    +0.000 A 
ATOM     10  C   UNL     1       2.271   8.732  18.012  0.00  0.00    +0.000 A 
ATOM     11  F   UNL     1       2.953   8.212  16.976  0.00  0.00    +0.000 F 
ATOM     12  C   UNL     1       1.987  10.097  17.977  0.00  0.00    +0.000 A 
BRANCH   5  18
ATOM     13  C   UNL     1      -1.348  12.168  18.173  0.00  0.00    +0.000 C 
ATOM     14  N   UNL     1      -0.130  12.768  18.672  0.00  0.00    +0.000 N 
ATOM     15  N   UNL     1      -0.066  14.114  18.724  0.00  0.00    +0.000 NA
ATOM     16  C   UNL     1       1.185  14.365  19.102  0.00  0.00    +0.000 A 
ATOM     17  C   UNL     1       1.924  13.189  19.299  0.00  0.00    +0.000 A 
ATOM     18  C   UNL     1       1.054  12.146  19.023  0.00  0.00    +0.000 A 
ENDBRANCH   5  18
ENDBRANCH   1   9
BRANCH   3  19
ATOM     19  C   UNL     1       2.516   4.328  18.023  0.00  0.00    +0.000 C 
ATOM     20  C   UNL     1       1.409   3.427  18.598  0.00  0.00    +0.000 C 
ATOM     21  N   UNL     1       1.698   2.009  18.365  0.00  0.00    +0.000 NA
ATOM     22  C   UNL     1       2.949   1.635  19.028  0.00  0.00    +0.000 C 
ATOM     23  C   UNL     1       4.145   2.470  18.556  0.00  0.00    +0.000 C 
ATOM     24  C   UNL     1       3.879   3.984  18.692  0.00  0.00    +0.000 C 
ATOM     25  H   UNL     1       1.777   1.842  17.363  0.00  0.00    +0.000 HD
BRANCH  24  26
ATOM     26  C   UNL     1       5.020   4.836  18.143  0.00  0.00    +0.000 A 
ATOM     27  C   UNL     1       4.981   5.383  16.849  0.00  0.00    +0.000 A 
ATOM     28  C   UNL     1       5.990   6.245  16.406  0.00  0.00    +0.000 A 
ATOM     29  C   UNL     1       7.046   6.561  17.251  0.00  0.00    +0.000 A 
ATOM     30  F   UNL     1       7.992   7.411  16.832  0.00  0.00    +0.000 F 
ATOM     31  C   UNL     1       7.112   6.012  18.525  0.00  0.00    +0.000 A 
ATOM     32  F   UNL     1       8.130   6.322  19.339  0.00  0.00    +0.000 F 
ATOM     33  C   UNL     1       6.112   5.152  18.974  0.00  0.00    +0.000 A 
ENDBRANCH  24  26
ENDBRANCH   3  19
TORSDOF 4
ENDMDL
MODEL 4
REMARK VINA RESULT:      -9.2      2.596      4.474
REMARK  Name = 
REMARK  5 active torsions:
REMARK  status: ('A' for Active; 'I' for Inactive)
REMARK    1  A    between atoms: C_1  and  N_2
REMARK    2  A    between atoms: C_6  and  C_7
REMARK    3  A    between atoms: C_11  and  C_12
REMARK    4  A    between atoms: N_14  and  C_15
REMARK    5  A    between atoms: C_20  and  C_21
REMARK                            x       y       z     vdW  Elec       q    Type
REMARK                         _______ _______ _______ _____ _____    ______ ____
ROOT
ATOM      1  C   UNL     1       3.381   6.683  18.828  0.00  0.00    +0.000 C 
ATOM      2  O   UNL     1       4.067   6.117  19.667  0.00  0.00    +0.000 OA
ATOM      3  N   UNL     1       3.574   6.504  17.475  0.00  0.00    +0.000 N 
ATOM      4  H   UNL     1       2.878   6.863  16.831  0.00  0.00    +0.000 HD
ENDROOT
BRANCH   1   9
ATOM      5  C   UNL     1       0.452   9.539  20.183  0.00  0.00    +0.000 A 
ATOM      6  C   UNL     1       0.768   8.393  20.916  0.00  0.00    +0.000 A 
ATOM      7  C   UNL     1       1.653   7.439  20.422  0.00  0.00    +0.000 A 
ATOM      8  F   UNL     1       1.844   6.342  21.166  0.00  0.00    +0.000 F 
ATOM      9  C   UNL     1       2.323   7.641  19.220  0.00  0.00    +0.000 A 
ATOM     10  C   UNL     1       2.017   8.786  18.487  0.00  0.00    +0.000 A 
ATOM     11  F   UNL     1       2.614   9.029  17.305  0.00  0.00    +0.000 F 
ATOM     12  C   UNL     1       1.091   9.721  18.945  0.00  0.00    +0.000 A 
BRANCH   5  18
ATOM     13  C   UNL     1      -0.444   9.984  23.166  0.00  0.00    +0.000 C 
ATOM     14  N   UNL     1      -0.830  10.753  22.004  0.00  0.00    +0.000 N 
ATOM     15  N   UNL     1      -1.728  11.745  22.174  0.00  0.00    +0.000 NA
ATOM     16  C   UNL     1      -1.968  12.180  20.939  0.00  0.00    +0.000 A 
ATOM     17  C   UNL     1      -1.226  11.480  19.977  0.00  0.00    +0.000 A 
ATOM     18  C   UNL     1      -0.477  10.550  20.682  0.00  0.00    +0.000 A 
ENDBRANCH   5  18
ENDBRANCH   1   9
BRANCH   3  19
ATOM     19  C   UNL     1       4.606   5.639  16.921  0.00  0.00    +0.000 C 
ATOM     20  C   UNL     1       5.281   6.286  15.698  0.00  0.00    +0.000 C 
ATOM     21  N   UNL     1       6.448   5.516  15.260  0.00  0.00    +0.000 NA
ATOM     22  C   UNL     1       6.041   4.165  14.866  0.00  0.00    +0.000 C 
ATOM     23  C   UNL     1       5.338   3.403  15.995  0.00  0.00    +0.000 C 
ATOM     24  C   UNL     1       4.143   4.196  16.567  0.00  0.00    +0.000 C 
ATOM     25  H   UNL     1       7.122   5.462  16.024  0.00  0.00    +0.000 HD
BRANCH  24  26
ATOM     26  C   UNL     1       3.483   3.496  17.753  0.00  0.00    +0.000 A 
ATOM     27  C   UNL     1       4.218   3.107  18.886  0.00  0.00    +0.000 A 
ATOM     28  C   UNL     1       3.575   2.562  20.002  0.00  0.00    +0.000 A 
ATOM     29  C   UNL     1       2.196   2.397  19.991  0.00  0.00    +0.000 A 
ATOM     30  F   UNL     1       1.584   1.903  21.075  0.00  0.00    +0.000 F 
ATOM     31  C   UNL     1       1.458   2.755  18.871  0.00  0.00    +0.000 A 
ATOM     32  F   UNL     1       0.127   2.598  18.864  0.00  0.00    +0.000 F 
ATOM     33  C   UNL     1       2.090   3.299  17.754  0.00  0.00    +0.000 A 
ENDBRANCH  24  26
ENDBRANCH   3  19
TORSDOF 4
ENDMDL
MODEL 5
REMARK VINA RESULT:      -9.2      2.461      4.312
REMARK  Name = 
REMARK  5 active torsions:
REMARK  status: ('A' for Active; 'I' for Inactive)
REMARK    1  A    between atoms: C_1  and  N_2
REMARK    2  A    between atoms: C_6  and  C_7
REMARK    3  A    between atoms: C_11  and  C_12
REMARK    4  A    between atoms: N_14  and  C_15
REMARK    5  A    between atoms: C_20  and  C_21
REMARK                            x       y       z     vdW  Elec       q    Type
REMARK                         _______ _______ _______ _____ _____    ______ ____
ROOT
ATOM      1  C   UNL     1       3.388   6.697  18.800  0.00  0.00    +0.000 C 
ATOM      2  O   UNL     1       4.068   6.140  19.650  0.00  0.00    +0.000 OA
ATOM      3  N   UNL     1       3.588   6.501  17.451  0.00  0.00    +0.000 N 
ATOM      4  H   UNL     1       2.897   6.853  16.798  0.00  0.00    +0.000 HD
ENDROOT
BRANCH   1   9
ATOM      5  C   UNL     1       0.453   9.569  20.105  0.00  0.00    +0.000 A 
ATOM      6  C   UNL     1       0.761   8.429  20.851  0.00  0.00    +0.000 A 
ATOM      7  C   UNL     1       1.647   7.469  20.373  0.00  0.00    +0.000 A 
ATOM      8  F   UNL     1       1.830   6.379  21.128  0.00  0.00    +0.000 F 
ATOM      9  C   UNL     1       2.328   7.659  19.175  0.00  0.00    +0.000 A 
ATOM     10  C   UNL     1       2.031   8.798  18.429  0.00  0.00    +0.000 A 
ATOM     11  F   UNL     1       2.638   9.029  17.250  0.00  0.00    +0.000 F 
ATOM     12  C   UNL     1       1.102   9.739  18.871  0.00  0.00    +0.000 A 
BRANCH   5  18
ATOM     13  C   UNL     1      -1.734  11.090  18.429  0.00  0.00    +0.000 C 
ATOM     14  N   UNL     1      -1.457  11.218  19.843  0.00  0.00    +0.000 N 
ATOM     15  N   UNL     1      -2.157  12.134  20.542  0.00  0.00    +0.000 NA
ATOM     16  C   UNL     1      -1.612  12.102  21.756  0.00  0.00    +0.000 A 
ATOM     17  C   UNL     1      -0.569  11.168  21.843  0.00  0.00    +0.000 A 
ATOM     18  C   UNL     1      -0.478  10.587  20.588  0.00  0.00    +0.000 A 
ENDBRANCH   5  18
ENDBRANCH   1   9
BRANCH   3  19
ATOM     19  C   UNL     1       4.623   5.629  16.913  0.00  0.00    +0.000 C 
ATOM     20  C   UNL     1       5.307   6.263  15.688  0.00  0.00    +0.000 C 
ATOM     21  N   UNL     1       6.477   5.487  15.266  0.00  0.00    +0.000 NA
ATOM     22  C   UNL     1       6.070   4.133  14.883  0.00  0.00    +0.000 C 
ATOM     23  C   UNL     1       5.358   3.383  16.015  0.00  0.00    +0.000 C 
ATOM     24  C   UNL     1       4.160   4.183  16.570  0.00  0.00    +0.000 C 
ATOM     25  H   UNL     1       7.145   5.440  16.035  0.00  0.00    +0.000 HD
BRANCH  24  26
ATOM     26  C   UNL     1       3.492   3.497  17.759  0.00  0.00    +0.000 A 
ATOM     27  C   UNL     1       4.218   3.115  18.900  0.00  0.00    +0.000 A 
ATOM     28  C   UNL     1       3.567   2.583  20.017  0.00  0.00    +0.000 A 
ATOM     29  C   UNL     1       2.187   2.423  19.999  0.00  0.00    +0.000 A 
ATOM     30  F   UNL     1       1.567   1.941  21.084  0.00  0.00    +0.000 F 
ATOM     31  C   UNL     1       1.457   2.773  18.871  0.00  0.00    +0.000 A 
ATOM     32  F   UNL     1       0.126   2.621  18.859  0.00  0.00    +0.000 F 
ATOM     33  C   UNL     1       2.097   3.304  17.754  0.00  0.00    +0.000 A 
ENDBRANCH  24  26
ENDBRANCH   3  19
TORSDOF 4
ENDMDL
MODEL 6
REMARK VINA RESULT:      -9.1      2.683      4.228
REMARK  Name = 
REMARK  5 active torsions:
REMARK  status: ('A' for Active; 'I' for Inactive)
REMARK    1  A    between atoms: C_1  and  N_2
REMARK    2  A    between atoms: C_6  and  C_7
REMARK    3  A    between atoms: C_11  and  C_12
REMARK    4  A    between atoms: N_14  and  C_15
REMARK    5  A    between atoms: C_20  and  C_21
REMARK                            x       y       z     vdW  Elec       q    Type
REMARK                         _______ _______ _______ _____ _____    ______ ____
ROOT
ATOM      1  C   UNL     1       2.402   7.549  18.352  0.00  0.00    +0.000 C 
ATOM      2  O   UNL     1       1.806   7.183  17.349  0.00  0.00    +0.000 OA
ATOM      3  N   UNL     1       3.617   7.015  18.723  0.00  0.00    +0.000 N 
ATOM      4  H   UNL     1       4.143   7.465  19.464  0.00  0.00    +0.000 HD
ENDROOT
BRANCH   1   9
ATOM      5  C   UNL     1       0.511  10.524  20.830  0.00  0.00    +0.000 A 
ATOM      6  C   UNL     1       0.966  10.810  19.541  0.00  0.00    +0.000 A 
ATOM      7  C   UNL     1       1.652   9.861  18.788  0.00  0.00    +0.000 A 
ATOM      8  F   UNL     1       2.107  10.247  17.589  0.00  0.00    +0.000 F 
ATOM      9  C   UNL     1       1.825   8.565  19.261  0.00  0.00    +0.000 A 
ATOM     10  C   UNL     1       1.367   8.271  20.544  0.00  0.00    +0.000 A 
ATOM     11  F   UNL     1       1.524   7.041  21.069  0.00  0.00    +0.000 F 
ATOM     12  C   UNL     1       0.728   9.230  21.329  0.00  0.00    +0.000 A 
BRANCH   5  18
ATOM     13  C   UNL     1       1.141  13.597  21.081  0.00  0.00    +0.000 C 
ATOM     14  N   UNL     1       0.063  12.863  21.706  0.00  0.00    +0.000 N 
ATOM     15  N   UNL     1      -0.747  13.531  22.552  0.00  0.00    +0.000 NA
ATOM     16  C   UNL     1      -1.546  12.588  23.047  0.00  0.00    +0.000 A 
ATOM     17  C   UNL     1      -1.259  11.320  22.521  0.00  0.00    +0.000 A 
ATOM     18  C   UNL     1      -0.207  11.509  21.637  0.00  0.00    +0.000 A 
ENDBRANCH   5  18
ENDBRANCH   1   9
BRANCH   3  19
ATOM     19  C   UNL     1       4.297   5.970  17.969  0.00  0.00    +0.000 C 
ATOM     20  C   UNL     1       4.919   6.528  16.677  0.00  0.00    +0.000 C 
ATOM     21  N   UNL     1       5.768   5.532  16.018  0.00  0.00    +0.000 NA
ATOM     22  C   UNL     1       4.973   4.359  15.647  0.00  0.00    +0.000 C 
ATOM     23  C   UNL     1       4.280   3.705  16.847  0.00  0.00    +0.000 C 
ATOM     24  C   UNL     1       3.431   4.719  17.643  0.00  0.00    +0.000 C 
ATOM     25  H   UNL     1       6.514   5.252  16.654  0.00  0.00    +0.000 HD
BRANCH  24  26
ATOM     26  C   UNL     1       2.804   4.110  18.895  0.00  0.00    +0.000 A 
ATOM     27  C   UNL     1       1.428   4.215  19.161  0.00  0.00    +0.000 A 
ATOM     28  C   UNL     1       0.860   3.562  20.259  0.00  0.00    +0.000 A 
ATOM     29  C   UNL     1       1.664   2.805  21.101  0.00  0.00    +0.000 A 
ATOM     30  F   UNL     1       1.108   2.156  22.134  0.00  0.00    +0.000 F 
ATOM     31  C   UNL     1       3.029   2.709  20.867  0.00  0.00    +0.000 A 
ATOM     32  F   UNL     1       3.802   1.974  21.679  0.00  0.00    +0.000 F 
ATOM     33  C   UNL     1       3.603   3.356  19.775  0.00  0.00    +0.000 A 
ENDBRANCH  24  26
ENDBRANCH   3  19
TORSDOF 4
ENDMDL
MODEL 7
REMARK VINA RESULT:      -9.1      0.935      1.445
REMARK  Name = 
REMARK  5 active torsions:
REMARK  status: ('A' for Active; 'I' for Inactive)
REMARK    1  A    between atoms: C_1  and  N_2
REMARK    2  A    between atoms: C_6  and  C_7
REMARK    3  A    between atoms: C_11  and  C_12
REMARK    4  A    between atoms: N_14  and  C_15
REMARK    5  A    between atoms: C_20  and  C_21
REMARK                            x       y       z     vdW  Elec       q    Type
REMARK                         _______ _______ _______ _____ _____    ______ ____
ROOT
ATOM      1  C   UNL     1       2.257   6.269  19.322  0.00  0.00    +0.000 C 
ATOM      2  O   UNL     1       2.755   5.745  20.308  0.00  0.00    +0.000 OA
ATOM      3  N   UNL     1       1.946   5.556  18.184  0.00  0.00    +0.000 N 
ATOM      4  H   UNL     1       1.388   6.001  17.466  0.00  0.00    +0.000 HD
ENDROOT
BRANCH   1   9
ATOM      5  C   UNL     1       1.332  10.464  18.979  0.00  0.00    +0.000 A 
ATOM      6  C   UNL     1       2.022   9.770  17.982  0.00  0.00    +0.000 A 
ATOM      7  C   UNL     1       2.388   8.438  18.148  0.00  0.00    +0.000 A 
ATOM      8  F   UNL     1       3.104   7.876  17.166  0.00  0.00    +0.000 F 
ATOM      9  C   UNL     1       1.996   7.726  19.276  0.00  0.00    +0.000 A 
ATOM     10  C   UNL     1       1.301   8.410  20.272  0.00  0.00    +0.000 A 
ATOM     11  F   UNL     1       0.913   7.784  21.398  0.00  0.00    +0.000 F 
ATOM     12  C   UNL     1       0.978   9.760  20.141  0.00  0.00    +0.000 A 
BRANCH   5  18
ATOM     13  C   UNL     1      -1.483  11.566  18.105  0.00  0.00    +0.000 C 
ATOM     14  N   UNL     1      -0.311  12.330  18.474  0.00  0.00    +0.000 N 
ATOM     15  N   UNL     1      -0.380  13.673  18.382  0.00  0.00    +0.000 NA
ATOM     16  C   UNL     1       0.856  14.081  18.666  0.00  0.00    +0.000 A 
ATOM     17  C   UNL     1       1.716  13.009  18.944  0.00  0.00    +0.000 A 
ATOM     18  C   UNL     1       0.943  11.864  18.824  0.00  0.00    +0.000 A 
ENDBRANCH   5  18
ENDBRANCH   1   9
BRANCH   3  19
ATOM     19  C   UNL     1       2.188   4.126  18.045  0.00  0.00    +0.000 C 
ATOM     20  C   UNL     1       1.150   3.305  18.830  0.00  0.00    +0.000 C 
ATOM     21  N   UNL     1       1.265   1.874  18.534  0.00  0.00    +0.000 NA
ATOM     22  C   UNL     1       2.589   1.385  18.923  0.00  0.00    +0.000 C 
ATOM     23  C   UNL     1       3.730   2.130  18.220  0.00  0.00    +0.000 C 
ATOM     24  C   UNL     1       3.625   3.657  18.417  0.00  0.00    +0.000 C 
ATOM     25  H   UNL     1       1.123   1.724  17.536  0.00  0.00    +0.000 HD
BRANCH  24  26
ATOM     26  C   UNL     1       4.698   4.426  17.651  0.00  0.00    +0.000 A 
ATOM     27  C   UNL     1       5.659   5.213  18.309  0.00  0.00    +0.000 A 
ATOM     28  C   UNL     1       6.694   5.824  17.594  0.00  0.00    +0.000 A 
ATOM     29  C   UNL     1       6.771   5.658  16.217  0.00  0.00    +0.000 A 
ATOM     30  F   UNL     1       7.783   6.221  15.543  0.00  0.00    +0.000 F 
ATOM     31  C   UNL     1       5.817   4.904  15.548  0.00  0.00    +0.000 A 
ATOM     32  F   UNL     1       5.897   4.743  14.220  0.00  0.00    +0.000 F 
ATOM     33  C   UNL     1       4.783   4.291  16.252  0.00  0.00    +0.000 A 
ENDBRANCH  24  26
ENDBRANCH   3  19
TORSDOF 4
ENDMDL
MODEL 8
REMARK VINA RESULT:      -9.1      2.656      4.365
REMARK  Name = 
REMARK  5 active torsions:
REMARK  status: ('A' for Active; 'I' for Inactive)
REMARK    1  A    between atoms: C_1  and  N_2
REMARK    2  A    between atoms: C_6  and  C_7
REMARK    3  A    between atoms: C_11  and  C_12
REMARK    4  A    between atoms: N_14  and  C_15
REMARK    5  A    between atoms: C_20  and  C_21
REMARK                            x       y       z     vdW  Elec       q    Type
REMARK                         _______ _______ _______ _____ _____    ______ ____
ROOT
ATOM      1  C   UNL     1       2.608   7.258  18.219  0.00  0.00    +0.000 C 
ATOM      2  O   UNL     1       2.094   6.895  17.171  0.00  0.00    +0.000 OA
ATOM      3  N   UNL     1       3.869   6.853  18.600  0.00  0.00    +0.000 N 
ATOM      4  H   UNL     1       4.311   7.311  19.389  0.00  0.00    +0.000 HD
ENDROOT
BRANCH   1   9
ATOM      5  C   UNL     1       0.281   9.787  20.818  0.00  0.00    +0.000 A 
ATOM      6  C   UNL     1       0.710  10.210  19.558  0.00  0.00    +0.000 A 
ATOM      7  C   UNL     1       1.533   9.412  18.768  0.00  0.00    +0.000 A 
ATOM      8  F   UNL     1       1.947   9.929  17.604  0.00  0.00    +0.000 F 
ATOM      9  C   UNL     1       1.881   8.127  19.170  0.00  0.00    +0.000 A 
ATOM     10  C   UNL     1       1.450   7.696  20.424  0.00  0.00    +0.000 A 
ATOM     11  F   UNL     1       1.771   6.472  20.881  0.00  0.00    +0.000 F 
ATOM     12  C   UNL     1       0.672   8.508  21.248  0.00  0.00    +0.000 A 
BRANCH   5  18
ATOM     13  C   UNL     1      -1.390  12.305  19.941  0.00  0.00    +0.000 C 
ATOM     14  N   UNL     1      -1.336  11.694  21.250  0.00  0.00    +0.000 N 
ATOM     15  N   UNL     1      -2.020  12.284  22.251  0.00  0.00    +0.000 NA
ATOM     16  C   UNL     1      -1.690  11.579  23.331  0.00  0.00    +0.000 A 
ATOM     17  C   UNL     1      -0.802  10.535  23.030  0.00  0.00    +0.000 A 
ATOM     18  C   UNL     1      -0.580  10.611  21.663  0.00  0.00    +0.000 A 
ENDBRANCH   5  18
ENDBRANCH   1   9
BRANCH   3  19
ATOM     19  C   UNL     1       4.697   5.956  17.805  0.00  0.00    +0.000 C 
ATOM     20  C   UNL     1       5.325   6.691  16.607  0.00  0.00    +0.000 C 
ATOM     21  N   UNL     1       6.312   5.851  15.922  0.00  0.00    +0.000 NA
ATOM     22  C   UNL     1       5.669   4.642  15.401  0.00  0.00    +0.000 C 
ATOM     23  C   UNL     1       4.986   3.813  16.495  0.00  0.00    +0.000 C 
ATOM     24  C   UNL     1       3.990   4.658  17.318  0.00  0.00    +0.000 C 
ATOM     25  H   UNL     1       7.048   5.593  16.578  0.00  0.00    +0.000 HD
BRANCH  24  26
ATOM     26  C   UNL     1       3.365   3.877  18.471  0.00  0.00    +0.000 A 
ATOM     27  C   UNL     1       4.128   3.433  19.565  0.00  0.00    +0.000 A 
ATOM     28  C   UNL     1       3.516   2.811  20.658  0.00  0.00    +0.000 A 
ATOM     29  C   UNL     1       2.139   2.622  20.661  0.00  0.00    +0.000 A 
ATOM     30  F   UNL     1       1.556   2.052  21.725  0.00  0.00    +0.000 F 
ATOM     31  C   UNL     1       1.374   3.033  19.578  0.00  0.00    +0.000 A 
ATOM     32  F   UNL     1       0.046   2.853  19.586  0.00  0.00    +0.000 F 
ATOM     33  C   UNL     1       1.975   3.654  18.486  0.00  0.00    +0.000 A 
ENDBRANCH  24  26
ENDBRANCH   3  19
TORSDOF 4
ENDMDL
MODEL 9
REMARK VINA RESULT:      -9.0      2.608      4.544
REMARK  Name = 
REMARK  5 active torsions:
REMARK  status: ('A' for Active; 'I' for Inactive)
REMARK    1  A    between atoms: C_1  and  N_2
REMARK    2  A    between atoms: C_6  and  C_7
REMARK    3  A    between atoms: C_11  and  C_12
REMARK    4  A    between atoms: N_14  and  C_15
REMARK    5  A    between atoms: C_20  and  C_21
REMARK                            x       y       z     vdW  Elec       q    Type
REMARK                         _______ _______ _______ _____ _____    ______ ____
ROOT
ATOM      1  C   UNL     1       3.257   7.534  17.843  0.00  0.00    +0.000 C 
ATOM      2  O   UNL     1       3.164   7.531  16.624  0.00  0.00    +0.000 OA
ATOM      3  N   UNL     1       4.255   6.855  18.508  0.00  0.00    +0.000 N 
ATOM      4  H   UNL     1       4.384   7.025  19.499  0.00  0.00    +0.000 HD
ENDROOT
BRANCH   1   9
ATOM      5  C   UNL     1       0.557   9.594  20.496  0.00  0.00    +0.000 A 
ATOM      6  C   UNL     1       1.030   8.308  20.767  0.00  0.00    +0.000 A 
ATOM      7  C   UNL     1       1.831   7.624  19.857  0.00  0.00    +0.000 A 
ATOM      8  F   UNL     1       2.182   6.372  20.175  0.00  0.00    +0.000 F 
ATOM      9  C   UNL     1       2.265   8.237  18.687  0.00  0.00    +0.000 A 
ATOM     10  C   UNL     1       1.803   9.524  18.413  0.00  0.00    +0.000 A 
ATOM     11  F   UNL     1       2.167  10.163  17.287  0.00  0.00    +0.000 F 
ATOM     12  C   UNL     1       0.953  10.196  19.290  0.00  0.00    +0.000 A 
BRANCH   5  18
ATOM     13  C   UNL     1      -1.361  12.002  19.846  0.00  0.00    +0.000 C 
ATOM     14  N   UNL     1      -1.153  11.359  21.124  0.00  0.00    +0.000 N 
ATOM     15  N   UNL     1      -1.792  11.868  22.197  0.00  0.00    +0.000 NA
ATOM     16  C   UNL     1      -1.322  11.158  23.221  0.00  0.00    +0.000 A 
ATOM     17  C   UNL     1      -0.389  10.194  22.813  0.00  0.00    +0.000 A 
ATOM     18  C   UNL     1      -0.289  10.326  21.436  0.00  0.00    +0.000 A 
ENDBRANCH   5  18
ENDBRANCH   1   9
BRANCH   3  19
ATOM     19  C   UNL     1       5.279   6.071  17.830  0.00  0.00    +0.000 C 
ATOM     20  C   UNL     1       6.128   6.950  16.894  0.00  0.00    +0.000 C 
ATOM     21  N   UNL     1       7.278   6.212  16.366  0.00  0.00    +0.000 NA
ATOM     22  C   UNL     1       6.822   5.060  15.584  0.00  0.00    +0.000 C 
ATOM     23  C   UNL     1       5.947   4.099  16.397  0.00  0.00    +0.000 C 
ATOM     24  C   UNL     1       4.756   4.825  17.058  0.00  0.00    +0.000 C 
ATOM     25  H   UNL     1       7.858   5.892  17.141  0.00  0.00    +0.000 HD
BRANCH  24  26
ATOM     26  C   UNL     1       3.922   3.905  17.945  0.00  0.00    +0.000 A 
ATOM     27  C   UNL     1       4.462   3.288  19.087  0.00  0.00    +0.000 A 
ATOM     28  C   UNL     1       3.652   2.533  19.942  0.00  0.00    +0.000 A 
ATOM     29  C   UNL     1       2.300   2.386  19.659  0.00  0.00    +0.000 A 
ATOM     30  F   UNL     1       1.525   1.688  20.499  0.00  0.00    +0.000 F 
ATOM     31  C   UNL     1       1.755   2.970  18.523  0.00  0.00    +0.000 A 
ATOM     32  F   UNL     1       0.450   2.830  18.255  0.00  0.00    +0.000 F 
ATOM     33  C   UNL     1       2.554   3.724  17.666  0.00  0.00    +0.000 A 
ENDBRANCH  24  26
ENDBRANCH   3  19
TORSDOF 4
ENDMDL
