MODEL 1
REMARK VINA RESULT:      -7.7      0.000      0.000
REMARK  Name = 
REMARK  7 active torsions:
REMARK  status: ('A' for Active; 'I' for Inactive)
REMARK    1  A    between atoms: C_1  and  C_2
REMARK    2  A    between atoms: C_7  and  C_8
REMARK    3  A    between atoms: C_8  and  O_10
REMARK    4  A    between atoms: C_13  and  C_14
REMARK    5  A    between atoms: C_17  and  C_18
REMARK    6  A    between atoms: C_18  and  C_19
REMARK    7  A    between atoms: C_19  and  O_20
REMARK                            x       y       z     vdW  Elec       q    Type
REMARK                         _______ _______ _______ _____ _____    ______ ____
ROOT
ATOM      1  C   UNL     1       1.313   4.866  17.807  0.00  0.00    +0.000 C 
ATOM      2  C   UNL     1       2.754   5.302  17.922  0.00  0.00    +0.000 A 
ATOM      3  C   UNL     1       3.728   4.331  17.591  0.00  0.00    +0.000 A 
ATOM      4  C   UNL     1       5.079   4.692  17.588  0.00  0.00    +0.000 A 
ATOM      5  N   UNL     1       6.188   3.956  17.252  0.00  0.00    +0.000 N 
ATOM      6  C   UNL     1       7.307   4.736  17.323  0.00  0.00    +0.000 A 
ATOM      7  C   UNL     1       6.945   5.998  17.753  0.00  0.00    +0.000 A 
ATOM      8  C   UNL     1       5.517   5.968  17.927  0.00  0.00    +0.000 A 
ATOM      9  C   UNL     1       4.533   6.910  18.294  0.00  0.00    +0.000 A 
ATOM     10  C   UNL     1       3.144   6.609  18.301  0.00  0.00    +0.000 A 
ATOM     11  H   UNL     1       6.169   2.989  16.956  0.00  0.00    +0.000 HD
ENDROOT
BRANCH  10  12
ATOM     12  C   UNL     1       2.209   7.711  18.665  0.00  0.00    +0.000 A 
ATOM     13  C   UNL     1       1.765   7.859  19.994  0.00  0.00    +0.000 A 
ATOM     14  C   UNL     1       0.867   8.862  20.370  0.00  0.00    +0.000 A 
ATOM     15  C   UNL     1       0.408   9.806  19.448  0.00  0.00    +0.000 A 
ATOM     16  C   UNL     1       0.824   9.651  18.117  0.00  0.00    +0.000 A 
ATOM     17  C   UNL     1       1.682   8.612  17.730  0.00  0.00    +0.000 A 
BRANCH  15  18
ATOM     18  C   UNL     1      -0.427  10.994  19.893  0.00  0.00    +0.000 C 
ATOM     19  C   UNL     1      -0.600  12.161  18.935  0.00  0.00    +0.000 C 
ATOM     20  C   UNL     1      -1.757  11.248  19.200  0.00  0.00    +0.000 C 
BRANCH  18  21
ATOM     21  C   UNL     1      -0.379  11.271  21.386  0.00  0.00    +0.000 C 
BRANCH  21  22
ATOM     22  O   UNL     1       0.630  12.229  21.689  0.00  0.00    +0.000 OA
ATOM     23  H   UNL     1       1.059  12.450  20.844  0.00  0.00    +0.000 HD
ENDBRANCH  21  22
ENDBRANCH  18  21
ENDBRANCH  15  18
ENDBRANCH  10  12
BRANCH   7  24
ATOM     24  C   UNL     1       7.898   7.095  17.910  0.00  0.00    +0.000 C 
ATOM     25  O   UNL     1       8.077   7.958  17.061  0.00  0.00    +0.000 OA
BRANCH  24  26
ATOM     26  O   UNL     1       8.605   7.088  19.066  0.00  0.00    +0.000 OA
ATOM     27  H   UNL     1       9.428   6.576  18.979  0.00  0.00    +0.000 HD
ENDBRANCH  24  26
ENDBRANCH   7  24
TORSDOF 6
ENDMDL
MODEL 2
REMARK VINA RESULT:      -7.7      5.257      6.742
REMARK  Name = 
REMARK  7 active torsions:
REMARK  status: ('A' for Active; 'I' for Inactive)
REMARK    1  A    between atoms: C_1  and  C_2
REMARK    2  A    between atoms: C_7  and  C_8
REMARK    3  A    between atoms: C_8  and  O_10
REMARK    4  A    between atoms: C_13  and  C_14
REMARK    5  A    between atoms: C_17  and  C_18
REMARK    6  A    between atoms: C_18  and  C_19
REMARK    7  A    between atoms: C_19  and  O_20
REMARK                            x       y       z     vdW  Elec       q    Type
REMARK                         _______ _______ _______ _____ _____    ______ ____
ROOT
ATOM      1  C   UNL     1       7.082   6.014  17.472  0.00  0.00    +0.000 C 
ATOM      2  C   UNL     1       6.656   5.371  16.173  0.00  0.00    +0.000 A 
ATOM      3  C   UNL     1       7.510   5.582  15.065  0.00  0.00    +0.000 A 
ATOM      4  C   UNL     1       7.227   4.943  13.853  0.00  0.00    +0.000 A 
ATOM      5  N   UNL     1       7.924   4.946  12.671  0.00  0.00    +0.000 N 
ATOM      6  C   UNL     1       7.319   4.118  11.769  0.00  0.00    +0.000 A 
ATOM      7  C   UNL     1       6.178   3.590  12.342  0.00  0.00    +0.000 A 
ATOM      8  C   UNL     1       6.117   4.123  13.677  0.00  0.00    +0.000 A 
ATOM      9  C   UNL     1       5.257   3.958  14.783  0.00  0.00    +0.000 A 
ATOM     10  C   UNL     1       5.498   4.567  16.043  0.00  0.00    +0.000 A 
ATOM     11  H   UNL     1       8.784   5.455  12.510  0.00  0.00    +0.000 HD
ENDROOT
BRANCH  10  12
ATOM     12  C   UNL     1       4.534   4.272  17.141  0.00  0.00    +0.000 A 
ATOM     13  C   UNL     1       4.581   3.037  17.817  0.00  0.00    +0.000 A 
ATOM     14  C   UNL     1       3.678   2.710  18.833  0.00  0.00    +0.000 A 
ATOM     15  C   UNL     1       2.713   3.623  19.265  0.00  0.00    +0.000 A 
ATOM     16  C   UNL     1       2.641   4.846  18.580  0.00  0.00    +0.000 A 
ATOM     17  C   UNL     1       3.513   5.151  17.525  0.00  0.00    +0.000 A 
BRANCH  15  18
ATOM     18  C   UNL     1       1.850   3.335  20.481  0.00  0.00    +0.000 C 
ATOM     19  C   UNL     1       2.424   2.475  21.593  0.00  0.00    +0.000 C 
ATOM     20  C   UNL     1       2.247   3.945  21.816  0.00  0.00    +0.000 C 
BRANCH  18  21
ATOM     21  C   UNL     1       0.361   3.260  20.189  0.00  0.00    +0.000 C 
BRANCH  21  22
ATOM     22  O   UNL     1       0.104   2.377  19.102  0.00  0.00    +0.000 OA
ATOM     23  H   UNL     1       0.726   1.636  19.199  0.00  0.00    +0.000 HD
ENDBRANCH  21  22
ENDBRANCH  18  21
ENDBRANCH  15  18
ENDBRANCH  10  12
BRANCH   7  24
ATOM     24  C   UNL     1       5.305   2.638  11.659  0.00  0.00    +0.000 C 
ATOM     25  O   UNL     1       4.180   2.919  11.265  0.00  0.00    +0.000 OA
BRANCH  24  26
ATOM     26  O   UNL     1       5.811   1.391  11.506  0.00  0.00    +0.000 OA
ATOM     27  H   UNL     1       5.200   0.712  11.842  0.00  0.00    +0.000 HD
ENDBRANCH  24  26
ENDBRANCH   7  24
TORSDOF 6
ENDMDL
MODEL 3
REMARK VINA RESULT:      -7.6      5.357      6.832
REMARK  Name = 
REMARK  7 active torsions:
REMARK  status: ('A' for Active; 'I' for Inactive)
REMARK    1  A    between atoms: C_1  and  C_2
REMARK    2  A    between atoms: C_7  and  C_8
REMARK    3  A    between atoms: C_8  and  O_10
REMARK    4  A    between atoms: C_13  and  C_14
REMARK    5  A    between atoms: C_17  and  C_18
REMARK    6  A    between atoms: C_18  and  C_19
REMARK    7  A    between atoms: C_19  and  O_20
REMARK                            x       y       z     vdW  Elec       q    Type
REMARK                         _______ _______ _______ _____ _____    ______ ____
ROOT
ATOM      1  C   UNL     1       7.045   6.119  17.553  0.00  0.00    +0.000 C 
ATOM      2  C   UNL     1       6.664   5.463  16.247  0.00  0.00    +0.000 A 
ATOM      3  C   UNL     1       7.493   5.754  15.139  0.00  0.00    +0.000 A 
ATOM      4  C   UNL     1       7.254   5.111  13.919  0.00  0.00    +0.000 A 
ATOM      5  N   UNL     1       7.944   5.184  12.735  0.00  0.00    +0.000 N 
ATOM      6  C   UNL     1       7.399   4.325  11.823  0.00  0.00    +0.000 A 
ATOM      7  C   UNL     1       6.305   3.703  12.393  0.00  0.00    +0.000 A 
ATOM      8  C   UNL     1       6.210   4.211  13.736  0.00  0.00    +0.000 A 
ATOM      9  C   UNL     1       5.370   3.966  14.843  0.00  0.00    +0.000 A 
ATOM     10  C   UNL     1       5.570   4.575  16.111  0.00  0.00    +0.000 A 
ATOM     11  H   UNL     1       8.761   5.759  12.578  0.00  0.00    +0.000 HD
ENDROOT
BRANCH  10  12
ATOM     12  C   UNL     1       4.636   4.191  17.207  0.00  0.00    +0.000 A 
ATOM     13  C   UNL     1       3.490   4.968  17.471  0.00  0.00    +0.000 A 
ATOM     14  C   UNL     1       2.604   4.658  18.507  0.00  0.00    +0.000 A 
ATOM     15  C   UNL     1       2.787   3.523  19.300  0.00  0.00    +0.000 A 
ATOM     16  C   UNL     1       3.938   2.757  19.062  0.00  0.00    +0.000 A 
ATOM     17  C   UNL     1       4.855   3.100  18.057  0.00  0.00    +0.000 A 
BRANCH  15  18
ATOM     18  C   UNL     1       1.734   3.093  20.307  0.00  0.00    +0.000 C 
ATOM     19  C   UNL     1       2.184   2.373  21.567  0.00  0.00    +0.000 C 
ATOM     20  C   UNL     1       1.696   3.786  21.660  0.00  0.00    +0.000 C 
BRANCH  18  21
ATOM     21  C   UNL     1       0.391   2.731  19.695  0.00  0.00    +0.000 C 
BRANCH  21  22
ATOM     22  O   UNL     1       0.568   1.963  18.509  0.00  0.00    +0.000 OA
ATOM     23  H   UNL     1       0.282   2.530  17.771  0.00  0.00    +0.000 HD
ENDBRANCH  21  22
ENDBRANCH  18  21
ENDBRANCH  15  18
ENDBRANCH  10  12
BRANCH   7  24
ATOM     24  C   UNL     1       5.504   2.696  11.701  0.00  0.00    +0.000 C 
ATOM     25  O   UNL     1       4.359   2.896  11.313  0.00  0.00    +0.000 OA
BRANCH  24  26
ATOM     26  O   UNL     1       6.103   1.493  11.530  0.00  0.00    +0.000 OA
ATOM     27  H   UNL     1       5.825   1.069  10.699  0.00  0.00    +0.000 HD
ENDBRANCH  24  26
ENDBRANCH   7  24
TORSDOF 6
ENDMDL
MODEL 4
REMARK VINA RESULT:      -7.5      1.021      1.643
REMARK  Name = 
REMARK  7 active torsions:
REMARK  status: ('A' for Active; 'I' for Inactive)
REMARK    1  A    between atoms: C_1  and  C_2
REMARK    2  A    between atoms: C_7  and  C_8
REMARK    3  A    between atoms: C_8  and  O_10
REMARK    4  A    between atoms: C_13  and  C_14
REMARK    5  A    between atoms: C_17  and  C_18
REMARK    6  A    between atoms: C_18  and  C_19
REMARK    7  A    between atoms: C_19  and  O_20
REMARK                            x       y       z     vdW  Elec       q    Type
REMARK                         _______ _______ _______ _____ _____    ______ ____
ROOT
ATOM      1  C   UNL     1       1.335   4.820  17.799  0.00  0.00    +0.000 C 
ATOM      2  C   UNL     1       2.774   5.263  17.917  0.00  0.00    +0.000 A 
ATOM      3  C   UNL     1       3.752   4.299  17.574  0.00  0.00    +0.000 A 
ATOM      4  C   UNL     1       5.102   4.666  17.572  0.00  0.00    +0.000 A 
ATOM      5  N   UNL     1       6.213   3.938  17.227  0.00  0.00    +0.000 N 
ATOM      6  C   UNL     1       7.328   4.723  17.303  0.00  0.00    +0.000 A 
ATOM      7  C   UNL     1       6.962   5.979  17.746  0.00  0.00    +0.000 A 
ATOM      8  C   UNL     1       5.534   5.941  17.923  0.00  0.00    +0.000 A 
ATOM      9  C   UNL     1       4.546   6.874  18.301  0.00  0.00    +0.000 A 
ATOM     10  C   UNL     1       3.159   6.567  18.308  0.00  0.00    +0.000 A 
ATOM     11  H   UNL     1       6.198   2.974  16.921  0.00  0.00    +0.000 HD
ENDROOT
BRANCH  10  12
ATOM     12  C   UNL     1       2.219   7.661  18.684  0.00  0.00    +0.000 A 
ATOM     13  C   UNL     1       1.783   8.588  17.717  0.00  0.00    +0.000 A 
ATOM     14  C   UNL     1       0.923   9.644  18.034  0.00  0.00    +0.000 A 
ATOM     15  C   UNL     1       0.410   9.797  19.324  0.00  0.00    +0.000 A 
ATOM     16  C   UNL     1       0.859   8.894  20.300  0.00  0.00    +0.000 A 
ATOM     17  C   UNL     1       1.764   7.868  19.992  0.00  0.00    +0.000 A 
BRANCH  15  18
ATOM     18  C   UNL     1      -0.656  10.837  19.626  0.00  0.00    +0.000 C 
ATOM     19  C   UNL     1      -0.945  11.182  21.077  0.00  0.00    +0.000 C 
ATOM     20  C   UNL     1      -0.224  12.171  20.214  0.00  0.00    +0.000 C 
BRANCH  18  21
ATOM     21  C   UNL     1      -1.794  10.878  18.620  0.00  0.00    +0.000 C 
BRANCH  21  22
ATOM     22  O   UNL     1      -1.452  11.694  17.505  0.00  0.00    +0.000 OA
ATOM     23  H   UNL     1      -1.744  12.595  17.726  0.00  0.00    +0.000 HD
ENDBRANCH  21  22
ENDBRANCH  18  21
ENDBRANCH  15  18
ENDBRANCH  10  12
BRANCH   7  24
ATOM     24  C   UNL     1       7.910   7.079  17.914  0.00  0.00    +0.000 C 
ATOM     25  O   UNL     1       8.091   7.945  17.067  0.00  0.00    +0.000 OA
BRANCH  24  26
ATOM     26  O   UNL     1       8.610   7.071  19.073  0.00  0.00    +0.000 OA
ATOM     27  H   UNL     1       8.950   6.184  19.280  0.00  0.00    +0.000 HD
ENDBRANCH  24  26
ENDBRANCH   7  24
TORSDOF 6
ENDMDL
MODEL 5
REMARK VINA RESULT:      -7.5      0.999      1.353
REMARK  Name = 
REMARK  7 active torsions:
REMARK  status: ('A' for Active; 'I' for Inactive)
REMARK    1  A    between atoms: C_1  and  C_2
REMARK    2  A    between atoms: C_7  and  C_8
REMARK    3  A    between atoms: C_8  and  O_10
REMARK    4  A    between atoms: C_13  and  C_14
REMARK    5  A    between atoms: C_17  and  C_18
REMARK    6  A    between atoms: C_18  and  C_19
REMARK    7  A    between atoms: C_19  and  O_20
REMARK                            x       y       z     vdW  Elec       q    Type
REMARK                         _______ _______ _______ _____ _____    ______ ____
ROOT
ATOM      1  C   UNL     1       1.337   4.848  17.793  0.00  0.00    +0.000 C 
ATOM      2  C   UNL     1       2.776   5.288  17.915  0.00  0.00    +0.000 A 
ATOM      3  C   UNL     1       3.754   4.326  17.569  0.00  0.00    +0.000 A 
ATOM      4  C   UNL     1       5.104   4.692  17.570  0.00  0.00    +0.000 A 
ATOM      5  N   UNL     1       6.215   3.964  17.223  0.00  0.00    +0.000 N 
ATOM      6  C   UNL     1       7.331   4.747  17.305  0.00  0.00    +0.000 A 
ATOM      7  C   UNL     1       6.965   6.002  17.753  0.00  0.00    +0.000 A 
ATOM      8  C   UNL     1       5.537   5.964  17.928  0.00  0.00    +0.000 A 
ATOM      9  C   UNL     1       4.550   6.897  18.309  0.00  0.00    +0.000 A 
ATOM     10  C   UNL     1       3.162   6.591  18.312  0.00  0.00    +0.000 A 
ATOM     11  H   UNL     1       6.199   3.001  16.913  0.00  0.00    +0.000 HD
ENDROOT
BRANCH  10  12
ATOM     12  C   UNL     1       2.223   7.684  18.692  0.00  0.00    +0.000 A 
ATOM     13  C   UNL     1       1.742   7.784  20.013  0.00  0.00    +0.000 A 
ATOM     14  C   UNL     1       0.840   8.777  20.402  0.00  0.00    +0.000 A 
ATOM     15  C   UNL     1       0.412   9.759  19.505  0.00  0.00    +0.000 A 
ATOM     16  C   UNL     1       0.865   9.653  18.182  0.00  0.00    +0.000 A 
ATOM     17  C   UNL     1       1.728   8.624  17.779  0.00  0.00    +0.000 A 
BRANCH  15  18
ATOM     18  C   UNL     1      -0.429  10.935  19.972  0.00  0.00    +0.000 C 
ATOM     19  C   UNL     1      -0.702  11.089  21.459  0.00  0.00    +0.000 C 
ATOM     20  C   UNL     1       0.244  12.033  20.781  0.00  0.00    +0.000 C 
BRANCH  18  21
ATOM     21  C   UNL     1      -1.490  11.380  18.981  0.00  0.00    +0.000 C 
BRANCH  21  22
ATOM     22  O   UNL     1      -2.241  10.265  18.512  0.00  0.00    +0.000 OA
ATOM     23  H   UNL     1      -2.444  10.446  17.578  0.00  0.00    +0.000 HD
ENDBRANCH  21  22
ENDBRANCH  18  21
ENDBRANCH  15  18
ENDBRANCH  10  12
BRANCH   7  24
ATOM     24  C   UNL     1       7.914   7.100  17.926  0.00  0.00    +0.000 C 
ATOM     25  O   UNL     1       8.086   7.979  17.090  0.00  0.00    +0.000 OA
BRANCH  24  26
ATOM     26  O   UNL     1       8.626   7.076  19.078  0.00  0.00    +0.000 OA
ATOM     27  H   UNL     1       9.023   7.943  19.271  0.00  0.00    +0.000 HD
ENDBRANCH  24  26
ENDBRANCH   7  24
TORSDOF 6
ENDMDL
MODEL 6
REMARK VINA RESULT:      -7.4      1.615      2.143
REMARK  Name = 
REMARK  7 active torsions:
REMARK  status: ('A' for Active; 'I' for Inactive)
REMARK    1  A    between atoms: C_1  and  C_2
REMARK    2  A    between atoms: C_7  and  C_8
REMARK    3  A    between atoms: C_8  and  O_10
REMARK    4  A    between atoms: C_13  and  C_14
REMARK    5  A    between atoms: C_17  and  C_18
REMARK    6  A    between atoms: C_18  and  C_19
REMARK    7  A    between atoms: C_19  and  O_20
REMARK                            x       y       z     vdW  Elec       q    Type
REMARK                         _______ _______ _______ _____ _____    ______ ____
ROOT
ATOM      1  C   UNL     1       1.415   5.053  20.421  0.00  0.00    +0.000 C 
ATOM      2  C   UNL     1       2.706   5.385  19.711  0.00  0.00    +0.000 A 
ATOM      3  C   UNL     1       3.653   4.339  19.618  0.00  0.00    +0.000 A 
ATOM      4  C   UNL     1       4.833   4.547  18.895  0.00  0.00    +0.000 A 
ATOM      5  N   UNL     1       5.861   3.681  18.619  0.00  0.00    +0.000 N 
ATOM      6  C   UNL     1       6.780   4.289  17.812  0.00  0.00    +0.000 A 
ATOM      7  C   UNL     1       6.381   5.592  17.582  0.00  0.00    +0.000 A 
ATOM      8  C   UNL     1       5.134   5.758  18.281  0.00  0.00    +0.000 A 
ATOM      9  C   UNL     1       4.195   6.801  18.420  0.00  0.00    +0.000 A 
ATOM     10  C   UNL     1       2.972   6.647  19.127  0.00  0.00    +0.000 A 
ATOM     11  H   UNL     1       5.907   2.721  18.934  0.00  0.00    +0.000 HD
ENDROOT
BRANCH  10  12
ATOM     12  C   UNL     1       2.049   7.817  19.158  0.00  0.00    +0.000 A 
ATOM     13  C   UNL     1       1.756   8.524  17.974  0.00  0.00    +0.000 A 
ATOM     14  C   UNL     1       0.917   9.642  17.965  0.00  0.00    +0.000 A 
ATOM     15  C   UNL     1       0.281  10.080  19.128  0.00  0.00    +0.000 A 
ATOM     16  C   UNL     1       0.587   9.399  20.316  0.00  0.00    +0.000 A 
ATOM     17  C   UNL     1       1.471   8.310  20.334  0.00  0.00    +0.000 A 
BRANCH  15  18
ATOM     18  C   UNL     1      -0.762  11.183  19.084  0.00  0.00    +0.000 C 
ATOM     19  C   UNL     1      -1.323  11.707  20.396  0.00  0.00    +0.000 C 
ATOM     20  C   UNL     1      -0.384  12.562  19.601  0.00  0.00    +0.000 C 
BRANCH  18  21
ATOM     21  C   UNL     1      -1.665  11.144  17.863  0.00  0.00    +0.000 C 
BRANCH  21  22
ATOM     22  O   UNL     1      -2.930  10.578  18.190  0.00  0.00    +0.000 OA
ATOM     23  H   UNL     1      -2.945  10.483  19.158  0.00  0.00    +0.000 HD
ENDBRANCH  21  22
ENDBRANCH  18  21
ENDBRANCH  15  18
ENDBRANCH  10  12
BRANCH   7  24
ATOM     24  C   UNL     1       7.123   6.520  16.731  0.00  0.00    +0.000 C 
ATOM     25  O   UNL     1       7.292   7.700  17.010  0.00  0.00    +0.000 OA
BRANCH  24  26
ATOM     26  O   UNL     1       7.602   5.995  15.578  0.00  0.00    +0.000 OA
ATOM     27  H   UNL     1       6.901   5.896  14.911  0.00  0.00    +0.000 HD
ENDBRANCH  24  26
ENDBRANCH   7  24
TORSDOF 6
ENDMDL
MODEL 7
REMARK VINA RESULT:      -7.4      1.147      1.299
REMARK  Name = 
REMARK  7 active torsions:
REMARK  status: ('A' for Active; 'I' for Inactive)
REMARK    1  A    between atoms: C_1  and  C_2
REMARK    2  A    between atoms: C_7  and  C_8
REMARK    3  A    between atoms: C_8  and  O_10
REMARK    4  A    between atoms: C_13  and  C_14
REMARK    5  A    between atoms: C_17  and  C_18
REMARK    6  A    between atoms: C_18  and  C_19
REMARK    7  A    between atoms: C_19  and  O_20
REMARK                            x       y       z     vdW  Elec       q    Type
REMARK                         _______ _______ _______ _____ _____    ______ ____
ROOT
ATOM      1  C   UNL     1       1.376   5.026  20.408  0.00  0.00    +0.000 C 
ATOM      2  C   UNL     1       2.673   5.357  19.710  0.00  0.00    +0.000 A 
ATOM      3  C   UNL     1       3.587   4.289  19.555  0.00  0.00    +0.000 A 
ATOM      4  C   UNL     1       4.770   4.501  18.838  0.00  0.00    +0.000 A 
ATOM      5  N   UNL     1       5.771   3.621  18.509  0.00  0.00    +0.000 N 
ATOM      6  C   UNL     1       6.705   4.244  17.731  0.00  0.00    +0.000 A 
ATOM      7  C   UNL     1       6.344   5.569  17.575  0.00  0.00    +0.000 A 
ATOM      8  C   UNL     1       5.106   5.734  18.288  0.00  0.00    +0.000 A 
ATOM      9  C   UNL     1       4.199   6.796  18.490  0.00  0.00    +0.000 A 
ATOM     10  C   UNL     1       2.975   6.641  19.194  0.00  0.00    +0.000 A 
ATOM     11  H   UNL     1       5.789   2.644  18.771  0.00  0.00    +0.000 HD
ENDROOT
BRANCH  10  12
ATOM     12  C   UNL     1       2.088   7.834  19.293  0.00  0.00    +0.000 A 
ATOM     13  C   UNL     1       1.487   8.175  20.522  0.00  0.00    +0.000 A 
ATOM     14  C   UNL     1       0.628   9.270  20.650  0.00  0.00    +0.000 A 
ATOM     15  C   UNL     1       0.367  10.116  19.570  0.00  0.00    +0.000 A 
ATOM     16  C   UNL     1       0.940   9.770  18.337  0.00  0.00    +0.000 A 
ATOM     17  C   UNL     1       1.759   8.640  18.197  0.00  0.00    +0.000 A 
BRANCH  15  18
ATOM     18  C   UNL     1      -0.425  11.399  19.753  0.00  0.00    +0.000 C 
ATOM     19  C   UNL     1      -0.735  12.244  18.528  0.00  0.00    +0.000 C 
ATOM     20  C   UNL     1      -1.835  11.470  19.188  0.00  0.00    +0.000 C 
BRANCH  18  21
ATOM     21  C   UNL     1      -0.195  12.094  21.084  0.00  0.00    +0.000 C 
BRANCH  21  22
ATOM     22  O   UNL     1       1.151  12.547  21.190  0.00  0.00    +0.000 OA
ATOM     23  H   UNL     1       1.307  13.123  20.422  0.00  0.00    +0.000 HD
ENDBRANCH  21  22
ENDBRANCH  18  21
ENDBRANCH  15  18
ENDBRANCH  10  12
BRANCH   7  24
ATOM     24  C   UNL     1       7.110   6.519  16.772  0.00  0.00    +0.000 C 
ATOM     25  O   UNL     1       7.271   7.692  17.087  0.00  0.00    +0.000 OA
BRANCH  24  26
ATOM     26  O   UNL     1       7.624   6.025  15.620  0.00  0.00    +0.000 OA
ATOM     27  H   UNL     1       8.444   5.527  15.778  0.00  0.00    +0.000 HD
ENDBRANCH  24  26
ENDBRANCH   7  24
TORSDOF 6
ENDMDL
MODEL 8
REMARK VINA RESULT:      -7.4      3.027      3.844
REMARK  Name = 
REMARK  7 active torsions:
REMARK  status: ('A' for Active; 'I' for Inactive)
REMARK    1  A    between atoms: C_1  and  C_2
REMARK    2  A    between atoms: C_7  and  C_8
REMARK    3  A    between atoms: C_8  and  O_10
REMARK    4  A    between atoms: C_13  and  C_14
REMARK    5  A    between atoms: C_17  and  C_18
REMARK    6  A    between atoms: C_18  and  C_19
REMARK    7  A    between atoms: C_19  and  O_20
REMARK                            x       y       z     vdW  Elec       q    Type
REMARK                         _______ _______ _______ _____ _____    ______ ____
ROOT
ATOM      1  C   UNL     1       4.517   7.416  16.840  0.00  0.00    +0.000 C 
ATOM      2  C   UNL     1       3.942   6.337  17.726  0.00  0.00    +0.000 A 
ATOM      3  C   UNL     1       4.539   5.059  17.620  0.00  0.00    +0.000 A 
ATOM      4  C   UNL     1       4.118   4.035  18.475  0.00  0.00    +0.000 A 
ATOM      5  N   UNL     1       4.576   2.747  18.600  0.00  0.00    +0.000 N 
ATOM      6  C   UNL     1       3.923   2.115  19.620  0.00  0.00    +0.000 A 
ATOM      7  C   UNL     1       2.986   2.980  20.154  0.00  0.00    +0.000 A 
ATOM      8  C   UNL     1       3.108   4.209  19.416  0.00  0.00    +0.000 A 
ATOM      9  C   UNL     1       2.498   5.479  19.478  0.00  0.00    +0.000 A 
ATOM     10  C   UNL     1       2.892   6.563  18.648  0.00  0.00    +0.000 A 
ATOM     11  H   UNL     1       5.318   2.343  18.044  0.00  0.00    +0.000 HD
ENDROOT
BRANCH  10  12
ATOM     12  C   UNL     1       2.195   7.866  18.850  0.00  0.00    +0.000 A 
ATOM     13  C   UNL     1       1.709   8.223  20.123  0.00  0.00    +0.000 A 
ATOM     14  C   UNL     1       1.027   9.422  20.349  0.00  0.00    +0.000 A 
ATOM     15  C   UNL     1       0.843  10.354  19.324  0.00  0.00    +0.000 A 
ATOM     16  C   UNL     1       1.300   9.996  18.047  0.00  0.00    +0.000 A 
ATOM     17  C   UNL     1       1.937   8.769  17.811  0.00  0.00    +0.000 A 
BRANCH  15  18
ATOM     18  C   UNL     1       0.258  11.727  19.609  0.00  0.00    +0.000 C 
ATOM     19  C   UNL     1      -0.356  12.508  18.459  0.00  0.00    +0.000 C 
ATOM     20  C   UNL     1      -1.248  11.911  19.504  0.00  0.00    +0.000 C 
BRANCH  18  21
ATOM     21  C   UNL     1       0.956  12.487  20.723  0.00  0.00    +0.000 C 
BRANCH  21  22
ATOM     22  O   UNL     1       2.118  13.146  20.233  0.00  0.00    +0.000 OA
ATOM     23  H   UNL     1       2.837  12.490  20.262  0.00  0.00    +0.000 HD
ENDBRANCH  21  22
ENDBRANCH  18  21
ENDBRANCH  15  18
ENDBRANCH  10  12
BRANCH   7  24
ATOM     24  C   UNL     1       2.129   2.633  21.286  0.00  0.00    +0.000 C 
ATOM     25  O   UNL     1       2.557   2.191  22.344  0.00  0.00    +0.000 OA
BRANCH  24  26
ATOM     26  O   UNL     1       0.801   2.810  21.084  0.00  0.00    +0.000 OA
ATOM     27  H   UNL     1       0.535   3.733  21.239  0.00  0.00    +0.000 HD
ENDBRANCH  24  26
ENDBRANCH   7  24
TORSDOF 6
ENDMDL
MODEL 9
REMARK VINA RESULT:      -7.4      3.144      4.031
REMARK  Name = 
REMARK  7 active torsions:
REMARK  status: ('A' for Active; 'I' for Inactive)
REMARK    1  A    between atoms: C_1  and  C_2
REMARK    2  A    between atoms: C_7  and  C_8
REMARK    3  A    between atoms: C_8  and  O_10
REMARK    4  A    between atoms: C_13  and  C_14
REMARK    5  A    between atoms: C_17  and  C_18
REMARK    6  A    between atoms: C_18  and  C_19
REMARK    7  A    between atoms: C_19  and  O_20
REMARK                            x       y       z     vdW  Elec       q    Type
REMARK                         _______ _______ _______ _____ _____    ______ ____
ROOT
ATOM      1  C   UNL     1       4.531   7.468  16.855  0.00  0.00    +0.000 C 
ATOM      2  C   UNL     1       3.939   6.391  17.732  0.00  0.00    +0.000 A 
ATOM      3  C   UNL     1       4.562   5.122  17.667  0.00  0.00    +0.000 A 
ATOM      4  C   UNL     1       4.125   4.102  18.518  0.00  0.00    +0.000 A 
ATOM      5  N   UNL     1       4.600   2.824  18.679  0.00  0.00    +0.000 N 
ATOM      6  C   UNL     1       3.916   2.194  19.680  0.00  0.00    +0.000 A 
ATOM      7  C   UNL     1       2.944   3.048  20.163  0.00  0.00    +0.000 A 
ATOM      8  C   UNL     1       3.075   4.269  19.415  0.00  0.00    +0.000 A 
ATOM      9  C   UNL     1       2.440   5.529  19.434  0.00  0.00    +0.000 A 
ATOM     10  C   UNL     1       2.848   6.610  18.607  0.00  0.00    +0.000 A 
ATOM     11  H   UNL     1       5.371   2.426  18.159  0.00  0.00    +0.000 HD
ENDROOT
BRANCH  10  12
ATOM     12  C   UNL     1       2.121   7.901  18.763  0.00  0.00    +0.000 A 
ATOM     13  C   UNL     1       1.667   8.315  20.031  0.00  0.00    +0.000 A 
ATOM     14  C   UNL     1       0.958   9.505  20.215  0.00  0.00    +0.000 A 
ATOM     15  C   UNL     1       0.713  10.374  19.149  0.00  0.00    +0.000 A 
ATOM     16  C   UNL     1       1.139   9.959  17.878  0.00  0.00    +0.000 A 
ATOM     17  C   UNL     1       1.802   8.739  17.686  0.00  0.00    +0.000 A 
BRANCH  15  18
ATOM     18  C   UNL     1       0.098  11.744  19.380  0.00  0.00    +0.000 C 
ATOM     19  C   UNL     1       0.404  12.469  20.679  0.00  0.00    +0.000 C 
ATOM     20  C   UNL     1       1.015  12.957  19.402  0.00  0.00    +0.000 C 
BRANCH  18  21
ATOM     21  C   UNL     1      -1.263  11.937  18.733  0.00  0.00    +0.000 C 
BRANCH  21  22
ATOM     22  O   UNL     1      -1.139  12.627  17.494  0.00  0.00    +0.000 OA
ATOM     23  H   UNL     1      -1.699  12.148  16.858  0.00  0.00    +0.000 HD
ENDBRANCH  21  22
ENDBRANCH  18  21
ENDBRANCH  15  18
ENDBRANCH  10  12
BRANCH   7  24
ATOM     24  C   UNL     1       2.047   2.700  21.264  0.00  0.00    +0.000 C 
ATOM     25  O   UNL     1       2.437   2.251  22.334  0.00  0.00    +0.000 OA
BRANCH  24  26
ATOM     26  O   UNL     1       0.727   2.884  21.018  0.00  0.00    +0.000 OA
ATOM     27  H   UNL     1       0.411   3.731  21.378  0.00  0.00    +0.000 HD
ENDBRANCH  24  26
ENDBRANCH   7  24
TORSDOF 6
ENDMDL
