MODEL 1
REMARK VINA RESULT:      -8.9      0.000      0.000
REMARK  Name = 
REMARK  8 active torsions:
REMARK  status: ('A' for Active; 'I' for Inactive)
REMARK    1  A    between atoms: C_1  and  O_2
REMARK    2  A    between atoms: O_2  and  C_3
REMARK    3  A    between atoms: C_8  and  C_9
REMARK    4  A    between atoms: C_11  and  N_12
REMARK    5  A    between atoms: N_12  and  C_13
REMARK    6  A    between atoms: C_17  and  N_18
REMARK    7  A    between atoms: C_24  and  C_25
REMARK    8  A    between atoms: C_25  and  C_26
REMARK                            x       y       z     vdW  Elec       q    Type
REMARK                         _______ _______ _______ _____ _____    ______ ____
ROOT
ATOM      1  C   UNL     1       1.432   8.144  20.864  0.00  0.00    +0.000 A 
ATOM      2  C   UNL     1       0.854   8.676  22.031  0.00  0.00    +0.000 A 
ATOM      3  C   UNL     1       0.262   9.944  22.026  0.00  0.00    +0.000 A 
ATOM      4  C   UNL     1       0.194  10.671  20.832  0.00  0.00    +0.000 A 
ATOM      5  C   UNL     1      -0.175  12.108  20.741  0.00  0.00    +0.000 A 
ATOM      6  C   UNL     1       0.134  12.669  19.549  0.00  0.00    +0.000 A 
ATOM      7  C   UNL     1      -0.454  11.802  18.481  0.00  0.00    +0.000 A 
ATOM      8  O   UNL     1      -1.272  12.204  17.671  0.00  0.00    +0.000 OA
ATOM      9  O   UNL     1       0.192  10.561  18.404  0.00  0.00    +0.000 OA
ATOM     10  C   UNL     1       0.553  10.020  19.646  0.00  0.00    +0.000 A 
ATOM     11  C   UNL     1       1.214   8.807  19.654  0.00  0.00    +0.000 A 
ENDROOT
BRANCH   5  12
ATOM     12  N   UNL     1      -1.290  12.515  21.473  0.00  0.00    +0.000 N 
ATOM     13  C   UNL     1      -1.353  12.524  22.950  0.00  0.00    +0.000 C 
ATOM     14  C   UNL     1      -2.703  11.948  23.402  0.00  0.00    +0.000 C 
ATOM     15  O   UNL     1      -3.805  12.668  22.824  0.00  0.00    +0.000 OA
ATOM     16  C   UNL     1      -3.749  12.602  21.388  0.00  0.00    +0.000 C 
ATOM     17  C   UNL     1      -2.439  13.200  20.852  0.00  0.00    +0.000 C 
ENDBRANCH   5  12
BRANCH   6  18
ATOM     18  C   UNL     1       1.575  12.971  19.188  0.00  0.00    +0.000 C 
ATOM     19  C   UNL     1       2.470  13.393  20.338  0.00  0.00    +0.000 C 
ATOM     20  O   UNL     1       1.993  12.903  18.040  0.00  0.00    +0.000 OA
ENDBRANCH   6  18
BRANCH   1  21
ATOM     21  N   UNL     1       2.183   6.956  20.911  0.00  0.00    +0.000 N 
ATOM     22  H   UNL     1       3.060   7.024  21.416  0.00  0.00    +0.000 HD
BRANCH  21  25
ATOM     23  C   UNL     1       3.644   4.991  18.155  0.00  0.00    +0.000 A 
ATOM     24  C   UNL     1       3.513   5.980  19.115  0.00  0.00    +0.000 A 
ATOM     25  C   UNL     1       2.354   6.017  19.871  0.00  0.00    +0.000 A 
ATOM     26  N   UNL     1       1.381   5.110  19.705  0.00  0.00    +0.000 NA
ATOM     27  C   UNL     1       1.558   4.228  18.716  0.00  0.00    +0.000 A 
ATOM     28  N   UNL     1       2.638   4.120  17.928  0.00  0.00    +0.000 NA
BRANCH  23  34
ATOM     29  C   UNL     1       6.175   4.791  17.777  0.00  0.00    +0.000 A 
ATOM     30  C   UNL     1       7.260   4.652  16.889  0.00  0.00    +0.000 A 
ATOM     31  C   UNL     1       7.052   4.599  15.517  0.00  0.00    +0.000 A 
ATOM     32  C   UNL     1       5.760   4.650  15.013  0.00  0.00    +0.000 A 
ATOM     33  C   UNL     1       4.677   4.761  15.889  0.00  0.00    +0.000 A 
ATOM     34  C   UNL     1       4.848   4.843  17.291  0.00  0.00    +0.000 A 
BRANCH  29  36
ATOM     35  C   UNL     1       7.467   5.606  19.580  0.00  0.00    +0.000 C 
ATOM     36  O   UNL     1       6.382   4.788  19.137  0.00  0.00    +0.000 OA
ENDBRANCH  29  36
ENDBRANCH  23  34
ENDBRANCH  21  25
ENDBRANCH   1  21
TORSDOF 6
ENDMDL
MODEL 2
REMARK VINA RESULT:      -8.8      2.441      9.713
REMARK  Name = 
REMARK  8 active torsions:
REMARK  status: ('A' for Active; 'I' for Inactive)
REMARK    1  A    between atoms: C_1  and  O_2
REMARK    2  A    between atoms: O_2  and  C_3
REMARK    3  A    between atoms: C_8  and  C_9
REMARK    4  A    between atoms: C_11  and  N_12
REMARK    5  A    between atoms: N_12  and  C_13
REMARK    6  A    between atoms: C_17  and  N_18
REMARK    7  A    between atoms: C_24  and  C_25
REMARK    8  A    between atoms: C_25  and  C_26
REMARK                            x       y       z     vdW  Elec       q    Type
REMARK                         _______ _______ _______ _____ _____    ______ ____
ROOT
ATOM      1  C   UNL     1       1.743   8.404  17.665  0.00  0.00    +0.000 A 
ATOM      2  C   UNL     1       3.146   8.487  17.700  0.00  0.00    +0.000 A 
ATOM      3  C   UNL     1       3.925   7.358  17.980  0.00  0.00    +0.000 A 
ATOM      4  C   UNL     1       3.304   6.119  18.175  0.00  0.00    +0.000 A 
ATOM      5  C   UNL     1       3.981   4.913  18.719  0.00  0.00    +0.000 A 
ATOM      6  C   UNL     1       3.123   3.945  19.114  0.00  0.00    +0.000 A 
ATOM      7  C   UNL     1       2.192   3.680  17.974  0.00  0.00    +0.000 A 
ATOM      8  O   UNL     1       2.085   2.588  17.440  0.00  0.00    +0.000 OA
ATOM      9  O   UNL     1       1.334   4.763  17.739  0.00  0.00    +0.000 OA
ATOM     10  C   UNL     1       1.936   6.021  17.894  0.00  0.00    +0.000 A 
ATOM     11  C   UNL     1       1.151   7.140  17.701  0.00  0.00    +0.000 A 
ENDROOT
BRANCH   5  12
ATOM     12  N   UNL     1       5.234   4.607  18.188  0.00  0.00    +0.000 N 
ATOM     13  C   UNL     1       6.507   4.769  18.922  0.00  0.00    +0.000 C 
ATOM     14  C   UNL     1       7.548   5.410  17.993  0.00  0.00    +0.000 C 
ATOM     15  O   UNL     1       7.729   4.640  16.791  0.00  0.00    +0.000 OA
ATOM     16  C   UNL     1       6.488   4.539  16.070  0.00  0.00    +0.000 C 
ATOM     17  C   UNL     1       5.399   3.868  16.922  0.00  0.00    +0.000 C 
ENDBRANCH   5  12
BRANCH   6  18
ATOM     18  C   UNL     1       2.303   4.109  20.379  0.00  0.00    +0.000 C 
ATOM     19  C   UNL     1       1.299   3.006  20.663  0.00  0.00    +0.000 C 
ATOM     20  O   UNL     1       2.421   5.077  21.117  0.00  0.00    +0.000 OA
ENDBRANCH   6  18
BRANCH   1  21
ATOM     21  N   UNL     1       0.957   9.566  17.564  0.00  0.00    +0.000 N 
ATOM     22  H   UNL     1       0.915   9.975  16.637  0.00  0.00    +0.000 HD
BRANCH  21  25
ATOM     23  C   UNL     1      -0.223  11.758  20.284  0.00  0.00    +0.000 A 
ATOM     24  C   UNL     1      -0.229  10.747  19.338  0.00  0.00    +0.000 A 
ATOM     25  C   UNL     1       0.868  10.616  18.505  0.00  0.00    +0.000 A 
ATOM     26  N   UNL     1       1.930  11.427  18.613  0.00  0.00    +0.000 NA
ATOM     27  C   UNL     1       1.830  12.415  19.508  0.00  0.00    +0.000 A 
ATOM     28  N   UNL     1       0.808  12.627  20.350  0.00  0.00    +0.000 NA
BRANCH  23  34
ATOM     29  C   UNL     1      -1.337  11.556  22.587  0.00  0.00    +0.000 A 
ATOM     30  C   UNL     1      -2.437  11.814  23.428  0.00  0.00    +0.000 A 
ATOM     31  C   UNL     1      -3.562  12.470  22.944  0.00  0.00    +0.000 A 
ATOM     32  C   UNL     1      -3.592  12.905  21.627  0.00  0.00    +0.000 A 
ATOM     33  C   UNL     1      -2.493  12.675  20.794  0.00  0.00    +0.000 A 
ATOM     34  C   UNL     1      -1.340  11.990  21.242  0.00  0.00    +0.000 A 
BRANCH  29  36
ATOM     35  C   UNL     1      -0.254   9.528  23.138  0.00  0.00    +0.000 C 
ATOM     36  O   UNL     1      -0.204  10.955  23.087  0.00  0.00    +0.000 OA
ENDBRANCH  29  36
ENDBRANCH  23  34
ENDBRANCH  21  25
ENDBRANCH   1  21
TORSDOF 6
ENDMDL
MODEL 3
REMARK VINA RESULT:      -8.8      0.746      1.117
REMARK  Name = 
REMARK  8 active torsions:
REMARK  status: ('A' for Active; 'I' for Inactive)
REMARK    1  A    between atoms: C_1  and  O_2
REMARK    2  A    between atoms: O_2  and  C_3
REMARK    3  A    between atoms: C_8  and  C_9
REMARK    4  A    between atoms: C_11  and  N_12
REMARK    5  A    between atoms: N_12  and  C_13
REMARK    6  A    between atoms: C_17  and  N_18
REMARK    7  A    between atoms: C_24  and  C_25
REMARK    8  A    between atoms: C_25  and  C_26
REMARK                            x       y       z     vdW  Elec       q    Type
REMARK                         _______ _______ _______ _____ _____    ______ ____
ROOT
ATOM      1  C   UNL     1       1.403   7.992  20.782  0.00  0.00    +0.000 A 
ATOM      2  C   UNL     1       0.526   8.279  21.843  0.00  0.00    +0.000 A 
ATOM      3  C   UNL     1      -0.119   9.518  21.927  0.00  0.00    +0.000 A 
ATOM      4  C   UNL     1       0.067  10.465  20.914  0.00  0.00    +0.000 A 
ATOM      5  C   UNL     1      -0.350  11.889  21.004  0.00  0.00    +0.000 A 
ATOM      6  C   UNL     1       0.210  12.677  20.057  0.00  0.00    +0.000 A 
ATOM      7  C   UNL     1      -0.045  12.032  18.732  0.00  0.00    +0.000 A 
ATOM      8  O   UNL     1      -0.660  12.579  17.832  0.00  0.00    +0.000 OA
ATOM      9  O   UNL     1       0.671  10.836  18.588  0.00  0.00    +0.000 OA
ATOM     10  C   UNL     1       0.745  10.063  19.757  0.00  0.00    +0.000 A 
ATOM     11  C   UNL     1       1.452   8.879  19.703  0.00  0.00    +0.000 A 
ENDROOT
BRANCH   5  12
ATOM     12  N   UNL     1      -1.633  12.134  21.493  0.00  0.00    +0.000 N 
ATOM     13  C   UNL     1      -2.827  12.307  20.637  0.00  0.00    +0.000 C 
ATOM     14  C   UNL     1      -3.652  13.495  21.154  0.00  0.00    +0.000 C 
ATOM     15  O   UNL     1      -4.015  13.325  22.535  0.00  0.00    +0.000 OA
ATOM     16  C   UNL     1      -2.837  13.210  23.352  0.00  0.00    +0.000 C 
ATOM     17  C   UNL     1      -1.973  12.013  22.923  0.00  0.00    +0.000 C 
ENDBRANCH   5  12
BRANCH   6  18
ATOM     18  C   UNL     1       1.675  13.056  20.136  0.00  0.00    +0.000 C 
ATOM     19  C   UNL     1       2.303  13.543  18.843  0.00  0.00    +0.000 C 
ATOM     20  O   UNL     1       2.325  12.957  21.168  0.00  0.00    +0.000 OA
ENDBRANCH   6  18
BRANCH   1  21
ATOM     21  N   UNL     1       2.187   6.825  20.793  0.00  0.00    +0.000 N 
ATOM     22  H   UNL     1       3.065   6.904  21.293  0.00  0.00    +0.000 HD
BRANCH  21  25
ATOM     23  C   UNL     1       3.694   4.948  18.000  0.00  0.00    +0.000 A 
ATOM     24  C   UNL     1       3.546   5.907  18.987  0.00  0.00    +0.000 A 
ATOM     25  C   UNL     1       2.376   5.918  19.727  0.00  0.00    +0.000 A 
ATOM     26  N   UNL     1       1.408   5.014  19.519  0.00  0.00    +0.000 NA
ATOM     27  C   UNL     1       1.602   4.163  18.507  0.00  0.00    +0.000 A 
ATOM     28  N   UNL     1       2.694   4.081  17.732  0.00  0.00    +0.000 NA
BRANCH  23  34
ATOM     29  C   UNL     1       6.233   4.822  17.648  0.00  0.00    +0.000 A 
ATOM     30  C   UNL     1       7.331   4.710  16.773  0.00  0.00    +0.000 A 
ATOM     31  C   UNL     1       7.139   4.639  15.399  0.00  0.00    +0.000 A 
ATOM     32  C   UNL     1       5.851   4.646  14.882  0.00  0.00    +0.000 A 
ATOM     33  C   UNL     1       4.756   4.731  15.746  0.00  0.00    +0.000 A 
ATOM     34  C   UNL     1       4.910   4.830  17.149  0.00  0.00    +0.000 A 
BRANCH  29  36
ATOM     35  C   UNL     1       7.569   5.577  19.446  0.00  0.00    +0.000 C 
ATOM     36  O   UNL     1       6.427   4.837  19.010  0.00  0.00    +0.000 OA
ENDBRANCH  29  36
ENDBRANCH  23  34
ENDBRANCH  21  25
ENDBRANCH   1  21
TORSDOF 6
ENDMDL
MODEL 4
REMARK VINA RESULT:      -8.5      2.691      9.682
REMARK  Name = 
REMARK  8 active torsions:
REMARK  status: ('A' for Active; 'I' for Inactive)
REMARK    1  A    between atoms: C_1  and  O_2
REMARK    2  A    between atoms: O_2  and  C_3
REMARK    3  A    between atoms: C_8  and  C_9
REMARK    4  A    between atoms: C_11  and  N_12
REMARK    5  A    between atoms: N_12  and  C_13
REMARK    6  A    between atoms: C_17  and  N_18
REMARK    7  A    between atoms: C_24  and  C_25
REMARK    8  A    between atoms: C_25  and  C_26
REMARK                            x       y       z     vdW  Elec       q    Type
REMARK                         _______ _______ _______ _____ _____    ______ ____
ROOT
ATOM      1  C   UNL     1       2.487   8.218  17.748  0.00  0.00    +0.000 A 
ATOM      2  C   UNL     1       1.672   7.087  17.932  0.00  0.00    +0.000 A 
ATOM      3  C   UNL     1       2.217   5.798  17.909  0.00  0.00    +0.000 A 
ATOM      4  C   UNL     1       3.598   5.632  17.757  0.00  0.00    +0.000 A 
ATOM      5  C   UNL     1       4.265   4.335  17.468  0.00  0.00    +0.000 A 
ATOM      6  C   UNL     1       5.545   4.469  17.050  0.00  0.00    +0.000 A 
ATOM      7  C   UNL     1       6.253   5.329  18.048  0.00  0.00    +0.000 A 
ATOM      8  O   UNL     1       7.230   4.956  18.676  0.00  0.00    +0.000 OA
ATOM      9  O   UNL     1       5.790   6.651  18.017  0.00  0.00    +0.000 OA
ATOM     10  C   UNL     1       4.406   6.774  17.822  0.00  0.00    +0.000 A 
ATOM     11  C   UNL     1       3.873   8.046  17.759  0.00  0.00    +0.000 A 
ENDROOT
BRANCH   5  12
ATOM     12  N   UNL     1       3.854   3.239  18.226  0.00  0.00    +0.000 N 
ATOM     13  C   UNL     1       2.970   2.167  17.720  0.00  0.00    +0.000 C 
ATOM     14  C   UNL     1       1.913   1.839  18.785  0.00  0.00    +0.000 C 
ATOM     15  O   UNL     1       2.520   1.472  20.036  0.00  0.00    +0.000 OA
ATOM     16  C   UNL     1       3.335   2.550  20.532  0.00  0.00    +0.000 C 
ATOM     17  C   UNL     1       4.447   2.914  19.536  0.00  0.00    +0.000 C 
ENDBRANCH   5  12
BRANCH   6  18
ATOM     18  C   UNL     1       5.853   4.987  15.660  0.00  0.00    +0.000 C 
ATOM     19  C   UNL     1       5.003   4.417  14.538  0.00  0.00    +0.000 C 
ATOM     20  O   UNL     1       6.744   5.796  15.442  0.00  0.00    +0.000 OA
ENDBRANCH   6  18
BRANCH   1  21
ATOM     21  N   UNL     1       1.919   9.495  17.589  0.00  0.00    +0.000 N 
ATOM     22  H   UNL     1       2.577  10.228  17.347  0.00  0.00    +0.000 HD
BRANCH  21  25
ATOM     23  C   UNL     1      -1.328  10.867  18.670  0.00  0.00    +0.000 A 
ATOM     24  C   UNL     1      -0.346  10.365  17.833  0.00  0.00    +0.000 A 
ATOM     25  C   UNL     1       0.895  10.072  18.371  0.00  0.00    +0.000 A 
ATOM     26  N   UNL     1       1.150  10.243  19.676  0.00  0.00    +0.000 NA
ATOM     27  C   UNL     1       0.170  10.790  20.402  0.00  0.00    +0.000 A 
ATOM     28  N   UNL     1      -1.057  11.114  19.970  0.00  0.00    +0.000 NA
BRANCH  23  34
ATOM     29  C   UNL     1      -3.186  10.965  16.903  0.00  0.00    +0.000 A 
ATOM     30  C   UNL     1      -4.501  11.322  16.547  0.00  0.00    +0.000 A 
ATOM     31  C   UNL     1      -5.338  11.951  17.459  0.00  0.00    +0.000 A 
ATOM     32  C   UNL     1      -4.888  12.203  18.747  0.00  0.00    +0.000 A 
ATOM     33  C   UNL     1      -3.593  11.828  19.116  0.00  0.00    +0.000 A 
ATOM     34  C   UNL     1      -2.702  11.208  18.209  0.00  0.00    +0.000 A 
BRANCH  29  36
ATOM     35  C   UNL     1      -2.943  10.115  14.711  0.00  0.00    +0.000 C 
ATOM     36  O   UNL     1      -2.380  10.294  16.012  0.00  0.00    +0.000 OA
ENDBRANCH  29  36
ENDBRANCH  23  34
ENDBRANCH  21  25
ENDBRANCH   1  21
TORSDOF 6
ENDMDL
MODEL 5
REMARK VINA RESULT:      -8.4      2.279      3.452
REMARK  Name = 
REMARK  8 active torsions:
REMARK  status: ('A' for Active; 'I' for Inactive)
REMARK    1  A    between atoms: C_1  and  O_2
REMARK    2  A    between atoms: O_2  and  C_3
REMARK    3  A    between atoms: C_8  and  C_9
REMARK    4  A    between atoms: C_11  and  N_12
REMARK    5  A    between atoms: N_12  and  C_13
REMARK    6  A    between atoms: C_17  and  N_18
REMARK    7  A    between atoms: C_24  and  C_25
REMARK    8  A    between atoms: C_25  and  C_26
REMARK                            x       y       z     vdW  Elec       q    Type
REMARK                         _______ _______ _______ _____ _____    ______ ____
ROOT
ATOM      1  C   UNL     1       0.584  10.504  18.329  0.00  0.00    +0.000 A 
ATOM      2  C   UNL     1      -0.725  10.014  18.168  0.00  0.00    +0.000 A 
ATOM      3  C   UNL     1      -1.799  10.599  18.847  0.00  0.00    +0.000 A 
ATOM      4  C   UNL     1      -1.581  11.720  19.655  0.00  0.00    +0.000 A 
ATOM      5  C   UNL     1      -2.572  12.275  20.613  0.00  0.00    +0.000 A 
ATOM      6  C   UNL     1      -2.036  13.145  21.500  0.00  0.00    +0.000 A 
ATOM      7  C   UNL     1      -1.278  14.171  20.718  0.00  0.00    +0.000 A 
ATOM      8  O   UNL     1      -1.532  15.363  20.760  0.00  0.00    +0.000 OA
ATOM      9  O   UNL     1      -0.140  13.625  20.109  0.00  0.00    +0.000 OA
ATOM     10  C   UNL     1      -0.321  12.329  19.603  0.00  0.00    +0.000 A 
ATOM     11  C   UNL     1       0.760  11.713  19.005  0.00  0.00    +0.000 A 
ENDROOT
BRANCH   5  12
ATOM     12  N   UNL     1      -3.879  12.418  20.148  0.00  0.00    +0.000 N 
ATOM     13  C   UNL     1      -4.975  13.030  20.930  0.00  0.00    +0.000 C 
ATOM     14  C   UNL     1      -6.241  12.175  20.781  0.00  0.00    +0.000 C 
ATOM     15  O   UNL     1      -6.609  12.011  19.400  0.00  0.00    +0.000 OA
ATOM     16  C   UNL     1      -5.547  11.369  18.672  0.00  0.00    +0.000 C 
ATOM     17  C   UNL     1      -4.248  12.188  18.739  0.00  0.00    +0.000 C 
ENDBRANCH   5  12
BRANCH   6  18
ATOM     18  C   UNL     1      -1.155  12.651  22.630  0.00  0.00    +0.000 C 
ATOM     19  C   UNL     1      -1.378  11.214  23.063  0.00  0.00    +0.000 C 
ATOM     20  O   UNL     1      -0.328  13.366  23.180  0.00  0.00    +0.000 OA
ENDBRANCH   6  18
BRANCH   1  21
ATOM     21  N   UNL     1       1.682   9.809  17.794  0.00  0.00    +0.000 N 
ATOM     22  H   UNL     1       1.753   9.835  16.782  0.00  0.00    +0.000 HD
BRANCH  21  25
ATOM     23  C   UNL     1       3.644   6.693  17.999  0.00  0.00    +0.000 A 
ATOM     24  C   UNL     1       3.126   7.868  17.480  0.00  0.00    +0.000 A 
ATOM     25  C   UNL     1       2.200   8.571  18.232  0.00  0.00    +0.000 A 
ATOM     26  N   UNL     1       1.820   8.149  19.447  0.00  0.00    +0.000 NA
ATOM     27  C   UNL     1       2.320   6.975  19.847  0.00  0.00    +0.000 A 
ATOM     28  N   UNL     1       3.211   6.221  19.187  0.00  0.00    +0.000 NA
BRANCH  23  34
ATOM     29  C   UNL     1       4.429   4.529  16.866  0.00  0.00    +0.000 A 
ATOM     30  C   UNL     1       5.439   3.807  16.202  0.00  0.00    +0.000 A 
ATOM     31  C   UNL     1       6.688   4.374  15.979  0.00  0.00    +0.000 A 
ATOM     32  C   UNL     1       6.934   5.677  16.385  0.00  0.00    +0.000 A 
ATOM     33  C   UNL     1       5.928   6.409  17.022  0.00  0.00    +0.000 A 
ATOM     34  C   UNL     1       4.652   5.859  17.289  0.00  0.00    +0.000 A 
BRANCH  29  36
ATOM     35  C   UNL     1       3.154   2.753  17.765  0.00  0.00    +0.000 C 
ATOM     36  O   UNL     1       3.178   3.981  17.036  0.00  0.00    +0.000 OA
ENDBRANCH  29  36
ENDBRANCH  23  34
ENDBRANCH  21  25
ENDBRANCH   1  21
TORSDOF 6
ENDMDL
MODEL 6
REMARK VINA RESULT:      -8.4      2.712      9.918
REMARK  Name = 
REMARK  8 active torsions:
REMARK  status: ('A' for Active; 'I' for Inactive)
REMARK    1  A    between atoms: C_1  and  O_2
REMARK    2  A    between atoms: O_2  and  C_3
REMARK    3  A    between atoms: C_8  and  C_9
REMARK    4  A    between atoms: C_11  and  N_12
REMARK    5  A    between atoms: N_12  and  C_13
REMARK    6  A    between atoms: C_17  and  N_18
REMARK    7  A    between atoms: C_24  and  C_25
REMARK    8  A    between atoms: C_25  and  C_26
REMARK                            x       y       z     vdW  Elec       q    Type
REMARK                         _______ _______ _______ _____ _____    ______ ____
ROOT
ATOM      1  C   UNL     1       2.125   8.533  17.669  0.00  0.00    +0.000 A 
ATOM      2  C   UNL     1       3.531   8.491  17.652  0.00  0.00    +0.000 A 
ATOM      3  C   UNL     1       4.216   7.294  17.887  0.00  0.00    +0.000 A 
ATOM      4  C   UNL     1       3.496   6.111  18.086  0.00  0.00    +0.000 A 
ATOM      5  C   UNL     1       4.083   4.841  18.587  0.00  0.00    +0.000 A 
ATOM      6  C   UNL     1       3.157   3.945  19.000  0.00  0.00    +0.000 A 
ATOM      7  C   UNL     1       2.166   3.783  17.891  0.00  0.00    +0.000 A 
ATOM      8  O   UNL     1       1.943   2.715  17.346  0.00  0.00    +0.000 OA
ATOM      9  O   UNL     1       1.399   4.941  17.705  0.00  0.00    +0.000 OA
ATOM     10  C   UNL     1       2.115   6.138  17.855  0.00  0.00    +0.000 A 
ATOM     11  C   UNL     1       1.426   7.325  17.708  0.00  0.00    +0.000 A 
ENDROOT
BRANCH   5  12
ATOM     12  N   UNL     1       5.284   4.435  18.005  0.00  0.00    +0.000 N 
ATOM     13  C   UNL     1       6.577   4.387  18.720  0.00  0.00    +0.000 C 
ATOM     14  C   UNL     1       7.674   4.976  17.822  0.00  0.00    +0.000 C 
ATOM     15  O   UNL     1       7.747   4.293  16.559  0.00  0.00    +0.000 OA
ATOM     16  C   UNL     1       6.493   4.397  15.860  0.00  0.00    +0.000 C 
ATOM     17  C   UNL     1       5.344   3.789  16.680  0.00  0.00    +0.000 C 
ENDBRANCH   5  12
BRANCH   6  18
ATOM     18  C   UNL     1       2.401   4.157  20.296  0.00  0.00    +0.000 C 
ATOM     19  C   UNL     1       1.440   3.050  20.690  0.00  0.00    +0.000 C 
ATOM     20  O   UNL     1       2.535   5.164  20.977  0.00  0.00    +0.000 OA
ENDBRANCH   6  18
BRANCH   1  21
ATOM     21  N   UNL     1       1.442   9.761  17.615  0.00  0.00    +0.000 N 
ATOM     22  H   UNL     1       1.999  10.546  17.294  0.00  0.00    +0.000 HD
BRANCH  21  25
ATOM     23  C   UNL     1      -1.661  11.073  19.113  0.00  0.00    +0.000 A 
ATOM     24  C   UNL     1      -0.760  10.668  18.143  0.00  0.00    +0.000 A 
ATOM     25  C   UNL     1       0.498  10.250  18.544  0.00  0.00    +0.000 A 
ATOM     26  N   UNL     1       0.842  10.211  19.839  0.00  0.00    +0.000 NA
ATOM     27  C   UNL     1      -0.063  10.677  20.705  0.00  0.00    +0.000 A 
ATOM     28  N   UNL     1      -1.298  11.109  20.413  0.00  0.00    +0.000 NA
BRANCH  23  34
ATOM     29  C   UNL     1      -3.746  11.203  17.622  0.00  0.00    +0.000 A 
ATOM     30  C   UNL     1      -5.054  11.681  17.407  0.00  0.00    +0.000 A 
ATOM     31  C   UNL     1      -5.667  12.514  18.334  0.00  0.00    +0.000 A 
ATOM     32  C   UNL     1      -5.000  12.853  19.502  0.00  0.00    +0.000 A 
ATOM     33  C   UNL     1      -3.712  12.361  19.736  0.00  0.00    +0.000 A 
ATOM     34  C   UNL     1      -3.044  11.531  18.805  0.00  0.00    +0.000 A 
BRANCH  29  36
ATOM     35  C   UNL     1      -3.200  10.767  15.365  0.00  0.00    +0.000 C 
ATOM     36  O   UNL     1      -3.165  10.335  16.726  0.00  0.00    +0.000 OA
ENDBRANCH  29  36
ENDBRANCH  23  34
ENDBRANCH  21  25
ENDBRANCH   1  21
TORSDOF 6
ENDMDL
MODEL 7
REMARK VINA RESULT:      -8.4      2.538      4.363
REMARK  Name = 
REMARK  8 active torsions:
REMARK  status: ('A' for Active; 'I' for Inactive)
REMARK    1  A    between atoms: C_1  and  O_2
REMARK    2  A    between atoms: O_2  and  C_3
REMARK    3  A    between atoms: C_8  and  C_9
REMARK    4  A    between atoms: C_11  and  N_12
REMARK    5  A    between atoms: N_12  and  C_13
REMARK    6  A    between atoms: C_17  and  N_18
REMARK    7  A    between atoms: C_24  and  C_25
REMARK    8  A    between atoms: C_25  and  C_26
REMARK                            x       y       z     vdW  Elec       q    Type
REMARK                         _______ _______ _______ _____ _____    ______ ____
ROOT
ATOM      1  C   UNL     1      -0.584  11.182  18.582  0.00  0.00    +0.000 A 
ATOM      2  C   UNL     1      -1.858  10.614  18.399  0.00  0.00    +0.000 A 
ATOM      3  C   UNL     1      -2.985  11.166  19.017  0.00  0.00    +0.000 A 
ATOM      4  C   UNL     1      -2.856  12.330  19.783  0.00  0.00    +0.000 A 
ATOM      5  C   UNL     1      -3.908  12.868  20.684  0.00  0.00    +0.000 A 
ATOM      6  C   UNL     1      -3.451  13.802  21.550  0.00  0.00    +0.000 A 
ATOM      7  C   UNL     1      -2.723  14.834  20.750  0.00  0.00    +0.000 A 
ATOM      8  O   UNL     1      -3.042  16.012  20.732  0.00  0.00    +0.000 OA
ATOM      9  O   UNL     1      -1.536  14.328  20.202  0.00  0.00    +0.000 OA
ATOM     10  C   UNL     1      -1.630  13.005  19.746  0.00  0.00    +0.000 A 
ATOM     11  C   UNL     1      -0.497  12.425  19.211  0.00  0.00    +0.000 A 
ENDROOT
BRANCH   5  12
ATOM     12  N   UNL     1      -5.204  12.920  20.170  0.00  0.00    +0.000 N 
ATOM     13  C   UNL     1      -6.409  12.505  20.919  0.00  0.00    +0.000 C 
ATOM     14  C   UNL     1      -7.314  11.672  19.999  0.00  0.00    +0.000 C 
ATOM     15  O   UNL     1      -7.660  12.394  18.804  0.00  0.00    +0.000 OA
ATOM     16  C   UNL     1      -6.474  12.743  18.068  0.00  0.00    +0.000 C 
ATOM     17  C   UNL     1      -5.530  13.615  18.911  0.00  0.00    +0.000 C 
ENDBRANCH   5  12
BRANCH   6  18
ATOM     18  C   UNL     1      -2.585  13.404  22.728  0.00  0.00    +0.000 C 
ATOM     19  C   UNL     1      -2.757  11.979  23.224  0.00  0.00    +0.000 C 
ATOM     20  O   UNL     1      -1.809  14.181  23.266  0.00  0.00    +0.000 OA
ENDBRANCH   6  18
BRANCH   1  21
ATOM     21  N   UNL     1       0.568  10.527  18.113  0.00  0.00    +0.000 N 
ATOM     22  H   UNL     1       0.646  10.469  17.103  0.00  0.00    +0.000 HD
BRANCH  21  25
ATOM     23  C   UNL     1       2.520   7.420  18.485  0.00  0.00    +0.000 A 
ATOM     24  C   UNL     1       1.895   8.494  17.874  0.00  0.00    +0.000 A 
ATOM     25  C   UNL     1       1.173   9.375  18.661  0.00  0.00    +0.000 A 
ATOM     26  N   UNL     1       1.091   9.219  19.990  0.00  0.00    +0.000 NA
ATOM     27  C   UNL     1       1.670   8.124  20.493  0.00  0.00    +0.000 A 
ATOM     28  N   UNL     1       2.379   7.212  19.812  0.00  0.00    +0.000 NA
BRANCH  23  34
ATOM     29  C   UNL     1       3.024   5.036  17.681  0.00  0.00    +0.000 A 
ATOM     30  C   UNL     1       3.847   4.150  16.959  0.00  0.00    +0.000 A 
ATOM     31  C   UNL     1       4.997   4.605  16.326  0.00  0.00    +0.000 A 
ATOM     32  C   UNL     1       5.323   5.953  16.375  0.00  0.00    +0.000 A 
ATOM     33  C   UNL     1       4.497   6.843  17.067  0.00  0.00    +0.000 A 
ATOM     34  C   UNL     1       3.331   6.415  17.745  0.00  0.00    +0.000 A 
BRANCH  29  36
ATOM     35  C   UNL     1       1.766   3.171  18.407  0.00  0.00    +0.000 C 
ATOM     36  O   UNL     1       1.858   4.589  18.260  0.00  0.00    +0.000 OA
ENDBRANCH  29  36
ENDBRANCH  23  34
ENDBRANCH  21  25
ENDBRANCH   1  21
TORSDOF 6
ENDMDL
MODEL 8
REMARK VINA RESULT:      -8.3      2.816      9.708
REMARK  Name = 
REMARK  8 active torsions:
REMARK  status: ('A' for Active; 'I' for Inactive)
REMARK    1  A    between atoms: C_1  and  O_2
REMARK    2  A    between atoms: O_2  and  C_3
REMARK    3  A    between atoms: C_8  and  C_9
REMARK    4  A    between atoms: C_11  and  N_12
REMARK    5  A    between atoms: N_12  and  C_13
REMARK    6  A    between atoms: C_17  and  N_18
REMARK    7  A    between atoms: C_24  and  C_25
REMARK    8  A    between atoms: C_25  and  C_26
REMARK                            x       y       z     vdW  Elec       q    Type
REMARK                         _______ _______ _______ _____ _____    ______ ____
ROOT
ATOM      1  C   UNL     1       1.874   8.276  17.786  0.00  0.00    +0.000 A 
ATOM      2  C   UNL     1       3.279   8.327  17.721  0.00  0.00    +0.000 A 
ATOM      3  C   UNL     1       4.047   7.170  17.887  0.00  0.00    +0.000 A 
ATOM      4  C   UNL     1       3.412   5.935  18.064  0.00  0.00    +0.000 A 
ATOM      5  C   UNL     1       4.097   4.689  18.496  0.00  0.00    +0.000 A 
ATOM      6  C   UNL     1       3.246   3.719  18.903  0.00  0.00    +0.000 A 
ATOM      7  C   UNL     1       2.229   3.534  17.822  0.00  0.00    +0.000 A 
ATOM      8  O   UNL     1       2.056   2.474  17.244  0.00  0.00    +0.000 OA
ATOM      9  O   UNL     1       1.383   4.645  17.706  0.00  0.00    +0.000 OA
ATOM     10  C   UNL     1       2.025   5.880  17.880  0.00  0.00    +0.000 A 
ATOM     11  C   UNL     1       1.256   7.024  17.801  0.00  0.00    +0.000 A 
ENDROOT
BRANCH   5  12
ATOM     12  N   UNL     1       5.300   4.384  17.859  0.00  0.00    +0.000 N 
ATOM     13  C   UNL     1       6.624   4.457  18.512  0.00  0.00    +0.000 C 
ATOM     14  C   UNL     1       7.622   5.131  17.559  0.00  0.00    +0.000 C 
ATOM     15  O   UNL     1       7.695   4.444  16.298  0.00  0.00    +0.000 OA
ATOM     16  C   UNL     1       6.406   4.430  15.660  0.00  0.00    +0.000 C 
ATOM     17  C   UNL     1       5.355   3.733  16.537  0.00  0.00    +0.000 C 
ENDBRANCH   5  12
BRANCH   6  18
ATOM     18  C   UNL     1       2.524   3.834  20.231  0.00  0.00    +0.000 C 
ATOM     19  C   UNL     1       1.572   2.700  20.566  0.00  0.00    +0.000 C 
ATOM     20  O   UNL     1       2.675   4.788  20.981  0.00  0.00    +0.000 OA
ENDBRANCH   6  18
BRANCH   1  21
ATOM     21  N   UNL     1       1.113   9.458  17.802  0.00  0.00    +0.000 N 
ATOM     22  H   UNL     1       0.850   9.809  16.887  0.00  0.00    +0.000 HD
BRANCH  21  25
ATOM     23  C   UNL     1       1.893  12.827  19.079  0.00  0.00    +0.000 A 
ATOM     24  C   UNL     1       1.817  11.758  18.203  0.00  0.00    +0.000 A 
ATOM     25  C   UNL     1       1.282  10.566  18.660  0.00  0.00    +0.000 A 
ATOM     26  N   UNL     1       0.821  10.441  19.913  0.00  0.00    +0.000 NA
ATOM     27  C   UNL     1       0.989  11.499  20.712  0.00  0.00    +0.000 A 
ATOM     28  N   UNL     1       1.503  12.688  20.364  0.00  0.00    +0.000 NA
BRANCH  23  34
ATOM     29  C   UNL     1       1.667  15.343  18.623  0.00  0.00    +0.000 A 
ATOM     30  C   UNL     1       2.261  16.565  18.253  0.00  0.00    +0.000 A 
ATOM     31  C   UNL     1       3.609  16.627  17.920  0.00  0.00    +0.000 A 
ATOM     32  C   UNL     1       4.388  15.481  17.985  0.00  0.00    +0.000 A 
ATOM     33  C   UNL     1       3.811  14.270  18.378  0.00  0.00    +0.000 A 
ATOM     34  C   UNL     1       2.438  14.160  18.700  0.00  0.00    +0.000 A 
BRANCH  29  36
ATOM     35  C   UNL     1      -0.422  16.448  18.645  0.00  0.00    +0.000 C 
ATOM     36  O   UNL     1       0.346  15.298  19.004  0.00  0.00    +0.000 OA
ENDBRANCH  29  36
ENDBRANCH  23  34
ENDBRANCH  21  25
ENDBRANCH   1  21
TORSDOF 6
ENDMDL
MODEL 9
REMARK VINA RESULT:      -8.3      2.256      3.292
REMARK  Name = 
REMARK  8 active torsions:
REMARK  status: ('A' for Active; 'I' for Inactive)
REMARK    1  A    between atoms: C_1  and  O_2
REMARK    2  A    between atoms: O_2  and  C_3
REMARK    3  A    between atoms: C_8  and  C_9
REMARK    4  A    between atoms: C_11  and  N_12
REMARK    5  A    between atoms: N_12  and  C_13
REMARK    6  A    between atoms: C_17  and  N_18
REMARK    7  A    between atoms: C_24  and  C_25
REMARK    8  A    between atoms: C_25  and  C_26
REMARK                            x       y       z     vdW  Elec       q    Type
REMARK                         _______ _______ _______ _____ _____    ______ ____
ROOT
ATOM      1  C   UNL     1       0.580  10.521  18.317  0.00  0.00    +0.000 A 
ATOM      2  C   UNL     1      -0.731  10.040  18.149  0.00  0.00    +0.000 A 
ATOM      3  C   UNL     1      -1.802  10.624  18.834  0.00  0.00    +0.000 A 
ATOM      4  C   UNL     1      -1.577  11.735  19.655  0.00  0.00    +0.000 A 
ATOM      5  C   UNL     1      -2.566  12.285  20.620  0.00  0.00    +0.000 A 
ATOM      6  C   UNL     1      -2.025  13.142  21.516  0.00  0.00    +0.000 A 
ATOM      7  C   UNL     1      -1.261  14.171  20.746  0.00  0.00    +0.000 A 
ATOM      8  O   UNL     1      -1.507  15.365  20.801  0.00  0.00    +0.000 OA
ATOM      9  O   UNL     1      -0.125  13.626  20.131  0.00  0.00    +0.000 OA
ATOM     10  C   UNL     1      -0.314  12.337  19.610  0.00  0.00    +0.000 A 
ATOM     11  C   UNL     1       0.764  11.722  19.006  0.00  0.00    +0.000 A 
ENDROOT
BRANCH   5  12
ATOM     12  N   UNL     1      -3.871  12.441  20.155  0.00  0.00    +0.000 N 
ATOM     13  C   UNL     1      -4.933  13.158  20.894  0.00  0.00    +0.000 C 
ATOM     14  C   UNL     1      -6.233  12.344  20.827  0.00  0.00    +0.000 C 
ATOM     15  O   UNL     1      -6.623  12.082  19.467  0.00  0.00    +0.000 OA
ATOM     16  C   UNL     1      -5.596  11.341  18.785  0.00  0.00    +0.000 C 
ATOM     17  C   UNL     1      -4.266  12.111  18.773  0.00  0.00    +0.000 C 
ENDBRANCH   5  12
BRANCH   6  18
ATOM     18  C   UNL     1      -1.147  12.630  22.641  0.00  0.00    +0.000 C 
ATOM     19  C   UNL     1      -1.322  11.166  23.002  0.00  0.00    +0.000 C 
ATOM     20  O   UNL     1      -0.360  13.350  23.240  0.00  0.00    +0.000 OA
ENDBRANCH   6  18
BRANCH   1  21
ATOM     21  N   UNL     1       1.675   9.825  17.774  0.00  0.00    +0.000 N 
ATOM     22  H   UNL     1       1.736   9.847  16.762  0.00  0.00    +0.000 HD
BRANCH  21  25
ATOM     23  C   UNL     1       3.684   6.742  18.005  0.00  0.00    +0.000 A 
ATOM     24  C   UNL     1       3.164   7.915  17.484  0.00  0.00    +0.000 A 
ATOM     25  C   UNL     1       2.199   8.590  18.213  0.00  0.00    +0.000 A 
ATOM     26  N   UNL     1       1.785   8.144  19.407  0.00  0.00    +0.000 NA
ATOM     27  C   UNL     1       2.291   6.973  19.808  0.00  0.00    +0.000 A 
ATOM     28  N   UNL     1       3.219   6.245  19.170  0.00  0.00    +0.000 NA
BRANCH  23  34
ATOM     29  C   UNL     1       6.089   6.321  17.213  0.00  0.00    +0.000 A 
ATOM     30  C   UNL     1       7.018   5.500  16.543  0.00  0.00    +0.000 A 
ATOM     31  C   UNL     1       6.614   4.314  15.944  0.00  0.00    +0.000 A 
ATOM     32  C   UNL     1       5.288   3.914  16.032  0.00  0.00    +0.000 A 
ATOM     33  C   UNL     1       4.366   4.710  16.717  0.00  0.00    +0.000 A 
ATOM     34  C   UNL     1       4.732   5.937  17.319  0.00  0.00    +0.000 A 
BRANCH  29  36
ATOM     35  C   UNL     1       7.799   7.933  17.465  0.00  0.00    +0.000 C 
ATOM     36  O   UNL     1       6.505   7.467  17.851  0.00  0.00    +0.000 OA
ENDBRANCH  29  36
ENDBRANCH  23  34
ENDBRANCH  21  25
ENDBRANCH   1  21
TORSDOF 6
ENDMDL
