MODEL 1
REMARK VINA RESULT:      -6.3      0.000      0.000
REMARK  Name = 
REMARK  7 active torsions:
REMARK  status: ('A' for Active; 'I' for Inactive)
REMARK    1  A    between atoms: C_1  and  S_2
REMARK    2  A    between atoms: S_2  and  C_3
REMARK    3  A    between atoms: C_5  and  C_6
REMARK    4  A    between atoms: C_6  and  C_7
REMARK    5  A    between atoms: C_7  and  O_8
REMARK    6  A    between atoms: C_10  and  N_11
REMARK    7  A    between atoms: N_14  and  C_15
REMARK                            x       y       z     vdW  Elec       q    Type
REMARK                         _______ _______ _______ _____ _____    ______ ____
ROOT
ATOM      1  C   UNL     1       6.956   5.875  17.327  0.00  0.00    +0.000 A 
ATOM      2  N   UNL     1       7.374   5.707  16.061  0.00  0.00    +0.000 NA
ATOM      3  C   UNL     1       6.588   4.973  15.256  0.00  0.00    +0.000 A 
ATOM      4  C   UNL     1       5.406   4.424  15.704  0.00  0.00    +0.000 A 
ATOM      5  C   UNL     1       5.059   4.630  17.030  0.00  0.00    +0.000 A 
ATOM      6  N   UNL     1       5.835   5.346  17.852  0.00  0.00    +0.000 NA
ENDROOT
BRANCH   5   7
ATOM      7  N   UNL     1       3.908   3.989  17.499  0.00  0.00    +0.000 N 
ATOM      8  C   UNL     1       4.119   3.003  18.572  0.00  0.00    +0.000 C 
ATOM      9  C   UNL     1       2.824   2.165  18.716  0.00  0.00    +0.000 C 
ATOM     10  N   UNL     1       1.637   3.003  19.020  0.00  0.00    +0.000 NA
ATOM     11  C   UNL     1       0.432   2.178  19.078  0.00  0.00    +0.000 C 
ATOM     12  C   UNL     1       1.497   4.060  17.991  0.00  0.00    +0.000 C 
ATOM     13  C   UNL     1       2.787   4.897  17.805  0.00  0.00    +0.000 C 
ENDBRANCH   5   7
BRANCH   1  15
ATOM     14  C   UNL     1       7.755   8.495  17.581  0.00  0.00    +0.000 C 
ATOM     15  S   UNL     1       8.005   6.881  18.353  0.00  0.00    +0.000 S 
ENDBRANCH   1  15
BRANCH   3  16
ATOM     16  C   UNL     1       7.037   4.695  13.840  0.00  0.00    +0.000 C 
BRANCH  16  17
ATOM     17  C   UNL     1       6.086   3.815  13.030  0.00  0.00    +0.000 C 
BRANCH  17  18
ATOM     18  O   UNL     1       6.804   2.871  12.243  0.00  0.00    +0.000 OA
ATOM     19  H   UNL     1       6.483   3.003  11.327  0.00  0.00    +0.000 HD
ENDBRANCH  17  18
ENDBRANCH  16  17
ENDBRANCH   3  16
TORSDOF 5
ENDMDL
MODEL 2
REMARK VINA RESULT:      -6.3      2.720      3.956
REMARK  Name = 
REMARK  7 active torsions:
REMARK  status: ('A' for Active; 'I' for Inactive)
REMARK    1  A    between atoms: C_1  and  S_2
REMARK    2  A    between atoms: S_2  and  C_3
REMARK    3  A    between atoms: C_5  and  C_6
REMARK    4  A    between atoms: C_6  and  C_7
REMARK    5  A    between atoms: C_7  and  O_8
REMARK    6  A    between atoms: C_10  and  N_11
REMARK    7  A    between atoms: N_14  and  C_15
REMARK                            x       y       z     vdW  Elec       q    Type
REMARK                         _______ _______ _______ _____ _____    ______ ____
ROOT
ATOM      1  C   UNL     1       6.694   5.194  15.624  0.00  0.00    +0.000 A 
ATOM      2  N   UNL     1       7.512   6.058  16.249  0.00  0.00    +0.000 NA
ATOM      3  C   UNL     1       7.219   6.352  17.527  0.00  0.00    +0.000 A 
ATOM      4  C   UNL     1       6.137   5.790  18.169  0.00  0.00    +0.000 A 
ATOM      5  C   UNL     1       5.333   4.924  17.444  0.00  0.00    +0.000 A 
ATOM      6  N   UNL     1       5.599   4.628  16.166  0.00  0.00    +0.000 NA
ENDROOT
BRANCH   5   7
ATOM      7  N   UNL     1       4.185   4.435  18.075  0.00  0.00    +0.000 N 
ATOM      8  C   UNL     1       3.237   3.716  17.207  0.00  0.00    +0.000 C 
ATOM      9  C   UNL     1       1.903   3.561  17.979  0.00  0.00    +0.000 C 
ATOM     10  N   UNL     1       2.071   2.833  19.262  0.00  0.00    +0.000 NA
ATOM     11  C   UNL     1       0.802   2.772  19.984  0.00  0.00    +0.000 C 
ATOM     12  C   UNL     1       3.106   3.504  20.083  0.00  0.00    +0.000 C 
ATOM     13  C   UNL     1       4.444   3.699  19.327  0.00  0.00    +0.000 C 
ENDBRANCH   5   7
BRANCH   1  15
ATOM     14  C   UNL     1       5.744   3.736  13.493  0.00  0.00    +0.000 C 
ATOM     15  S   UNL     1       7.132   4.802  13.945  0.00  0.00    +0.000 S 
ENDBRANCH   1  15
BRANCH   3  16
ATOM     16  C   UNL     1       8.064   7.366  18.262  0.00  0.00    +0.000 C 
BRANCH  16  17
ATOM     17  C   UNL     1       7.917   8.802  17.763  0.00  0.00    +0.000 C 
BRANCH  17  18
ATOM     18  O   UNL     1       8.723   9.697  18.522  0.00  0.00    +0.000 OA
ATOM     19  H   UNL     1       9.182   9.134  19.180  0.00  0.00    +0.000 HD
ENDBRANCH  17  18
ENDBRANCH  16  17
ENDBRANCH   3  16
TORSDOF 5
ENDMDL
MODEL 3
REMARK VINA RESULT:      -6.3      2.889      3.999
REMARK  Name = 
REMARK  7 active torsions:
REMARK  status: ('A' for Active; 'I' for Inactive)
REMARK    1  A    between atoms: C_1  and  S_2
REMARK    2  A    between atoms: S_2  and  C_3
REMARK    3  A    between atoms: C_5  and  C_6
REMARK    4  A    between atoms: C_6  and  C_7
REMARK    5  A    between atoms: C_7  and  O_8
REMARK    6  A    between atoms: C_10  and  N_11
REMARK    7  A    between atoms: N_14  and  C_15
REMARK                            x       y       z     vdW  Elec       q    Type
REMARK                         _______ _______ _______ _____ _____    ______ ____
ROOT
ATOM      1  C   UNL     1       6.630   5.262  15.941  0.00  0.00    +0.000 A 
ATOM      2  N   UNL     1       7.488   6.145  16.481  0.00  0.00    +0.000 NA
ATOM      3  C   UNL     1       7.321   6.433  17.783  0.00  0.00    +0.000 A 
ATOM      4  C   UNL     1       6.324   5.845  18.532  0.00  0.00    +0.000 A 
ATOM      5  C   UNL     1       5.471   4.960  17.891  0.00  0.00    +0.000 A 
ATOM      6  N   UNL     1       5.611   4.671  16.592  0.00  0.00    +0.000 NA
ENDROOT
BRANCH   5   7
ATOM      7  N   UNL     1       4.405   4.444  18.635  0.00  0.00    +0.000 N 
ATOM      8  C   UNL     1       4.681   3.193  19.361  0.00  0.00    +0.000 C 
ATOM      9  C   UNL     1       3.327   2.601  19.828  0.00  0.00    +0.000 C 
ATOM     10  N   UNL     1       2.568   3.537  20.696  0.00  0.00    +0.000 NA
ATOM     11  C   UNL     1       1.273   2.964  21.054  0.00  0.00    +0.000 C 
ATOM     12  C   UNL     1       2.391   4.831  19.997  0.00  0.00    +0.000 C 
ATOM     13  C   UNL     1       3.726   5.434  19.493  0.00  0.00    +0.000 C 
ENDBRANCH   5   7
BRANCH   1  15
ATOM     14  C   UNL     1       5.445   3.869  13.887  0.00  0.00    +0.000 C 
ATOM     15  S   UNL     1       6.903   4.881  14.226  0.00  0.00    +0.000 S 
ENDBRANCH   1  15
BRANCH   3  16
ATOM     16  C   UNL     1       8.212   7.467  18.430  0.00  0.00    +0.000 C 
BRANCH  16  17
ATOM     17  C   UNL     1       8.061   8.880  17.872  0.00  0.00    +0.000 C 
BRANCH  17  18
ATOM     18  O   UNL     1       8.798   9.821  18.644  0.00  0.00    +0.000 OA
ATOM     19  H   UNL     1       8.650   9.560  19.577  0.00  0.00    +0.000 HD
ENDBRANCH  17  18
ENDBRANCH  16  17
ENDBRANCH   3  16
TORSDOF 5
ENDMDL
MODEL 4
REMARK VINA RESULT:      -6.2      2.755      3.945
REMARK  Name = 
REMARK  7 active torsions:
REMARK  status: ('A' for Active; 'I' for Inactive)
REMARK    1  A    between atoms: C_1  and  S_2
REMARK    2  A    between atoms: S_2  and  C_3
REMARK    3  A    between atoms: C_5  and  C_6
REMARK    4  A    between atoms: C_6  and  C_7
REMARK    5  A    between atoms: C_7  and  O_8
REMARK    6  A    between atoms: C_10  and  N_11
REMARK    7  A    between atoms: N_14  and  C_15
REMARK                            x       y       z     vdW  Elec       q    Type
REMARK                         _______ _______ _______ _____ _____    ______ ____
ROOT
ATOM      1  C   UNL     1       6.722   5.211  15.698  0.00  0.00    +0.000 A 
ATOM      2  N   UNL     1       7.533   6.100  16.296  0.00  0.00    +0.000 NA
ATOM      3  C   UNL     1       7.258   6.407  17.575  0.00  0.00    +0.000 A 
ATOM      4  C   UNL     1       6.200   5.833  18.245  0.00  0.00    +0.000 A 
ATOM      5  C   UNL     1       5.401   4.940  17.548  0.00  0.00    +0.000 A 
ATOM      6  N   UNL     1       5.649   4.631  16.269  0.00  0.00    +0.000 NA
ENDROOT
BRANCH   5   7
ATOM      7  N   UNL     1       4.275   4.437  18.207  0.00  0.00    +0.000 N 
ATOM      8  C   UNL     1       3.634   5.354  19.165  0.00  0.00    +0.000 C 
ATOM      9  C   UNL     1       2.649   4.531  20.032  0.00  0.00    +0.000 C 
ATOM     10  N   UNL     1       1.616   3.843  19.217  0.00  0.00    +0.000 NA
ATOM     11  C   UNL     1       0.753   3.027  20.069  0.00  0.00    +0.000 C 
ATOM     12  C   UNL     1       2.272   3.006  18.185  0.00  0.00    +0.000 C 
ATOM     13  C   UNL     1       3.286   3.797  17.320  0.00  0.00    +0.000 C 
ENDBRANCH   5   7
BRANCH   1  15
ATOM     14  C   UNL     1       5.697   3.810  13.565  0.00  0.00    +0.000 C 
ATOM     15  S   UNL     1       7.136   4.804  14.018  0.00  0.00    +0.000 S 
ENDBRANCH   1  15
BRANCH   3  16
ATOM     16  C   UNL     1       8.095   7.449  18.280  0.00  0.00    +0.000 C 
BRANCH  16  17
ATOM     17  C   UNL     1       7.940   8.868  17.736  0.00  0.00    +0.000 C 
BRANCH  17  18
ATOM     18  O   UNL     1       8.753   9.787  18.457  0.00  0.00    +0.000 OA
ATOM     19  H   UNL     1       9.666   9.440  18.377  0.00  0.00    +0.000 HD
ENDBRANCH  17  18
ENDBRANCH  16  17
ENDBRANCH   3  16
TORSDOF 5
ENDMDL
MODEL 5
REMARK VINA RESULT:      -6.1      3.731      6.463
REMARK  Name = 
REMARK  7 active torsions:
REMARK  status: ('A' for Active; 'I' for Inactive)
REMARK    1  A    between atoms: C_1  and  S_2
REMARK    2  A    between atoms: S_2  and  C_3
REMARK    3  A    between atoms: C_5  and  C_6
REMARK    4  A    between atoms: C_6  and  C_7
REMARK    5  A    between atoms: C_7  and  O_8
REMARK    6  A    between atoms: C_10  and  N_11
REMARK    7  A    between atoms: N_14  and  C_15
REMARK                            x       y       z     vdW  Elec       q    Type
REMARK                         _______ _______ _______ _____ _____    ______ ____
ROOT
ATOM      1  C   UNL     1       1.988   6.663  19.976  0.00  0.00    +0.000 A 
ATOM      2  N   UNL     1       1.345   5.601  20.491  0.00  0.00    +0.000 NA
ATOM      3  C   UNL     1       1.645   4.399  19.970  0.00  0.00    +0.000 A 
ATOM      4  C   UNL     1       2.572   4.261  18.960  0.00  0.00    +0.000 A 
ATOM      5  C   UNL     1       3.174   5.410  18.472  0.00  0.00    +0.000 A 
ATOM      6  N   UNL     1       2.879   6.618  18.968  0.00  0.00    +0.000 NA
ENDROOT
BRANCH   5   7
ATOM      7  N   UNL     1       4.041   5.268  17.384  0.00  0.00    +0.000 N 
ATOM      8  C   UNL     1       4.750   6.490  16.969  0.00  0.00    +0.000 C 
ATOM      9  C   UNL     1       5.374   6.233  15.574  0.00  0.00    +0.000 C 
ATOM     10  N   UNL     1       6.307   5.079  15.575  0.00  0.00    +0.000 NA
ATOM     11  C   UNL     1       6.816   4.833  14.227  0.00  0.00    +0.000 C 
ATOM     12  C   UNL     1       5.613   3.878  16.097  0.00  0.00    +0.000 C 
ATOM     13  C   UNL     1       4.954   4.114  17.479  0.00  0.00    +0.000 C 
ENDBRANCH   5   7
BRANCH   1  15
ATOM     14  C   UNL     1       1.285   9.216  19.229  0.00  0.00    +0.000 C 
ATOM     15  S   UNL     1       1.590   8.232  20.714  0.00  0.00    +0.000 S 
ENDBRANCH   1  15
BRANCH   3  16
ATOM     16  C   UNL     1       0.908   3.176  20.463  0.00  0.00    +0.000 C 
BRANCH  16  17
ATOM     17  C   UNL     1       1.618   2.408  21.575  0.00  0.00    +0.000 C 
BRANCH  17  18
ATOM     18  O   UNL     1       2.392   3.281  22.391  0.00  0.00    +0.000 OA
ATOM     19  H   UNL     1       2.300   4.166  21.980  0.00  0.00    +0.000 HD
ENDBRANCH  17  18
ENDBRANCH  16  17
ENDBRANCH   3  16
TORSDOF 5
ENDMDL
MODEL 6
REMARK VINA RESULT:      -6.1      1.491      1.916
REMARK  Name = 
REMARK  7 active torsions:
REMARK  status: ('A' for Active; 'I' for Inactive)
REMARK    1  A    between atoms: C_1  and  S_2
REMARK    2  A    between atoms: S_2  and  C_3
REMARK    3  A    between atoms: C_5  and  C_6
REMARK    4  A    between atoms: C_6  and  C_7
REMARK    5  A    between atoms: C_7  and  O_8
REMARK    6  A    between atoms: C_10  and  N_11
REMARK    7  A    between atoms: N_14  and  C_15
REMARK                            x       y       z     vdW  Elec       q    Type
REMARK                         _______ _______ _______ _____ _____    ______ ____
ROOT
ATOM      1  C   UNL     1       6.342   6.441  17.076  0.00  0.00    +0.000 A 
ATOM      2  N   UNL     1       6.342   5.960  15.820  0.00  0.00    +0.000 NA
ATOM      3  C   UNL     1       5.465   4.979  15.548  0.00  0.00    +0.000 A 
ATOM      4  C   UNL     1       4.601   4.494  16.506  0.00  0.00    +0.000 A 
ATOM      5  C   UNL     1       4.682   5.033  17.781  0.00  0.00    +0.000 A 
ATOM      6  N   UNL     1       5.558   6.001  18.077  0.00  0.00    +0.000 NA
ENDROOT
BRANCH   5   7
ATOM      7  N   UNL     1       3.869   4.467  18.769  0.00  0.00    +0.000 N 
ATOM      8  C   UNL     1       2.421   4.667  18.595  0.00  0.00    +0.000 C 
ATOM      9  C   UNL     1       1.721   4.290  19.925  0.00  0.00    +0.000 C 
ATOM     10  N   UNL     1       1.996   2.889  20.333  0.00  0.00    +0.000 NA
ATOM     11  C   UNL     1       1.373   2.602  21.623  0.00  0.00    +0.000 C 
ATOM     12  C   UNL     1       3.460   2.669  20.400  0.00  0.00    +0.000 C 
ATOM     13  C   UNL     1       4.191   3.065  19.092  0.00  0.00    +0.000 C 
ENDBRANCH   5   7
BRANCH   1  15
ATOM     14  C   UNL     1       8.313   7.125  18.869  0.00  0.00    +0.000 C 
ATOM     15  S   UNL     1       7.492   7.761  17.390  0.00  0.00    +0.000 S 
ENDBRANCH   1  15
BRANCH   3  16
ATOM     16  C   UNL     1       5.462   4.353  14.173  0.00  0.00    +0.000 C 
BRANCH  16  17
ATOM     17  C   UNL     1       6.847   4.119  13.575  0.00  0.00    +0.000 C 
BRANCH  17  18
ATOM     18  O   UNL     1       7.527   5.349  13.352  0.00  0.00    +0.000 OA
ATOM     19  H   UNL     1       6.822   6.029  13.312  0.00  0.00    +0.000 HD
ENDBRANCH  17  18
ENDBRANCH  16  17
ENDBRANCH   3  16
TORSDOF 5
ENDMDL
MODEL 7
REMARK VINA RESULT:      -6.0      3.768      6.402
REMARK  Name = 
REMARK  7 active torsions:
REMARK  status: ('A' for Active; 'I' for Inactive)
REMARK    1  A    between atoms: C_1  and  S_2
REMARK    2  A    between atoms: S_2  and  C_3
REMARK    3  A    between atoms: C_5  and  C_6
REMARK    4  A    between atoms: C_6  and  C_7
REMARK    5  A    between atoms: C_7  and  O_8
REMARK    6  A    between atoms: C_10  and  N_11
REMARK    7  A    between atoms: N_14  and  C_15
REMARK                            x       y       z     vdW  Elec       q    Type
REMARK                         _______ _______ _______ _____ _____    ______ ____
ROOT
ATOM      1  C   UNL     1       2.014   6.621  20.079  0.00  0.00    +0.000 A 
ATOM      2  N   UNL     1       1.336   5.552  20.531  0.00  0.00    +0.000 NA
ATOM      3  C   UNL     1       1.693   4.355  20.035  0.00  0.00    +0.000 A 
ATOM      4  C   UNL     1       2.709   4.227  19.113  0.00  0.00    +0.000 A 
ATOM      5  C   UNL     1       3.343   5.384  18.686  0.00  0.00    +0.000 A 
ATOM      6  N   UNL     1       2.994   6.587  19.157  0.00  0.00    +0.000 NA
ENDROOT
BRANCH   5   7
ATOM      7  N   UNL     1       4.306   5.253  17.680  0.00  0.00    +0.000 N 
ATOM      8  C   UNL     1       4.191   4.049  16.840  0.00  0.00    +0.000 C 
ATOM      9  C   UNL     1       5.507   3.898  16.035  0.00  0.00    +0.000 C 
ATOM     10  N   UNL     1       5.793   5.083  15.189  0.00  0.00    +0.000 NA
ATOM     11  C   UNL     1       7.074   4.924  14.504  0.00  0.00    +0.000 C 
ATOM     12  C   UNL     1       5.799   6.304  16.029  0.00  0.00    +0.000 C 
ATOM     13  C   UNL     1       4.506   6.467  16.867  0.00  0.00    +0.000 C 
ENDBRANCH   5   7
BRANCH   1  15
ATOM     14  C   UNL     1       1.315   9.158  19.278  0.00  0.00    +0.000 C 
ATOM     15  S   UNL     1       1.539   8.183  20.783  0.00  0.00    +0.000 S 
ENDBRANCH   1  15
BRANCH   3  16
ATOM     16  C   UNL     1       0.924   3.124  20.456  0.00  0.00    +0.000 C 
BRANCH  16  17
ATOM     17  C   UNL     1       1.456   2.437  21.712  0.00  0.00    +0.000 C 
BRANCH  17  18
ATOM     18  O   UNL     1       2.392   3.265  22.394  0.00  0.00    +0.000 OA
ATOM     19  H   UNL     1       3.225   2.749  22.412  0.00  0.00    +0.000 HD
ENDBRANCH  17  18
ENDBRANCH  16  17
ENDBRANCH   3  16
TORSDOF 5
ENDMDL
MODEL 8
REMARK VINA RESULT:      -6.0      3.619      5.077
REMARK  Name = 
REMARK  7 active torsions:
REMARK  status: ('A' for Active; 'I' for Inactive)
REMARK    1  A    between atoms: C_1  and  S_2
REMARK    2  A    between atoms: S_2  and  C_3
REMARK    3  A    between atoms: C_5  and  C_6
REMARK    4  A    between atoms: C_6  and  C_7
REMARK    5  A    between atoms: C_7  and  O_8
REMARK    6  A    between atoms: C_10  and  N_11
REMARK    7  A    between atoms: N_14  and  C_15
REMARK                            x       y       z     vdW  Elec       q    Type
REMARK                         _______ _______ _______ _____ _____    ______ ____
ROOT
ATOM      1  C   UNL     1       5.289   5.288  17.229  0.00  0.00    +0.000 A 
ATOM      2  N   UNL     1       4.695   4.086  17.140  0.00  0.00    +0.000 NA
ATOM      3  C   UNL     1       3.415   4.012  17.543  0.00  0.00    +0.000 A 
ATOM      4  C   UNL     1       2.741   5.116  18.019  0.00  0.00    +0.000 A 
ATOM      5  C   UNL     1       3.436   6.313  18.097  0.00  0.00    +0.000 A 
ATOM      6  N   UNL     1       4.715   6.405  17.713  0.00  0.00    +0.000 NA
ENDROOT
BRANCH   5   7
ATOM      7  N   UNL     1       2.774   7.403  18.671  0.00  0.00    +0.000 N 
ATOM      8  C   UNL     1       1.993   8.236  17.741  0.00  0.00    +0.000 C 
ATOM      9  C   UNL     1       1.630   9.555  18.468  0.00  0.00    +0.000 C 
ATOM     10  N   UNL     1       0.857   9.321  19.714  0.00  0.00    +0.000 NA
ATOM     11  C   UNL     1       0.597  10.586  20.399  0.00  0.00    +0.000 C 
ATOM     12  C   UNL     1       1.603   8.395  20.597  0.00  0.00    +0.000 C 
ATOM     13  C   UNL     1       2.006   7.077  19.887  0.00  0.00    +0.000 C 
ENDBRANCH   5   7
BRANCH   1  15
ATOM     14  C   UNL     1       6.761   4.720  14.976  0.00  0.00    +0.000 C 
ATOM     15  S   UNL     1       6.971   5.355  16.655  0.00  0.00    +0.000 S 
ENDBRANCH   1  15
BRANCH   3  16
ATOM     16  C   UNL     1       2.713   2.674  17.528  0.00  0.00    +0.000 C 
BRANCH  16  17
ATOM     17  C   UNL     1       3.353   1.607  18.412  0.00  0.00    +0.000 C 
BRANCH  17  18
ATOM     18  O   UNL     1       4.447   2.139  19.152  0.00  0.00    +0.000 OA
ATOM     19  H   UNL     1       4.826   2.840  18.582  0.00  0.00    +0.000 HD
ENDBRANCH  17  18
ENDBRANCH  16  17
ENDBRANCH   3  16
TORSDOF 5
ENDMDL
MODEL 9
REMARK VINA RESULT:      -6.0      2.788      3.901
REMARK  Name = 
REMARK  7 active torsions:
REMARK  status: ('A' for Active; 'I' for Inactive)
REMARK    1  A    between atoms: C_1  and  S_2
REMARK    2  A    between atoms: S_2  and  C_3
REMARK    3  A    between atoms: C_5  and  C_6
REMARK    4  A    between atoms: C_6  and  C_7
REMARK    5  A    between atoms: C_7  and  O_8
REMARK    6  A    between atoms: C_10  and  N_11
REMARK    7  A    between atoms: N_14  and  C_15
REMARK                            x       y       z     vdW  Elec       q    Type
REMARK                         _______ _______ _______ _____ _____    ______ ____
ROOT
ATOM      1  C   UNL     1       6.242   4.743  15.897  0.00  0.00    +0.000 A 
ATOM      2  N   UNL     1       7.154   5.659  16.267  0.00  0.00    +0.000 NA
ATOM      3  C   UNL     1       7.115   6.071  17.545  0.00  0.00    +0.000 A 
ATOM      4  C   UNL     1       6.189   5.576  18.437  0.00  0.00    +0.000 A 
ATOM      5  C   UNL     1       5.271   4.649  17.968  0.00  0.00    +0.000 A 
ATOM      6  N   UNL     1       5.284   4.235  16.694  0.00  0.00    +0.000 NA
ENDROOT
BRANCH   5   7
ATOM      7  N   UNL     1       4.276   4.225  18.855  0.00  0.00    +0.000 N 
ATOM      8  C   UNL     1       2.891   4.368  18.376  0.00  0.00    +0.000 C 
ATOM      9  C   UNL     1       1.943   4.185  19.587  0.00  0.00    +0.000 C 
ATOM     10  N   UNL     1       2.119   2.869  20.251  0.00  0.00    +0.000 NA
ATOM     11  C   UNL     1       1.255   2.770  21.426  0.00  0.00    +0.000 C 
ATOM     12  C   UNL     1       3.539   2.690  20.633  0.00  0.00    +0.000 C 
ATOM     13  C   UNL     1       4.514   2.895  19.446  0.00  0.00    +0.000 C 
ENDBRANCH   5   7
BRANCH   1  15
ATOM     14  C   UNL     1       7.683   5.256  13.611  0.00  0.00    +0.000 C 
ATOM     15  S   UNL     1       6.347   4.196  14.208  0.00  0.00    +0.000 S 
ENDBRANCH   1  15
BRANCH   3  16
ATOM     16  C   UNL     1       8.073   7.146  18.003  0.00  0.00    +0.000 C 
BRANCH  16  17
ATOM     17  C   UNL     1       7.640   8.572  17.668  0.00  0.00    +0.000 C 
BRANCH  17  18
ATOM     18  O   UNL     1       8.505   9.528  18.272  0.00  0.00    +0.000 OA
ATOM     19  H   UNL     1       9.395   9.332  17.913  0.00  0.00    +0.000 HD
ENDBRANCH  17  18
ENDBRANCH  16  17
ENDBRANCH   3  16
TORSDOF 5
ENDMDL
