MODEL 1
REMARK VINA RESULT:      -8.3      0.000      0.000
REMARK  Name = 
REMARK  10 active torsions:
REMARK  status: ('A' for Active; 'I' for Inactive)
REMARK    1  A    between atoms: C_1  and  C_2
REMARK    2  A    between atoms: C_2  and  C_3
REMARK    3  A    between atoms: C_2  and  C_4
REMARK    4  A    between atoms: C_4  and  C_5
REMARK    5  A    between atoms: C_4  and  N_21
REMARK    6  A    between atoms: C_5  and  N_6
REMARK    7  A    between atoms: C_7  and  C_9
REMARK    8  A    between atoms: C_9  and  C_10
REMARK    9  A    between atoms: C_24  and  O_25
REMARK   10  A    between atoms: C_24  and  C_26
REMARK                            x       y       z     vdW  Elec       q    Type
REMARK                         _______ _______ _______ _____ _____    ______ ____
ROOT
ATOM      1  C   UNL     1       1.871   6.811  20.471  0.00  0.00    +0.000 C 
ENDROOT
BRANCH   1   2
ATOM      2  N   UNL     1       1.736   8.112  19.844  0.00  0.00    +0.000 N 
ATOM      3  C   UNL     1       0.766   9.017  20.236  0.00  0.00    +0.000 C 
ATOM      4  O   UNL     1      -0.012   8.793  21.158  0.00  0.00    +0.000 OA
ATOM      5  H   UNL     1       2.508   8.447  19.283  0.00  0.00    +0.000 HD
BRANCH   3   6
ATOM      6  C   UNL     1       0.740  10.340  19.428  0.00  0.00    +0.000 C 
ATOM      7  C   UNL     1       1.269  11.523  20.272  0.00  0.00    +0.000 C 
ATOM      8  C   UNL     1       1.799  12.542  19.276  0.00  0.00    +0.000 C 
ATOM      9  C   UNL     1       2.275  11.726  18.083  0.00  0.00    +0.000 C 
ATOM     10  C   UNL     1       1.854  10.276  18.351  0.00  0.00    +0.000 C 
BRANCH   6  11
ATOM     11  C   UNL     1      -0.648  10.561  18.799  0.00  0.00    +0.000 A 
ATOM     12  C   UNL     1      -1.596  11.430  19.363  0.00  0.00    +0.000 A 
ATOM     13  C   UNL     1      -2.842  11.645  18.766  0.00  0.00    +0.000 A 
ATOM     14  C   UNL     1      -3.169  10.978  17.592  0.00  0.00    +0.000 A 
ATOM     15 CL   UNL     1      -4.701  11.252  16.860  0.00  0.00    +0.000 Cl
ATOM     16  C   UNL     1      -2.262  10.097  17.016  0.00  0.00    +0.000 A 
ATOM     17  C   UNL     1      -1.012   9.886  17.615  0.00  0.00    +0.000 A 
ENDBRANCH   6  11
ENDBRANCH   3   6
ENDBRANCH   1   2
BRANCH   1  18
ATOM     18  C   UNL     1       2.141   5.602  19.496  0.00  0.00    +0.000 C 
BRANCH  18  19
ATOM     19  N   UNL     1       3.509   5.710  18.862  0.00  0.00    +0.000 NA
ATOM     20  C   UNL     1       3.473   5.494  17.402  0.00  0.00    +0.000 C 
ATOM     21  C   UNL     1       4.839   5.740  16.766  0.00  0.00    +0.000 C 
ATOM     22  C   UNL     1       5.910   4.822  17.351  0.00  0.00    +0.000 C 
ATOM     23  C   UNL     1       5.884   4.930  18.875  0.00  0.00    +0.000 C 
ATOM     24  C   UNL     1       4.477   4.759  19.452  0.00  0.00    +0.000 C 
BRANCH  22  25
ATOM     25  C   UNL     1       7.313   5.195  16.795  0.00  0.00    +0.000 C 
ATOM     26  F   UNL     1       7.738   6.399  17.245  0.00  0.00    +0.000 F 
ATOM     27  F   UNL     1       8.264   4.289  17.103  0.00  0.00    +0.000 F 
ATOM     28  F   UNL     1       7.271   5.290  15.441  0.00  0.00    +0.000 F 
ENDBRANCH  22  25
BRANCH  22  29
ATOM     29  O   UNL     1       5.541   3.461  17.008  0.00  0.00    +0.000 OA
ATOM     30  H   UNL     1       5.389   2.977  17.842  0.00  0.00    +0.000 HD
ENDBRANCH  22  29
ENDBRANCH  18  19
BRANCH  18  32
ATOM     31  C   UNL     1       2.108   4.198  21.702  0.00  0.00    +0.000 C 
ATOM     32  C   UNL     1       1.934   4.193  20.182  0.00  0.00    +0.000 C 
ATOM     33  C   UNL     1       0.605   3.525  19.839  0.00  0.00    +0.000 C 
ENDBRANCH  18  32
ENDBRANCH   1  18
TORSDOF 8
ENDMDL
MODEL 2
REMARK VINA RESULT:      -8.3      0.874      1.507
REMARK  Name = 
REMARK  10 active torsions:
REMARK  status: ('A' for Active; 'I' for Inactive)
REMARK    1  A    between atoms: C_1  and  C_2
REMARK    2  A    between atoms: C_2  and  C_3
REMARK    3  A    between atoms: C_2  and  C_4
REMARK    4  A    between atoms: C_4  and  C_5
REMARK    5  A    between atoms: C_4  and  N_21
REMARK    6  A    between atoms: C_5  and  N_6
REMARK    7  A    between atoms: C_7  and  C_9
REMARK    8  A    between atoms: C_9  and  C_10
REMARK    9  A    between atoms: C_24  and  O_25
REMARK   10  A    between atoms: C_24  and  C_26
REMARK                            x       y       z     vdW  Elec       q    Type
REMARK                         _______ _______ _______ _____ _____    ______ ____
ROOT
ATOM      1  C   UNL     1       1.896   6.669  20.560  0.00  0.00    +0.000 C 
ENDROOT
BRANCH   1   2
ATOM      2  N   UNL     1       1.766   7.938  19.869  0.00  0.00    +0.000 N 
ATOM      3  C   UNL     1       0.852   8.897  20.264  0.00  0.00    +0.000 C 
ATOM      4  O   UNL     1       0.123   8.752  21.241  0.00  0.00    +0.000 OA
ATOM      5  H   UNL     1       2.514   8.214  19.247  0.00  0.00    +0.000 HD
BRANCH   3   6
ATOM      6  C   UNL     1       0.820  10.174  19.385  0.00  0.00    +0.000 C 
ATOM      7  C   UNL     1       1.421  11.386  20.135  0.00  0.00    +0.000 C 
ATOM      8  C   UNL     1       1.927  12.333  19.059  0.00  0.00    +0.000 C 
ATOM      9  C   UNL     1       2.323  11.439  17.893  0.00  0.00    +0.000 C 
ATOM     10  C   UNL     1       1.878  10.019  18.262  0.00  0.00    +0.000 C 
BRANCH   6  11
ATOM     11  C   UNL     1      -0.591  10.400  18.812  0.00  0.00    +0.000 A 
ATOM     12  C   UNL     1      -1.506  11.287  19.401  0.00  0.00    +0.000 A 
ATOM     13  C   UNL     1      -2.774  11.506  18.853  0.00  0.00    +0.000 A 
ATOM     14  C   UNL     1      -3.157  10.824  17.705  0.00  0.00    +0.000 A 
ATOM     15 CL   UNL     1      -4.715  11.103  17.033  0.00  0.00    +0.000 Cl
ATOM     16  C   UNL     1      -2.283   9.926  17.105  0.00  0.00    +0.000 A 
ATOM     17  C   UNL     1      -1.011   9.710  17.654  0.00  0.00    +0.000 A 
ENDBRANCH   6  11
ENDBRANCH   3   6
ENDBRANCH   1   2
BRANCH   1  18
ATOM     18  C   UNL     1       1.760   5.381  19.663  0.00  0.00    +0.000 C 
BRANCH  18  19
ATOM     19  N   UNL     1       3.083   5.019  19.027  0.00  0.00    +0.000 NA
ATOM     20  C   UNL     1       4.203   5.821  19.559  0.00  0.00    +0.000 C 
ATOM     21  C   UNL     1       5.544   5.347  19.002  0.00  0.00    +0.000 C 
ATOM     22  C   UNL     1       5.586   5.432  17.478  0.00  0.00    +0.000 C 
ATOM     23  C   UNL     1       4.366   4.716  16.902  0.00  0.00    +0.000 C 
ATOM     24  C   UNL     1       3.058   5.169  17.555  0.00  0.00    +0.000 C 
BRANCH  22  25
ATOM     25  C   UNL     1       6.901   4.807  16.933  0.00  0.00    +0.000 C 
ATOM     26  F   UNL     1       6.665   3.795  16.065  0.00  0.00    +0.000 F 
ATOM     27  F   UNL     1       7.693   5.702  16.305  0.00  0.00    +0.000 F 
ATOM     28  F   UNL     1       7.625   4.273  17.950  0.00  0.00    +0.000 F 
ENDBRANCH  22  25
BRANCH  22  29
ATOM     29  O   UNL     1       5.472   6.835  17.124  0.00  0.00    +0.000 OA
ATOM     30  H   UNL     1       4.890   6.897  16.344  0.00  0.00    +0.000 HD
ENDBRANCH  22  29
ENDBRANCH  18  19
BRANCH  18  32
ATOM     31  C   UNL     1       0.719   2.985  19.534  0.00  0.00    +0.000 C 
ATOM     32  C   UNL     1       1.137   4.150  20.435  0.00  0.00    +0.000 C 
ATOM     33  C   UNL     1       2.017   3.612  21.560  0.00  0.00    +0.000 C 
ENDBRANCH  18  32
ENDBRANCH   1  18
TORSDOF 8
ENDMDL
MODEL 3
REMARK VINA RESULT:      -8.2      5.188      8.894
REMARK  Name = 
REMARK  10 active torsions:
REMARK  status: ('A' for Active; 'I' for Inactive)
REMARK    1  A    between atoms: C_1  and  C_2
REMARK    2  A    between atoms: C_2  and  C_3
REMARK    3  A    between atoms: C_2  and  C_4
REMARK    4  A    between atoms: C_4  and  C_5
REMARK    5  A    between atoms: C_4  and  N_21
REMARK    6  A    between atoms: C_5  and  N_6
REMARK    7  A    between atoms: C_7  and  C_9
REMARK    8  A    between atoms: C_9  and  C_10
REMARK    9  A    between atoms: C_24  and  O_25
REMARK   10  A    between atoms: C_24  and  C_26
REMARK                            x       y       z     vdW  Elec       q    Type
REMARK                         _______ _______ _______ _____ _____    ______ ____
ROOT
ATOM      1  C   UNL     1       1.714   9.567  19.560  0.00  0.00    +0.000 C 
ENDROOT
BRANCH   1   2
ATOM      2  N   UNL     1       1.963   8.140  19.655  0.00  0.00    +0.000 N 
ATOM      3  C   UNL     1       2.270   7.376  18.545  0.00  0.00    +0.000 C 
ATOM      4  O   UNL     1       2.391   7.858  17.423  0.00  0.00    +0.000 OA
ATOM      5  H   UNL     1       2.144   7.754  20.571  0.00  0.00    +0.000 HD
BRANCH   3   6
ATOM      6  C   UNL     1       2.461   5.863  18.823  0.00  0.00    +0.000 C 
ATOM      7  C   UNL     1       1.954   5.483  20.235  0.00  0.00    +0.000 C 
ATOM      8  C   UNL     1       1.584   4.010  20.163  0.00  0.00    +0.000 C 
ATOM      9  C   UNL     1       1.148   3.776  18.724  0.00  0.00    +0.000 C 
ATOM     10  C   UNL     1       1.437   5.076  17.964  0.00  0.00    +0.000 C 
BRANCH   6  11
ATOM     11  C   UNL     1       3.908   5.436  18.517  0.00  0.00    +0.000 A 
ATOM     12  C   UNL     1       4.284   4.898  17.275  0.00  0.00    +0.000 A 
ATOM     13  C   UNL     1       5.607   4.542  16.998  0.00  0.00    +0.000 A 
ATOM     14  C   UNL     1       6.584   4.706  17.973  0.00  0.00    +0.000 A 
ATOM     15 CL   UNL     1       8.211   4.271  17.623  0.00  0.00    +0.000 Cl
ATOM     16  C   UNL     1       6.245   5.218  19.218  0.00  0.00    +0.000 A 
ATOM     17  C   UNL     1       4.918   5.578  19.493  0.00  0.00    +0.000 A 
ENDBRANCH   6  11
ENDBRANCH   3   6
ENDBRANCH   1   2
BRANCH   1  18
ATOM     18  C   UNL     1       0.530  10.119  20.440  0.00  0.00    +0.000 C 
BRANCH  18  19
ATOM     19  N   UNL     1      -0.730  10.280  19.619  0.00  0.00    +0.000 NA
ATOM     20  C   UNL     1      -0.512   9.982  18.189  0.00  0.00    +0.000 C 
ATOM     21  C   UNL     1      -1.822  10.019  17.405  0.00  0.00    +0.000 C 
ATOM     22  C   UNL     1      -2.504  11.382  17.504  0.00  0.00    +0.000 C 
ATOM     23  C   UNL     1      -2.627  11.775  18.975  0.00  0.00    +0.000 C 
ATOM     24  C   UNL     1      -1.304  11.639  19.732  0.00  0.00    +0.000 C 
BRANCH  22  25
ATOM     25  C   UNL     1      -3.901  11.345  16.823  0.00  0.00    +0.000 C 
ATOM     26  F   UNL     1      -4.513  10.148  16.977  0.00  0.00    +0.000 F 
ATOM     27  F   UNL     1      -4.742  12.292  17.288  0.00  0.00    +0.000 F 
ATOM     28  F   UNL     1      -3.777  11.539  15.485  0.00  0.00    +0.000 F 
ENDBRANCH  22  25
BRANCH  22  29
ATOM     29  O   UNL     1      -1.623  12.348  16.872  0.00  0.00    +0.000 OA
ATOM     30  H   UNL     1      -1.808  12.332  15.914  0.00  0.00    +0.000 HD
ENDBRANCH  22  29
ENDBRANCH  18  19
BRANCH  18  32
ATOM     31  C   UNL     1      -0.281  10.051  22.926  0.00  0.00    +0.000 C 
ATOM     32  C   UNL     1       0.264   9.255  21.737  0.00  0.00    +0.000 C 
ATOM     33  C   UNL     1      -0.631   8.042  21.503  0.00  0.00    +0.000 C 
ENDBRANCH  18  32
ENDBRANCH   1  18
TORSDOF 8
ENDMDL
MODEL 4
REMARK VINA RESULT:      -8.2      0.555      1.027
REMARK  Name = 
REMARK  10 active torsions:
REMARK  status: ('A' for Active; 'I' for Inactive)
REMARK    1  A    between atoms: C_1  and  C_2
REMARK    2  A    between atoms: C_2  and  C_3
REMARK    3  A    between atoms: C_2  and  C_4
REMARK    4  A    between atoms: C_4  and  C_5
REMARK    5  A    between atoms: C_4  and  N_21
REMARK    6  A    between atoms: C_5  and  N_6
REMARK    7  A    between atoms: C_7  and  C_9
REMARK    8  A    between atoms: C_9  and  C_10
REMARK    9  A    between atoms: C_24  and  O_25
REMARK   10  A    between atoms: C_24  and  C_26
REMARK                            x       y       z     vdW  Elec       q    Type
REMARK                         _______ _______ _______ _____ _____    ______ ____
ROOT
ATOM      1  C   UNL     1       1.846   6.745  20.349  0.00  0.00    +0.000 C 
ENDROOT
BRANCH   1   2
ATOM      2  N   UNL     1       1.717   8.053  19.737  0.00  0.00    +0.000 N 
ATOM      3  C   UNL     1       0.786   8.977  20.172  0.00  0.00    +0.000 C 
ATOM      4  O   UNL     1       0.041   8.766  21.124  0.00  0.00    +0.000 OA
ATOM      5  H   UNL     1       2.474   8.374  19.147  0.00  0.00    +0.000 HD
BRANCH   3   6
ATOM      6  C   UNL     1       0.759  10.307  19.375  0.00  0.00    +0.000 C 
ATOM      7  C   UNL     1       1.279  11.486  20.231  0.00  0.00    +0.000 C 
ATOM      8  C   UNL     1       1.810  12.514  19.245  0.00  0.00    +0.000 C 
ATOM      9  C   UNL     1       2.296  11.709  18.048  0.00  0.00    +0.000 C 
ATOM     10  C   UNL     1       1.879  10.255  18.303  0.00  0.00    +0.000 C 
BRANCH   6  11
ATOM     11  C   UNL     1      -0.627  10.527  18.741  0.00  0.00    +0.000 A 
ATOM     12  C   UNL     1      -1.035   9.850  17.580  0.00  0.00    +0.000 A 
ATOM     13  C   UNL     1      -2.307  10.036  17.031  0.00  0.00    +0.000 A 
ATOM     14  C   UNL     1      -3.195  10.921  17.629  0.00  0.00    +0.000 A 
ATOM     15 CL   UNL     1      -4.760  11.140  16.951  0.00  0.00    +0.000 Cl
ATOM     16  C   UNL     1      -2.818  11.621  18.769  0.00  0.00    +0.000 A 
ATOM     17  C   UNL     1      -1.543  11.430  19.320  0.00  0.00    +0.000 A 
ENDBRANCH   6  11
ENDBRANCH   3   6
ENDBRANCH   1   2
BRANCH   1  18
ATOM     18  C   UNL     1       1.936   5.525  19.355  0.00  0.00    +0.000 C 
BRANCH  18  19
ATOM     19  N   UNL     1       3.186   5.605  18.508  0.00  0.00    +0.000 NA
ATOM     20  C   UNL     1       3.398   4.389  17.698  0.00  0.00    +0.000 C 
ATOM     21  C   UNL     1       4.587   4.546  16.752  0.00  0.00    +0.000 C 
ATOM     22  C   UNL     1       5.879   4.838  17.511  0.00  0.00    +0.000 C 
ATOM     23  C   UNL     1       5.651   6.017  18.455  0.00  0.00    +0.000 C 
ATOM     24  C   UNL     1       4.400   5.845  19.319  0.00  0.00    +0.000 C 
BRANCH  22  25
ATOM     25  C   UNL     1       7.039   5.139  16.520  0.00  0.00    +0.000 C 
ATOM     26  F   UNL     1       7.445   6.429  16.586  0.00  0.00    +0.000 F 
ATOM     27  F   UNL     1       8.123   4.362  16.722  0.00  0.00    +0.000 F 
ATOM     28  F   UNL     1       6.629   4.935  15.242  0.00  0.00    +0.000 F 
ENDBRANCH  22  25
BRANCH  22  29
ATOM     29  O   UNL     1       6.164   3.675  18.333  0.00  0.00    +0.000 OA
ATOM     30  H   UNL     1       5.399   3.074  18.269  0.00  0.00    +0.000 HD
ENDBRANCH  22  29
ENDBRANCH  18  19
BRANCH  18  32
ATOM     31  C   UNL     1       2.145   4.155  21.573  0.00  0.00    +0.000 C 
ATOM     32  C   UNL     1       1.821   4.124  20.078  0.00  0.00    +0.000 C 
ATOM     33  C   UNL     1       0.475   3.432  19.879  0.00  0.00    +0.000 C 
ENDBRANCH  18  32
ENDBRANCH   1  18
TORSDOF 8
ENDMDL
MODEL 5
REMARK VINA RESULT:      -8.1      1.924      3.004
REMARK  Name = 
REMARK  10 active torsions:
REMARK  status: ('A' for Active; 'I' for Inactive)
REMARK    1  A    between atoms: C_1  and  C_2
REMARK    2  A    between atoms: C_2  and  C_3
REMARK    3  A    between atoms: C_2  and  C_4
REMARK    4  A    between atoms: C_4  and  C_5
REMARK    5  A    between atoms: C_4  and  N_21
REMARK    6  A    between atoms: C_5  and  N_6
REMARK    7  A    between atoms: C_7  and  C_9
REMARK    8  A    between atoms: C_9  and  C_10
REMARK    9  A    between atoms: C_24  and  O_25
REMARK   10  A    between atoms: C_24  and  C_26
REMARK                            x       y       z     vdW  Elec       q    Type
REMARK                         _______ _______ _______ _____ _____    ______ ____
ROOT
ATOM      1  C   UNL     1       2.757   5.704  20.338  0.00  0.00    +0.000 C 
ENDROOT
BRANCH   1   2
ATOM      2  N   UNL     1       1.894   6.714  20.922  0.00  0.00    +0.000 N 
ATOM      3  C   UNL     1       1.677   7.934  20.311  0.00  0.00    +0.000 C 
ATOM      4  O   UNL     1       2.166   8.225  19.223  0.00  0.00    +0.000 OA
ATOM      5  H   UNL     1       1.264   6.426  21.659  0.00  0.00    +0.000 HD
BRANCH   3   6
ATOM      6  C   UNL     1       0.761   8.908  21.096  0.00  0.00    +0.000 C 
ATOM      7  C   UNL     1      -0.513   8.193  21.605  0.00  0.00    +0.000 C 
ATOM      8  C   UNL     1      -0.970   8.974  22.827  0.00  0.00    +0.000 C 
ATOM      9  C   UNL     1       0.303   9.546  23.435  0.00  0.00    +0.000 C 
ATOM     10  C   UNL     1       1.438   9.222  22.456  0.00  0.00    +0.000 C 
BRANCH   6  11
ATOM     11  C   UNL     1       0.506  10.187  20.279  0.00  0.00    +0.000 A 
ATOM     12  C   UNL     1      -0.491  10.259  19.292  0.00  0.00    +0.000 A 
ATOM     13  C   UNL     1      -0.733  11.436  18.577  0.00  0.00    +0.000 A 
ATOM     14  C   UNL     1       0.034  12.567  18.829  0.00  0.00    +0.000 A 
ATOM     15 CL   UNL     1      -0.274  14.013  17.950  0.00  0.00    +0.000 Cl
ATOM     16  C   UNL     1       1.040  12.526  19.786  0.00  0.00    +0.000 A 
ATOM     17  C   UNL     1       1.279  11.346  20.505  0.00  0.00    +0.000 A 
ENDBRANCH   6  11
ENDBRANCH   3   6
ENDBRANCH   1   2
BRANCH   1  18
ATOM     18  C   UNL     1       2.115   4.825  19.199  0.00  0.00    +0.000 C 
BRANCH  18  19
ATOM     19  N   UNL     1       3.008   4.778  17.980  0.00  0.00    +0.000 NA
ATOM     20  C   UNL     1       3.680   3.472  17.822  0.00  0.00    +0.000 C 
ATOM     21  C   UNL     1       4.467   3.402  16.516  0.00  0.00    +0.000 C 
ATOM     22  C   UNL     1       5.534   4.492  16.438  0.00  0.00    +0.000 C 
ATOM     23  C   UNL     1       4.888   5.847  16.724  0.00  0.00    +0.000 C 
ATOM     24  C   UNL     1       4.043   5.836  18.000  0.00  0.00    +0.000 C 
BRANCH  22  25
ATOM     25  C   UNL     1       6.217   4.490  15.041  0.00  0.00    +0.000 C 
ATOM     26  F   UNL     1       5.554   5.261  14.147  0.00  0.00    +0.000 F 
ATOM     27  F   UNL     1       7.496   4.919  15.076  0.00  0.00    +0.000 F 
ATOM     28  F   UNL     1       6.227   3.234  14.526  0.00  0.00    +0.000 F 
ENDBRANCH  22  25
BRANCH  22  29
ATOM     29  O   UNL     1       6.487   4.234  17.502  0.00  0.00    +0.000 OA
ATOM     30  H   UNL     1       7.342   4.017  17.086  0.00  0.00    +0.000 HD
ENDBRANCH  22  29
ENDBRANCH  18  19
BRANCH  18  32
ATOM     31  C   UNL     1       1.560   3.231  21.197  0.00  0.00    +0.000 C 
ATOM     32  C   UNL     1       1.724   3.372  19.681  0.00  0.00    +0.000 C 
ATOM     33  C   UNL     1       0.485   2.802  18.996  0.00  0.00    +0.000 C 
ENDBRANCH  18  32
ENDBRANCH   1  18
TORSDOF 8
ENDMDL
MODEL 6
REMARK VINA RESULT:      -8.1      0.465      1.217
REMARK  Name = 
REMARK  10 active torsions:
REMARK  status: ('A' for Active; 'I' for Inactive)
REMARK    1  A    between atoms: C_1  and  C_2
REMARK    2  A    between atoms: C_2  and  C_3
REMARK    3  A    between atoms: C_2  and  C_4
REMARK    4  A    between atoms: C_4  and  C_5
REMARK    5  A    between atoms: C_4  and  N_21
REMARK    6  A    between atoms: C_5  and  N_6
REMARK    7  A    between atoms: C_7  and  C_9
REMARK    8  A    between atoms: C_9  and  C_10
REMARK    9  A    between atoms: C_24  and  O_25
REMARK   10  A    between atoms: C_24  and  C_26
REMARK                            x       y       z     vdW  Elec       q    Type
REMARK                         _______ _______ _______ _____ _____    ______ ____
ROOT
ATOM      1  C   UNL     1       1.930   6.805  20.148  0.00  0.00    +0.000 C 
ENDROOT
BRANCH   1   2
ATOM      2  N   UNL     1       1.766   8.145  19.617  0.00  0.00    +0.000 N 
ATOM      3  C   UNL     1       0.870   9.044  20.165  0.00  0.00    +0.000 C 
ATOM      4  O   UNL     1       0.190   8.782  21.152  0.00  0.00    +0.000 OA
ATOM      5  H   UNL     1       2.481   8.496  18.996  0.00  0.00    +0.000 HD
BRANCH   3   6
ATOM      6  C   UNL     1       0.793  10.415  19.444  0.00  0.00    +0.000 C 
ATOM      7  C   UNL     1       1.291  11.559  20.359  0.00  0.00    +0.000 C 
ATOM      8  C   UNL     1       1.779  12.656  19.427  0.00  0.00    +0.000 C 
ATOM      9  C   UNL     1       2.272  11.934  18.181  0.00  0.00    +0.000 C 
ATOM     10  C   UNL     1       1.901  10.457  18.359  0.00  0.00    +0.000 C 
BRANCH   6  11
ATOM     11  C   UNL     1      -0.606  10.629  18.839  0.00  0.00    +0.000 A 
ATOM     12  C   UNL     1      -1.046   9.931  17.703  0.00  0.00    +0.000 A 
ATOM     13  C   UNL     1      -2.330  10.112  17.181  0.00  0.00    +0.000 A 
ATOM     14  C   UNL     1      -3.199  11.014  17.783  0.00  0.00    +0.000 A 
ATOM     15 CL   UNL     1      -4.779  11.227  17.138  0.00  0.00    +0.000 Cl
ATOM     16  C   UNL     1      -2.790  11.734  18.898  0.00  0.00    +0.000 A 
ATOM     17  C   UNL     1      -1.504  11.548  19.422  0.00  0.00    +0.000 A 
ENDBRANCH   6  11
ENDBRANCH   3   6
ENDBRANCH   1   2
BRANCH   1  18
ATOM     18  C   UNL     1       2.157   5.665  19.083  0.00  0.00    +0.000 C 
BRANCH  18  19
ATOM     19  N   UNL     1       3.576   5.681  18.563  0.00  0.00    +0.000 NA
ATOM     20  C   UNL     1       3.640   5.560  17.093  0.00  0.00    +0.000 C 
ATOM     21  C   UNL     1       5.070   5.714  16.580  0.00  0.00    +0.000 C 
ATOM     22  C   UNL     1       6.002   4.663  17.179  0.00  0.00    +0.000 C 
ATOM     23  C   UNL     1       5.862   4.678  18.701  0.00  0.00    +0.000 C 
ATOM     24  C   UNL     1       4.403   4.607  19.157  0.00  0.00    +0.000 C 
BRANCH  22  25
ATOM     25  C   UNL     1       7.474   4.934  16.757  0.00  0.00    +0.000 C 
ATOM     26  F   UNL     1       7.718   4.555  15.481  0.00  0.00    +0.000 F 
ATOM     27  F   UNL     1       7.827   6.232  16.868  0.00  0.00    +0.000 F 
ATOM     28  F   UNL     1       8.325   4.218  17.535  0.00  0.00    +0.000 F 
ENDBRANCH  22  25
BRANCH  22  29
ATOM     29  O   UNL     1       5.541   3.367  16.715  0.00  0.00    +0.000 OA
ATOM     30  H   UNL     1       5.472   2.782  17.493  0.00  0.00    +0.000 HD
ENDBRANCH  22  29
ENDBRANCH  18  19
BRANCH  18  32
ATOM     31  C   UNL     1       0.957   4.240  20.919  0.00  0.00    +0.000 C 
ATOM     32  C   UNL     1       1.753   4.232  19.612  0.00  0.00    +0.000 C 
ATOM     33  C   UNL     1       1.011   3.378  18.588  0.00  0.00    +0.000 C 
ENDBRANCH  18  32
ENDBRANCH   1  18
TORSDOF 8
ENDMDL
MODEL 7
REMARK VINA RESULT:      -8.0      0.880      1.269
REMARK  Name = 
REMARK  10 active torsions:
REMARK  status: ('A' for Active; 'I' for Inactive)
REMARK    1  A    between atoms: C_1  and  C_2
REMARK    2  A    between atoms: C_2  and  C_3
REMARK    3  A    between atoms: C_2  and  C_4
REMARK    4  A    between atoms: C_4  and  C_5
REMARK    5  A    between atoms: C_4  and  N_21
REMARK    6  A    between atoms: C_5  and  N_6
REMARK    7  A    between atoms: C_7  and  C_9
REMARK    8  A    between atoms: C_9  and  C_10
REMARK    9  A    between atoms: C_24  and  O_25
REMARK   10  A    between atoms: C_24  and  C_26
REMARK                            x       y       z     vdW  Elec       q    Type
REMARK                         _______ _______ _______ _____ _____    ______ ____
ROOT
ATOM      1  C   UNL     1       2.236   6.754  20.127  0.00  0.00    +0.000 C 
ENDROOT
BRANCH   1   2
ATOM      2  N   UNL     1       2.015   8.060  19.534  0.00  0.00    +0.000 N 
ATOM      3  C   UNL     1       1.079   8.944  20.038  0.00  0.00    +0.000 C 
ATOM      4  O   UNL     1       0.409   8.699  21.036  0.00  0.00    +0.000 OA
ATOM      5  H   UNL     1       2.716   8.412  18.897  0.00  0.00    +0.000 HD
BRANCH   3   6
ATOM      6  C   UNL     1       0.945  10.275  19.254  0.00  0.00    +0.000 C 
ATOM      7  C   UNL     1       1.477  11.469  20.080  0.00  0.00    +0.000 C 
ATOM      8  C   UNL     1       1.899  12.522  19.068  0.00  0.00    +0.000 C 
ATOM      9  C   UNL     1       2.332  11.742  17.835  0.00  0.00    +0.000 C 
ATOM     10  C   UNL     1       1.990  10.272  18.108  0.00  0.00    +0.000 C 
BRANCH   6  11
ATOM     11  C   UNL     1      -0.488  10.443  18.718  0.00  0.00    +0.000 A 
ATOM     12  C   UNL     1      -1.422  11.294  19.331  0.00  0.00    +0.000 A 
ATOM     13  C   UNL     1      -2.711  11.462  18.816  0.00  0.00    +0.000 A 
ATOM     14  C   UNL     1      -3.096  10.764  17.678  0.00  0.00    +0.000 A 
ATOM     15 CL   UNL     1      -4.682  10.980  17.047  0.00  0.00    +0.000 Cl
ATOM     16  C   UNL     1      -2.203   9.901  17.056  0.00  0.00    +0.000 A 
ATOM     17  C   UNL     1      -0.909   9.737  17.571  0.00  0.00    +0.000 A 
ENDBRANCH   6  11
ENDBRANCH   3   6
ENDBRANCH   1   2
BRANCH   1  18
ATOM     18  C   UNL     1       1.948   5.517  19.194  0.00  0.00    +0.000 C 
BRANCH  18  19
ATOM     19  N   UNL     1       2.974   5.419  18.088  0.00  0.00    +0.000 NA
ATOM     20  C   UNL     1       3.214   4.025  17.663  0.00  0.00    +0.000 C 
ATOM     21  C   UNL     1       4.149   3.961  16.457  0.00  0.00    +0.000 C 
ATOM     22  C   UNL     1       5.503   4.602  16.756  0.00  0.00    +0.000 C 
ATOM     23  C   UNL     1       5.279   6.005  17.319  0.00  0.00    +0.000 C 
ATOM     24  C   UNL     1       4.270   6.022  18.470  0.00  0.00    +0.000 C 
BRANCH  22  25
ATOM     25  C   UNL     1       6.377   4.656  15.471  0.00  0.00    +0.000 C 
ATOM     26  F   UNL     1       6.300   3.511  14.752  0.00  0.00    +0.000 F 
ATOM     27  F   UNL     1       6.048   5.674  14.648  0.00  0.00    +0.000 F 
ATOM     28  F   UNL     1       7.685   4.810  15.799  0.00  0.00    +0.000 F 
ENDBRANCH  22  25
BRANCH  22  29
ATOM     29  O   UNL     1       6.130   3.812  17.800  0.00  0.00    +0.000 OA
ATOM     30  H   UNL     1       5.893   4.213  18.657  0.00  0.00    +0.000 HD
ENDBRANCH  22  29
ENDBRANCH  18  19
BRANCH  18  32
ATOM     31  C   UNL     1       2.247   4.240  21.457  0.00  0.00    +0.000 C 
ATOM     32  C   UNL     1       1.826   4.156  19.988  0.00  0.00    +0.000 C 
ATOM     33  C   UNL     1       0.446   3.510  19.907  0.00  0.00    +0.000 C 
ENDBRANCH  18  32
ENDBRANCH   1  18
TORSDOF 8
ENDMDL
MODEL 8
REMARK VINA RESULT:      -7.9      2.139      3.425
REMARK  Name = 
REMARK  10 active torsions:
REMARK  status: ('A' for Active; 'I' for Inactive)
REMARK    1  A    between atoms: C_1  and  C_2
REMARK    2  A    between atoms: C_2  and  C_3
REMARK    3  A    between atoms: C_2  and  C_4
REMARK    4  A    between atoms: C_4  and  C_5
REMARK    5  A    between atoms: C_4  and  N_21
REMARK    6  A    between atoms: C_5  and  N_6
REMARK    7  A    between atoms: C_7  and  C_9
REMARK    8  A    between atoms: C_9  and  C_10
REMARK    9  A    between atoms: C_24  and  O_25
REMARK   10  A    between atoms: C_24  and  C_26
REMARK                            x       y       z     vdW  Elec       q    Type
REMARK                         _______ _______ _______ _____ _____    ______ ____
ROOT
ATOM      1  C   UNL     1       2.390   6.885  19.722  0.00  0.00    +0.000 C 
ENDROOT
BRANCH   1   2
ATOM      2  N   UNL     1       1.691   8.060  19.237  0.00  0.00    +0.000 N 
ATOM      3  C   UNL     1       1.221   9.037  20.095  0.00  0.00    +0.000 C 
ATOM      4  O   UNL     1       1.398   8.993  21.308  0.00  0.00    +0.000 OA
ATOM      5  H   UNL     1       1.762   8.277  18.253  0.00  0.00    +0.000 HD
BRANCH   3   6
ATOM      6  C   UNL     1       0.460  10.201  19.409  0.00  0.00    +0.000 C 
ATOM      7  C   UNL     1      -0.084   9.777  18.024  0.00  0.00    +0.000 C 
ATOM      8  C   UNL     1      -1.283  10.672  17.755  0.00  0.00    +0.000 C 
ATOM      9  C   UNL     1      -1.860  10.992  19.127  0.00  0.00    +0.000 C 
ATOM     10  C   UNL     1      -0.882  10.413  20.157  0.00  0.00    +0.000 C 
BRANCH   6  11
ATOM     11  C   UNL     1       1.318  11.479  19.406  0.00  0.00    +0.000 A 
ATOM     12  C   UNL     1       2.095  11.858  18.299  0.00  0.00    +0.000 A 
ATOM     13  C   UNL     1       2.846  13.037  18.297  0.00  0.00    +0.000 A 
ATOM     14  C   UNL     1       2.844  13.858  19.418  0.00  0.00    +0.000 A 
ATOM     15 CL   UNL     1       3.766  15.310  19.406  0.00  0.00    +0.000 Cl
ATOM     16  C   UNL     1       2.101  13.506  20.537  0.00  0.00    +0.000 A 
ATOM     17  C   UNL     1       1.346  12.324  20.536  0.00  0.00    +0.000 A 
ENDBRANCH   6  11
ENDBRANCH   3   6
ENDBRANCH   1   2
BRANCH   1  18
ATOM     18  C   UNL     1       2.110   5.546  18.939  0.00  0.00    +0.000 C 
BRANCH  18  19
ATOM     19  N   UNL     1       3.106   5.354  17.817  0.00  0.00    +0.000 NA
ATOM     20  C   UNL     1       3.513   3.943  17.660  0.00  0.00    +0.000 C 
ATOM     21  C   UNL     1       4.411   3.752  16.440  0.00  0.00    +0.000 C 
ATOM     22  C   UNL     1       5.678   4.601  16.531  0.00  0.00    +0.000 C 
ATOM     23  C   UNL     1       5.290   6.050  16.821  0.00  0.00    +0.000 C 
ATOM     24  C   UNL     1       4.324   6.174  18.000  0.00  0.00    +0.000 C 
BRANCH  22  25
ATOM     25  C   UNL     1       6.497   4.501  15.213  0.00  0.00    +0.000 C 
ATOM     26  F   UNL     1       6.190   5.492  14.344  0.00  0.00    +0.000 F 
ATOM     27  F   UNL     1       7.831   4.539  15.415  0.00  0.00    +0.000 F 
ATOM     28  F   UNL     1       6.220   3.336  14.574  0.00  0.00    +0.000 F 
ENDBRANCH  22  25
BRANCH  22  29
ATOM     29  O   UNL     1       6.434   4.118  17.672  0.00  0.00    +0.000 OA
ATOM     30  H   UNL     1       7.250   4.650  17.732  0.00  0.00    +0.000 HD
ENDBRANCH  22  29
ENDBRANCH  18  19
BRANCH  18  32
ATOM     31  C   UNL     1       2.370   4.563  21.348  0.00  0.00    +0.000 C 
ATOM     32  C   UNL     1       2.051   4.277  19.879  0.00  0.00    +0.000 C 
ATOM     33  C   UNL     1       0.735   3.508  19.801  0.00  0.00    +0.000 C 
ENDBRANCH  18  32
ENDBRANCH   1  18
TORSDOF 8
ENDMDL
MODEL 9
REMARK VINA RESULT:      -7.8      2.939      4.342
REMARK  Name = 
REMARK  10 active torsions:
REMARK  status: ('A' for Active; 'I' for Inactive)
REMARK    1  A    between atoms: C_1  and  C_2
REMARK    2  A    between atoms: C_2  and  C_3
REMARK    3  A    between atoms: C_2  and  C_4
REMARK    4  A    between atoms: C_4  and  C_5
REMARK    5  A    between atoms: C_4  and  N_21
REMARK    6  A    between atoms: C_5  and  N_6
REMARK    7  A    between atoms: C_7  and  C_9
REMARK    8  A    between atoms: C_9  and  C_10
REMARK    9  A    between atoms: C_24  and  O_25
REMARK   10  A    between atoms: C_24  and  C_26
REMARK                            x       y       z     vdW  Elec       q    Type
REMARK                         _______ _______ _______ _____ _____    ______ ____
ROOT
ATOM      1  C   UNL     1       3.273   8.079  17.223  0.00  0.00    +0.000 C 
ENDROOT
BRANCH   1   2
ATOM      2  N   UNL     1       2.216   8.448  18.147  0.00  0.00    +0.000 N 
ATOM      3  C   UNL     1       1.765   9.750  18.259  0.00  0.00    +0.000 C 
ATOM      4  O   UNL     1       2.198  10.662  17.562  0.00  0.00    +0.000 OA
ATOM      5  H   UNL     1       1.649   7.707  18.534  0.00  0.00    +0.000 HD
BRANCH   3   6
ATOM      6  C   UNL     1       0.662   9.972  19.326  0.00  0.00    +0.000 C 
ATOM      7  C   UNL     1       0.573   8.773  20.299  0.00  0.00    +0.000 C 
ATOM      8  C   UNL     1      -0.004   9.327  21.592  0.00  0.00    +0.000 C 
ATOM      9  C   UNL     1       0.461  10.775  21.650  0.00  0.00    +0.000 C 
ATOM     10  C   UNL     1       1.151  11.065  20.311  0.00  0.00    +0.000 C 
BRANCH   6  11
ATOM     11  C   UNL     1      -0.667  10.363  18.655  0.00  0.00    +0.000 A 
ATOM     12  C   UNL     1      -1.204   9.640  17.576  0.00  0.00    +0.000 A 
ATOM     13  C   UNL     1      -2.427   9.988  16.995  0.00  0.00    +0.000 A 
ATOM     14  C   UNL     1      -3.134  11.082  17.477  0.00  0.00    +0.000 A 
ATOM     15 CL   UNL     1      -4.641  11.500  16.761  0.00  0.00    +0.000 Cl
ATOM     16  C   UNL     1      -2.625  11.830  18.531  0.00  0.00    +0.000 A 
ATOM     17  C   UNL     1      -1.400  11.478  19.115  0.00  0.00    +0.000 A 
ENDBRANCH   6  11
ENDBRANCH   3   6
ENDBRANCH   1   2
BRANCH   1  18
ATOM     18  C   UNL     1       4.347   7.067  17.777  0.00  0.00    +0.000 C 
BRANCH  18  19
ATOM     19  N   UNL     1       3.715   5.741  18.133  0.00  0.00    +0.000 NA
ATOM     20  C   UNL     1       2.264   5.717  17.859  0.00  0.00    +0.000 C 
ATOM     21  C   UNL     1       1.673   4.329  18.098  0.00  0.00    +0.000 C 
ATOM     22  C   UNL     1       1.888   3.862  19.536  0.00  0.00    +0.000 C 
ATOM     23  C   UNL     1       3.368   3.998  19.891  0.00  0.00    +0.000 C 
ATOM     24  C   UNL     1       3.929   5.381  19.552  0.00  0.00    +0.000 C 
BRANCH  22  25
ATOM     25  C   UNL     1       1.410   2.393  19.710  0.00  0.00    +0.000 C 
ATOM     26  F   UNL     1       0.177   2.191  19.190  0.00  0.00    +0.000 F 
ATOM     27  F   UNL     1       2.241   1.495  19.141  0.00  0.00    +0.000 F 
ATOM     28  F   UNL     1       1.322   2.081  21.029  0.00  0.00    +0.000 F 
ENDBRANCH  22  25
BRANCH  22  29
ATOM     29  O   UNL     1       1.153   4.772  20.396  0.00  0.00    +0.000 OA
ATOM     30  H   UNL     1       1.158   4.396  21.296  0.00  0.00    +0.000 HD
ENDBRANCH  22  29
ENDBRANCH  18  19
BRANCH  18  32
ATOM     31  C   UNL     1       6.942   6.903  17.496  0.00  0.00    +0.000 C 
ATOM     32  C   UNL     1       5.578   6.874  16.803  0.00  0.00    +0.000 C 
ATOM     33  C   UNL     1       5.492   5.623  15.934  0.00  0.00    +0.000 C 
ENDBRANCH  18  32
ENDBRANCH   1  18
TORSDOF 8
ENDMDL
