MODEL 1
REMARK VINA RESULT:      -7.4      0.000      0.000
REMARK  Name = 
REMARK  4 active torsions:
REMARK  status: ('A' for Active; 'I' for Inactive)
REMARK    1  A    between atoms: C_1  and  C_2
REMARK    2  A    between atoms: C_2  and  N_3
REMARK    3  A    between atoms: C_5  and  C_6
REMARK    4  A    between atoms: C_14  and  N_15
REMARK                            x       y       z     vdW  Elec       q    Type
REMARK                         _______ _______ _______ _____ _____    ______ ____
ROOT
ATOM      1  N   UNL     1       2.890   5.178  19.791  0.00  0.00    +0.000 N 
ATOM      2  C   UNL     1       3.658   4.466  18.878  0.00  0.00    +0.000 A 
ATOM      3  C   UNL     1       4.171   4.943  17.735  0.00  0.00    +0.000 A 
ATOM      4  C   UNL     1       3.912   6.356  17.408  0.00  0.00    +0.000 A 
ATOM      5  O   UNL     1       4.409   6.878  16.416  0.00  0.00    +0.000 OA
ATOM      6  C   UNL     1       3.014   7.116  18.311  0.00  0.00    +0.000 A 
ATOM      7  C   UNL     1       2.661   8.420  17.962  0.00  0.00    +0.000 A 
ATOM      8  C   UNL     1       1.797   9.136  18.780  0.00  0.00    +0.000 A 
ATOM      9  F   UNL     1       1.518  10.399  18.419  0.00  0.00    +0.000 F 
ATOM     10  C   UNL     1       1.269   8.599  19.967  0.00  0.00    +0.000 A 
ATOM     11  C   UNL     1       1.670   7.287  20.293  0.00  0.00    +0.000 A 
ATOM     12  C   UNL     1       2.525   6.511  19.486  0.00  0.00    +0.000 A 
ENDROOT
BRANCH  10  13
ATOM     13  N   UNL     1       0.421   9.309  20.796  0.00  0.00    +0.000 N 
ATOM     14  C   UNL     1      -0.241   8.719  21.965  0.00  0.00    +0.000 C 
ATOM     15  C   UNL     1      -0.105   9.681  23.170  0.00  0.00    +0.000 C 
ATOM     16  N   UNL     1      -0.602  11.044  22.898  0.00  0.00    +0.000 NA
ATOM     17  C   UNL     1       0.067  11.582  21.693  0.00  0.00    +0.000 C 
ATOM     18  C   UNL     1      -0.057  10.660  20.458  0.00  0.00    +0.000 C 
ATOM     19  H   UNL     1      -0.374  11.641  23.691  0.00  0.00    +0.000 HD
ENDBRANCH  10  13
BRANCH   1  21
ATOM     20  C   UNL     1       1.186   3.650  20.735  0.00  0.00    +0.000 C 
ATOM     21  C   UNL     1       2.392   4.532  21.019  0.00  0.00    +0.000 C 
ENDBRANCH   1  21
BRANCH   3  22
ATOM     22  C   UNL     1       4.963   4.070  16.846  0.00  0.00    +0.000 C 
ATOM     23  O   UNL     1       6.184   4.143  16.742  0.00  0.00    +0.000 OA
ENDBRANCH   3  22
TORSDOF 3
ENDMDL
MODEL 2
REMARK VINA RESULT:      -7.4      4.522      6.116
REMARK  Name = 
REMARK  4 active torsions:
REMARK  status: ('A' for Active; 'I' for Inactive)
REMARK    1  A    between atoms: C_1  and  C_2
REMARK    2  A    between atoms: C_2  and  N_3
REMARK    3  A    between atoms: C_5  and  C_6
REMARK    4  A    between atoms: C_14  and  N_15
REMARK                            x       y       z     vdW  Elec       q    Type
REMARK                         _______ _______ _______ _____ _____    ______ ____
ROOT
ATOM      1  N   UNL     1       6.876   5.607  16.944  0.00  0.00    +0.000 N 
ATOM      2  C   UNL     1       7.479   5.635  15.694  0.00  0.00    +0.000 A 
ATOM      3  C   UNL     1       7.007   5.065  14.576  0.00  0.00    +0.000 A 
ATOM      4  C   UNL     1       5.724   4.346  14.666  0.00  0.00    +0.000 A 
ATOM      5  O   UNL     1       5.198   3.862  13.670  0.00  0.00    +0.000 OA
ATOM      6  C   UNL     1       5.105   4.214  16.007  0.00  0.00    +0.000 A 
ATOM      7  C   UNL     1       3.950   3.441  16.137  0.00  0.00    +0.000 A 
ATOM      8  C   UNL     1       3.373   3.281  17.390  0.00  0.00    +0.000 A 
ATOM      9  F   UNL     1       2.243   2.558  17.457  0.00  0.00    +0.000 F 
ATOM     10  C   UNL     1       3.903   3.886  18.544  0.00  0.00    +0.000 A 
ATOM     11  C   UNL     1       5.056   4.677  18.362  0.00  0.00    +0.000 A 
ATOM     12  C   UNL     1       5.692   4.852  17.117  0.00  0.00    +0.000 A 
ENDROOT
BRANCH  10  13
ATOM     13  N   UNL     1       3.326   3.747  19.792  0.00  0.00    +0.000 N 
ATOM     14  C   UNL     1       2.418   4.743  20.374  0.00  0.00    +0.000 C 
ATOM     15  C   UNL     1       1.191   4.021  20.981  0.00  0.00    +0.000 C 
ATOM     16  N   UNL     1       1.544   2.975  21.960  0.00  0.00    +0.000 NA
ATOM     17  C   UNL     1       2.486   2.018  21.340  0.00  0.00    +0.000 C 
ATOM     18  C   UNL     1       3.737   2.692  20.733  0.00  0.00    +0.000 C 
ATOM     19  H   UNL     1       0.697   2.474  22.225  0.00  0.00    +0.000 HD
ENDBRANCH  10  13
BRANCH   1  21
ATOM     20  C   UNL     1       7.812   7.742  17.778  0.00  0.00    +0.000 C 
ATOM     21  C   UNL     1       7.501   6.287  18.095  0.00  0.00    +0.000 C 
ENDBRANCH   1  21
BRANCH   3  22
ATOM     22  C   UNL     1       7.759   5.160  13.309  0.00  0.00    +0.000 C 
ATOM     23  O   UNL     1       8.720   5.907  13.149  0.00  0.00    +0.000 OA
ENDBRANCH   3  22
TORSDOF 3
ENDMDL
MODEL 3
REMARK VINA RESULT:      -7.0      0.939      1.154
REMARK  Name = 
REMARK  4 active torsions:
REMARK  status: ('A' for Active; 'I' for Inactive)
REMARK    1  A    between atoms: C_1  and  C_2
REMARK    2  A    between atoms: C_2  and  N_3
REMARK    3  A    between atoms: C_5  and  C_6
REMARK    4  A    between atoms: C_14  and  N_15
REMARK                            x       y       z     vdW  Elec       q    Type
REMARK                         _______ _______ _______ _____ _____    ______ ____
ROOT
ATOM      1  N   UNL     1       2.850   5.487  19.663  0.00  0.00    +0.000 N 
ATOM      2  C   UNL     1       3.682   4.665  18.914  0.00  0.00    +0.000 A 
ATOM      3  C   UNL     1       4.338   5.012  17.798  0.00  0.00    +0.000 A 
ATOM      4  C   UNL     1       4.178   6.394  17.313  0.00  0.00    +0.000 A 
ATOM      5  O   UNL     1       4.804   6.800  16.340  0.00  0.00    +0.000 OA
ATOM      6  C   UNL     1       3.220   7.267  18.035  0.00  0.00    +0.000 A 
ATOM      7  C   UNL     1       2.966   8.542  17.528  0.00  0.00    +0.000 A 
ATOM      8  C   UNL     1       2.049   9.362  18.173  0.00  0.00    +0.000 A 
ATOM      9  F   UNL     1       1.866  10.593  17.667  0.00  0.00    +0.000 F 
ATOM     10  C   UNL     1       1.370   8.960  19.337  0.00  0.00    +0.000 A 
ATOM     11  C   UNL     1       1.676   7.674  19.826  0.00  0.00    +0.000 A 
ATOM     12  C   UNL     1       2.580   6.795  19.198  0.00  0.00    +0.000 A 
ENDROOT
BRANCH  10  13
ATOM     13  N   UNL     1       0.469   9.775  19.994  0.00  0.00    +0.000 N 
ATOM     14  C   UNL     1       0.682  10.274  21.359  0.00  0.00    +0.000 C 
ATOM     15  C   UNL     1       0.347  11.784  21.409  0.00  0.00    +0.000 C 
ATOM     16  N   UNL     1      -1.008  12.106  20.923  0.00  0.00    +0.000 NA
ATOM     17  C   UNL     1      -1.187  11.554  19.562  0.00  0.00    +0.000 C 
ATOM     18  C   UNL     1      -0.879  10.042  19.466  0.00  0.00    +0.000 C 
ATOM     19  H   UNL     1      -1.109  13.119  20.880  0.00  0.00    +0.000 HD
ENDBRANCH  10  13
BRANCH   1  21
ATOM     20  C   UNL     1       1.111   3.964  20.549  0.00  0.00    +0.000 C 
ATOM     21  C   UNL     1       2.193   4.980  20.882  0.00  0.00    +0.000 C 
ENDBRANCH   1  21
BRANCH   3  22
ATOM     22  C   UNL     1       5.184   4.031  17.089  0.00  0.00    +0.000 C 
ATOM     23  O   UNL     1       6.391   4.177  16.923  0.00  0.00    +0.000 OA
ENDBRANCH   3  22
TORSDOF 3
ENDMDL
MODEL 4
REMARK VINA RESULT:      -7.0      0.957      1.040
REMARK  Name = 
REMARK  4 active torsions:
REMARK  status: ('A' for Active; 'I' for Inactive)
REMARK    1  A    between atoms: C_1  and  C_2
REMARK    2  A    between atoms: C_2  and  N_3
REMARK    3  A    between atoms: C_5  and  C_6
REMARK    4  A    between atoms: C_14  and  N_15
REMARK                            x       y       z     vdW  Elec       q    Type
REMARK                         _______ _______ _______ _____ _____    ______ ____
ROOT
ATOM      1  N   UNL     1       3.527   4.777  18.975  0.00  0.00    +0.000 N 
ATOM      2  C   UNL     1       4.303   4.125  18.027  0.00  0.00    +0.000 A 
ATOM      3  C   UNL     1       4.842   4.677  16.931  0.00  0.00    +0.000 A 
ATOM      4  C   UNL     1       4.603   6.114  16.703  0.00  0.00    +0.000 A 
ATOM      5  O   UNL     1       5.124   6.700  15.760  0.00  0.00    +0.000 OA
ATOM      6  C   UNL     1       3.697   6.816  17.643  0.00  0.00    +0.000 A 
ATOM      7  C   UNL     1       3.365   8.146  17.384  0.00  0.00    +0.000 A 
ATOM      8  C   UNL     1       2.493   8.811  18.237  0.00  0.00    +0.000 A 
ATOM      9  F   UNL     1       2.234  10.100  17.964  0.00  0.00    +0.000 F 
ATOM     10  C   UNL     1       1.938   8.195  19.372  0.00  0.00    +0.000 A 
ATOM     11  C   UNL     1       2.320   6.858  19.609  0.00  0.00    +0.000 A 
ATOM     12  C   UNL     1       3.182   6.133  18.763  0.00  0.00    +0.000 A 
ENDROOT
BRANCH  10  13
ATOM     13  N   UNL     1       1.084   8.853  20.236  0.00  0.00    +0.000 N 
ATOM     14  C   UNL     1       0.664   8.299  21.529  0.00  0.00    +0.000 C 
ATOM     15  C   UNL     1       0.774   9.398  22.615  0.00  0.00    +0.000 C 
ATOM     16  N   UNL     1       0.030  10.629  22.288  0.00  0.00    +0.000 NA
ATOM     17  C   UNL     1       0.461  11.129  20.964  0.00  0.00    +0.000 C 
ATOM     18  C   UNL     1       0.354  10.070  19.843  0.00  0.00    +0.000 C 
ATOM     19  H   UNL     1       0.244  11.338  22.989  0.00  0.00    +0.000 HD
ENDBRANCH  10  13
BRANCH   1  21
ATOM     20  C   UNL     1       1.791   3.204  19.776  0.00  0.00    +0.000 C 
ATOM     21  C   UNL     1       3.001   4.050  20.145  0.00  0.00    +0.000 C 
ENDBRANCH   1  21
BRANCH   3  22
ATOM     22  C   UNL     1       5.641   3.862  15.994  0.00  0.00    +0.000 C 
ATOM     23  O   UNL     1       6.850   4.002  15.841  0.00  0.00    +0.000 OA
ENDBRANCH   3  22
TORSDOF 3
ENDMDL
MODEL 5
REMARK VINA RESULT:      -6.9      2.371      3.472
REMARK  Name = 
REMARK  4 active torsions:
REMARK  status: ('A' for Active; 'I' for Inactive)
REMARK    1  A    between atoms: C_1  and  C_2
REMARK    2  A    between atoms: C_2  and  N_3
REMARK    3  A    between atoms: C_5  and  C_6
REMARK    4  A    between atoms: C_14  and  N_15
REMARK                            x       y       z     vdW  Elec       q    Type
REMARK                         _______ _______ _______ _____ _____    ______ ____
ROOT
ATOM      1  N   UNL     1       3.856   5.818  18.226  0.00  0.00    +0.000 N 
ATOM      2  C   UNL     1       4.308   4.530  18.483  0.00  0.00    +0.000 A 
ATOM      3  C   UNL     1       3.845   3.705  19.432  0.00  0.00    +0.000 A 
ATOM      4  C   UNL     1       2.746   4.193  20.284  0.00  0.00    +0.000 A 
ATOM      5  O   UNL     1       2.226   3.466  21.124  0.00  0.00    +0.000 OA
ATOM      6  C   UNL     1       2.307   5.597  20.100  0.00  0.00    +0.000 A 
ATOM      7  C   UNL     1       1.349   6.118  20.971  0.00  0.00    +0.000 A 
ATOM      8  C   UNL     1       0.948   7.441  20.833  0.00  0.00    +0.000 A 
ATOM      9  F   UNL     1      -0.003   7.883  21.672  0.00  0.00    +0.000 F 
ATOM     10  C   UNL     1       1.464   8.281  19.831  0.00  0.00    +0.000 A 
ATOM     11  C   UNL     1       2.413   7.707  18.960  0.00  0.00    +0.000 A 
ATOM     12  C   UNL     1       2.869   6.379  19.071  0.00  0.00    +0.000 A 
ENDROOT
BRANCH  10  13
ATOM     13  N   UNL     1       1.060   9.593  19.676  0.00  0.00    +0.000 N 
ATOM     14  C   UNL     1       0.721  10.182  18.374  0.00  0.00    +0.000 C 
ATOM     15  C   UNL     1      -0.596  10.984  18.503  0.00  0.00    +0.000 C 
ATOM     16  N   UNL     1      -0.563  12.008  19.566  0.00  0.00    +0.000 NA
ATOM     17  C   UNL     1      -0.184  11.374  20.848  0.00  0.00    +0.000 C 
ATOM     18  C   UNL     1       1.136  10.573  20.772  0.00  0.00    +0.000 C 
ATOM     19  H   UNL     1      -1.495  12.409  19.664  0.00  0.00    +0.000 HD
ENDBRANCH  10  13
BRANCH   1  21
ATOM     20  C   UNL     1       5.124   5.736  16.101  0.00  0.00    +0.000 C 
ATOM     21  C   UNL     1       4.449   6.620  17.140  0.00  0.00    +0.000 C 
ENDBRANCH   1  21
BRANCH   3  22
ATOM     22  C   UNL     1       4.427   2.359  19.607  0.00  0.00    +0.000 C 
ATOM     23  O   UNL     1       5.179   2.065  20.530  0.00  0.00    +0.000 OA
ENDBRANCH   3  22
TORSDOF 3
ENDMDL
MODEL 6
REMARK VINA RESULT:      -6.9      3.400      7.220
REMARK  Name = 
REMARK  4 active torsions:
REMARK  status: ('A' for Active; 'I' for Inactive)
REMARK    1  A    between atoms: C_1  and  C_2
REMARK    2  A    between atoms: C_2  and  N_3
REMARK    3  A    between atoms: C_5  and  C_6
REMARK    4  A    between atoms: C_14  and  N_15
REMARK                            x       y       z     vdW  Elec       q    Type
REMARK                         _______ _______ _______ _____ _____    ______ ____
ROOT
ATOM      1  N   UNL     1       1.365  10.183  19.224  0.00  0.00    +0.000 N 
ATOM      2  C   UNL     1       0.556  11.001  20.002  0.00  0.00    +0.000 A 
ATOM      3  C   UNL     1      -0.016  10.669  21.168  0.00  0.00    +0.000 A 
ATOM      4  C   UNL     1       0.238   9.314  21.691  0.00  0.00    +0.000 A 
ATOM      5  O   UNL     1      -0.194   8.968  22.785  0.00  0.00    +0.000 OA
ATOM      6  C   UNL     1       1.017   8.385  20.838  0.00  0.00    +0.000 A 
ATOM      7  C   UNL     1       1.173   7.063  21.259  0.00  0.00    +0.000 A 
ATOM      8  C   UNL     1       1.873   6.170  20.458  0.00  0.00    +0.000 A 
ATOM      9  F   UNL     1       2.027   4.920  20.925  0.00  0.00    +0.000 F 
ATOM     10  C   UNL     1       2.450   6.552  19.234  0.00  0.00    +0.000 A 
ATOM     11  C   UNL     1       2.288   7.902  18.860  0.00  0.00    +0.000 A 
ATOM     12  C   UNL     1       1.568   8.841  19.624  0.00  0.00    +0.000 A 
ENDROOT
BRANCH  10  13
ATOM     13  N   UNL     1       3.163   5.675  18.439  0.00  0.00    +0.000 N 
ATOM     14  C   UNL     1       4.561   5.896  18.051  0.00  0.00    +0.000 C 
ATOM     15  C   UNL     1       5.358   4.583  18.244  0.00  0.00    +0.000 C 
ATOM     16  N   UNL     1       4.777   3.428  17.532  0.00  0.00    +0.000 NA
ATOM     17  C   UNL     1       3.361   3.268  17.928  0.00  0.00    +0.000 C 
ATOM     18  C   UNL     1       2.520   4.551  17.738  0.00  0.00    +0.000 C 
ATOM     19  H   UNL     1       5.287   2.587  17.800  0.00  0.00    +0.000 HD
ENDBRANCH  10  13
BRANCH   1  21
ATOM     20  C   UNL     1       2.417  12.117  18.092  0.00  0.00    +0.000 C 
ATOM     21  C   UNL     1       1.941  10.678  17.960  0.00  0.00    +0.000 C 
ENDBRANCH   1  21
BRANCH   3  22
ATOM     22  C   UNL     1      -0.868  11.635  21.889  0.00  0.00    +0.000 C 
ATOM     23  O   UNL     1      -0.506  12.231  22.898  0.00  0.00    +0.000 OA
ENDBRANCH   3  22
TORSDOF 3
ENDMDL
MODEL 7
REMARK VINA RESULT:      -6.9      2.556      3.631
REMARK  Name = 
REMARK  4 active torsions:
REMARK  status: ('A' for Active; 'I' for Inactive)
REMARK    1  A    between atoms: C_1  and  C_2
REMARK    2  A    between atoms: C_2  and  N_3
REMARK    3  A    between atoms: C_5  and  C_6
REMARK    4  A    between atoms: C_14  and  N_15
REMARK                            x       y       z     vdW  Elec       q    Type
REMARK                         _______ _______ _______ _____ _____    ______ ____
ROOT
ATOM      1  N   UNL     1       3.955   5.276  18.016  0.00  0.00    +0.000 N 
ATOM      2  C   UNL     1       4.371   4.012  18.414  0.00  0.00    +0.000 A 
ATOM      3  C   UNL     1       3.944   3.342  19.493  0.00  0.00    +0.000 A 
ATOM      4  C   UNL     1       2.930   3.992  20.342  0.00  0.00    +0.000 A 
ATOM      5  O   UNL     1       2.442   3.409  21.304  0.00  0.00    +0.000 OA
ATOM      6  C   UNL     1       2.537   5.381  20.001  0.00  0.00    +0.000 A 
ATOM      7  C   UNL     1       1.666   6.058  20.855  0.00  0.00    +0.000 A 
ATOM      8  C   UNL     1       1.311   7.370  20.568  0.00  0.00    +0.000 A 
ATOM      9  F   UNL     1       0.441   7.966  21.400  0.00  0.00    +0.000 F 
ATOM     10  C   UNL     1       1.788   8.045  19.430  0.00  0.00    +0.000 A 
ATOM     11  C   UNL     1       2.647   7.315  18.583  0.00  0.00    +0.000 A 
ATOM     12  C   UNL     1       3.055   5.992  18.842  0.00  0.00    +0.000 A 
ENDROOT
BRANCH  10  13
ATOM     13  N   UNL     1       1.428   9.344  19.127  0.00  0.00    +0.000 N 
ATOM     14  C   UNL     1       0.422  10.098  19.887  0.00  0.00    +0.000 C 
ATOM     15  C   UNL     1       0.961  11.520  20.176  0.00  0.00    +0.000 C 
ATOM     16  N   UNL     1       1.381  12.250  18.965  0.00  0.00    +0.000 NA
ATOM     17  C   UNL     1       2.365  11.438  18.216  0.00  0.00    +0.000 C 
ATOM     18  C   UNL     1       1.864  10.013  17.890  0.00  0.00    +0.000 C 
ATOM     19  H   UNL     1       1.826  13.124  19.246  0.00  0.00    +0.000 HD
ENDBRANCH  10  13
BRANCH   1  21
ATOM     20  C   UNL     1       5.474   4.969  16.086  0.00  0.00    +0.000 C 
ATOM     21  C   UNL     1       4.501   5.898  16.796  0.00  0.00    +0.000 C 
ENDBRANCH   1  21
BRANCH   3  22
ATOM     22  C   UNL     1       4.482   2.004  19.808  0.00  0.00    +0.000 C 
ATOM     23  O   UNL     1       5.191   1.774  20.782  0.00  0.00    +0.000 OA
ENDBRANCH   3  22
TORSDOF 3
ENDMDL
MODEL 8
REMARK VINA RESULT:      -6.8      2.474      3.566
REMARK  Name = 
REMARK  4 active torsions:
REMARK  status: ('A' for Active; 'I' for Inactive)
REMARK    1  A    between atoms: C_1  and  C_2
REMARK    2  A    between atoms: C_2  and  N_3
REMARK    3  A    between atoms: C_5  and  C_6
REMARK    4  A    between atoms: C_14  and  N_15
REMARK                            x       y       z     vdW  Elec       q    Type
REMARK                         _______ _______ _______ _____ _____    ______ ____
ROOT
ATOM      1  N   UNL     1       3.927   6.121  17.751  0.00  0.00    +0.000 N 
ATOM      2  C   UNL     1       4.370   4.893  18.224  0.00  0.00    +0.000 A 
ATOM      3  C   UNL     1       3.950   4.277  19.338  0.00  0.00    +0.000 A 
ATOM      4  C   UNL     1       2.915   4.951  20.142  0.00  0.00    +0.000 A 
ATOM      5  O   UNL     1       2.433   4.413  21.133  0.00  0.00    +0.000 OA
ATOM      6  C   UNL     1       2.492   6.307  19.717  0.00  0.00    +0.000 A 
ATOM      7  C   UNL     1       1.598   7.012  20.524  0.00  0.00    +0.000 A 
ATOM      8  C   UNL     1       1.214   8.296  20.159  0.00  0.00    +0.000 A 
ATOM      9  F   UNL     1       0.324   8.918  20.950  0.00  0.00    +0.000 F 
ATOM     10  C   UNL     1       1.684   8.915  18.987  0.00  0.00    +0.000 A 
ATOM     11  C   UNL     1       2.567   8.158  18.190  0.00  0.00    +0.000 A 
ATOM     12  C   UNL     1       3.004   6.862  18.528  0.00  0.00    +0.000 A 
ENDROOT
BRANCH  10  13
ATOM     13  N   UNL     1       1.296  10.185  18.607  0.00  0.00    +0.000 N 
ATOM     14  C   UNL     1      -0.108  10.574  18.417  0.00  0.00    +0.000 C 
ATOM     15  C   UNL     1      -0.358  11.937  19.107  0.00  0.00    +0.000 C 
ATOM     16  N   UNL     1       0.562  13.002  18.663  0.00  0.00    +0.000 NA
ATOM     17  C   UNL     1       1.960  12.551  18.840  0.00  0.00    +0.000 C 
ATOM     18  C   UNL     1       2.261  11.200  18.154  0.00  0.00    +0.000 C 
ATOM     19  H   UNL     1       0.410  13.828  19.240  0.00  0.00    +0.000 HD
ENDBRANCH  10  13
BRANCH   1  21
ATOM     20  C   UNL     1       5.385   5.695  15.796  0.00  0.00    +0.000 C 
ATOM     21  C   UNL     1       4.467   6.684  16.500  0.00  0.00    +0.000 C 
ENDBRANCH   1  21
BRANCH   3  22
ATOM     22  C   UNL     1       4.517   2.972  19.734  0.00  0.00    +0.000 C 
ATOM     23  O   UNL     1       4.036   1.897  19.392  0.00  0.00    +0.000 OA
ENDBRANCH   3  22
TORSDOF 3
ENDMDL
MODEL 9
REMARK VINA RESULT:      -6.8      1.391      1.796
REMARK  Name = 
REMARK  4 active torsions:
REMARK  status: ('A' for Active; 'I' for Inactive)
REMARK    1  A    between atoms: C_1  and  C_2
REMARK    2  A    between atoms: C_2  and  N_3
REMARK    3  A    between atoms: C_5  and  C_6
REMARK    4  A    between atoms: C_14  and  N_15
REMARK                            x       y       z     vdW  Elec       q    Type
REMARK                         _______ _______ _______ _____ _____    ______ ____
ROOT
ATOM      1  N   UNL     1       2.521   4.370  20.260  0.00  0.00    +0.000 N 
ATOM      2  C   UNL     1       3.031   3.345  19.473  0.00  0.00    +0.000 A 
ATOM      3  C   UNL     1       3.575   3.480  18.255  0.00  0.00    +0.000 A 
ATOM      4  C   UNL     1       3.653   4.839  17.690  0.00  0.00    +0.000 A 
ATOM      5  O   UNL     1       4.202   5.045  16.613  0.00  0.00    +0.000 OA
ATOM      6  C   UNL     1       3.029   5.940  18.462  0.00  0.00    +0.000 A 
ATOM      7  C   UNL     1       2.989   7.215  17.895  0.00  0.00    +0.000 A 
ATOM      8  C   UNL     1       2.381   8.253  18.590  0.00  0.00    +0.000 A 
ATOM      9  F   UNL     1       2.401   9.468  18.018  0.00  0.00    +0.000 F 
ATOM     10  C   UNL     1       1.811   8.071  19.863  0.00  0.00    +0.000 A 
ATOM     11  C   UNL     1       1.895   6.773  20.406  0.00  0.00    +0.000 A 
ATOM     12  C   UNL     1       2.480   5.682  19.733  0.00  0.00    +0.000 A 
ENDROOT
BRANCH  10  13
ATOM     13  N   UNL     1       1.219   9.100  20.569  0.00  0.00    +0.000 N 
ATOM     14  C   UNL     1       0.652  10.294  19.927  0.00  0.00    +0.000 C 
ATOM     15  C   UNL     1      -0.736  10.594  20.543  0.00  0.00    +0.000 C 
ATOM     16  N   UNL     1      -0.714  10.730  22.013  0.00  0.00    +0.000 NA
ATOM     17  C   UNL     1      -0.104   9.522  22.610  0.00  0.00    +0.000 C 
ATOM     18  C   UNL     1       1.292   9.190  22.036  0.00  0.00    +0.000 C 
ATOM     19  H   UNL     1      -1.673  10.811  22.349  0.00  0.00    +0.000 HD
ENDBRANCH  10  13
BRANCH   1  21
ATOM     20  C   UNL     1       1.591   2.614  21.737  0.00  0.00    +0.000 C 
ATOM     21  C   UNL     1       1.956   4.084  21.592  0.00  0.00    +0.000 C 
ENDBRANCH   1  21
BRANCH   3  22
ATOM     22  C   UNL     1       4.069   2.300  17.519  0.00  0.00    +0.000 C 
ATOM     23  O   UNL     1       3.876   1.146  17.886  0.00  0.00    +0.000 OA
ENDBRANCH   3  22
TORSDOF 3
ENDMDL
