MODEL 1
REMARK VINA RESULT:      -5.9      0.000      0.000
REMARK  Name = 
REMARK  0 active torsions:
REMARK  status: ('A' for Active; 'I' for Inactive)
REMARK                            x       y       z     vdW  Elec       q    Type
REMARK                         _______ _______ _______ _____ _____    ______ ____
ROOT
ATOM      1  C   UNL     1      11.003  11.490  17.864  0.00  0.00    +0.000 A 
ATOM      2  C   UNL     1       9.739  11.204  18.298  0.00  0.00    +0.000 A 
ATOM      3  N   UNL     1       9.320  11.427  19.560  0.00  0.00    +0.000 NA
ATOM      4  C   UNL     1      10.158  12.073  20.403  0.00  0.00    +0.000 A 
ATOM      5  N   UNL     1       9.644  12.586  21.591  0.00  0.00    +0.000 N 
ATOM      6  C   UNL     1       8.541  11.861  22.230  0.00  0.00    +0.000 C 
ATOM      7  C   UNL     1       7.297  12.673  22.630  0.00  0.00    +0.000 C 
ATOM      8  O   UNL     1       7.591  13.853  23.359  0.00  0.00    +0.000 OA
ATOM      9  C   UNL     1       7.713  15.025  22.548  0.00  0.00    +0.000 C 
ATOM     10  C   UNL     1       8.681  14.963  21.337  0.00  0.00    +0.000 C 
ATOM     11  C   UNL     1       9.875  14.034  21.836  0.00  0.00    +0.000 C 
ATOM     12  C   UNL     1       8.107  14.401  20.016  0.00  0.00    +0.000 C 
ATOM     13  N   UNL     1       8.714  15.004  18.778  0.00  0.00    +0.000 N 
ATOM     14  C   UNL     1      10.092  15.143  18.672  0.00  0.00    +0.000 A 
ATOM     15  N   UNL     1      10.869  15.567  19.642  0.00  0.00    +0.000 NA
ATOM     16  C   UNL     1      12.125  15.920  19.229  0.00  0.00    +0.000 A 
ATOM     17  C   UNL     1      12.333  15.762  17.888  0.00  0.00    +0.000 A 
ATOM     18  S   UNL     1      10.912  15.142  17.139  0.00  0.00    +0.000 S 
ATOM     19  C   UNL     1       8.094  16.327  18.703  0.00  0.00    +0.000 C 
ATOM     20  C   UNL     1       8.343  17.092  20.035  0.00  0.00    +0.000 C 
ATOM     21  O   UNL     1       9.003  16.389  21.135  0.00  0.00    +0.000 OA
ATOM     22  N   UNL     1      11.428  12.336  20.076  0.00  0.00    +0.000 NA
ATOM     23  C   UNL     1      11.827  12.011  18.814  0.00  0.00    +0.000 A 
ENDROOT
TORSDOF 0
ENDMDL
MODEL 2
REMARK VINA RESULT:      -5.6      2.398      4.491
REMARK  Name = 
REMARK  0 active torsions:
REMARK  status: ('A' for Active; 'I' for Inactive)
REMARK                            x       y       z     vdW  Elec       q    Type
REMARK                         _______ _______ _______ _____ _____    ______ ____
ROOT
ATOM      1  C   UNL     1       8.136  15.060  22.636  0.00  0.00    +0.000 A 
ATOM      2  C   UNL     1       9.315  14.376  22.742  0.00  0.00    +0.000 A 
ATOM      3  N   UNL     1       9.723  13.456  21.845  0.00  0.00    +0.000 NA
ATOM      4  C   UNL     1       8.981  13.288  20.726  0.00  0.00    +0.000 A 
ATOM      5  N   UNL     1       9.536  12.587  19.658  0.00  0.00    +0.000 N 
ATOM      6  C   UNL     1      10.472  11.501  19.964  0.00  0.00    +0.000 C 
ATOM      7  C   UNL     1      11.825  11.504  19.230  0.00  0.00    +0.000 C 
ATOM      8  O   UNL     1      11.717  11.673  17.827  0.00  0.00    +0.000 OA
ATOM      9  C   UNL     1      11.830  13.030  17.391  0.00  0.00    +0.000 C 
ATOM     10  C   UNL     1      10.908  14.080  18.067  0.00  0.00    +0.000 C 
ATOM     11  C   UNL     1       9.554  13.291  18.348  0.00  0.00    +0.000 C 
ATOM     12  C   UNL     1      11.420  14.711  19.382  0.00  0.00    +0.000 C 
ATOM     13  N   UNL     1      10.972  16.132  19.597  0.00  0.00    +0.000 N 
ATOM     14  C   UNL     1       9.644  16.483  19.391  0.00  0.00    +0.000 A 
ATOM     15  N   UNL     1       8.920  16.075  18.374  0.00  0.00    +0.000 NA
ATOM     16  C   UNL     1       7.760  16.780  18.203  0.00  0.00    +0.000 A 
ATOM     17  C   UNL     1       7.574  17.774  19.122  0.00  0.00    +0.000 A 
ATOM     18  S   UNL     1       8.889  17.804  20.233  0.00  0.00    +0.000 S 
ATOM     19  C   UNL     1      11.816  16.899  18.681  0.00  0.00    +0.000 C 
ATOM     20  C   UNL     1      11.658  16.336  17.238  0.00  0.00    +0.000 C 
ATOM     21  O   UNL     1      10.848  15.136  17.038  0.00  0.00    +0.000 OA
ATOM     22  N   UNL     1       7.789  13.875  20.571  0.00  0.00    +0.000 NA
ATOM     23  C   UNL     1       7.384  14.731  21.550  0.00  0.00    +0.000 A 
ENDROOT
TORSDOF 0
ENDMDL
MODEL 3
REMARK VINA RESULT:      -5.5      2.278      4.157
REMARK  Name = 
REMARK  0 active torsions:
REMARK  status: ('A' for Active; 'I' for Inactive)
REMARK                            x       y       z     vdW  Elec       q    Type
REMARK                         _______ _______ _______ _____ _____    ______ ____
ROOT
ATOM      1  C   UNL     1      10.554  17.405  18.076  0.00  0.00    +0.000 A 
ATOM      2  C   UNL     1       9.901  16.426  17.381  0.00  0.00    +0.000 A 
ATOM      3  N   UNL     1      10.191  15.114  17.497  0.00  0.00    +0.000 NA
ATOM      4  C   UNL     1      11.094  14.744  18.434  0.00  0.00    +0.000 A 
ATOM      5  N   UNL     1      11.177  13.398  18.783  0.00  0.00    +0.000 N 
ATOM      6  C   UNL     1      10.901  12.402  17.744  0.00  0.00    +0.000 C 
ATOM      7  C   UNL     1       9.893  11.288  18.079  0.00  0.00    +0.000 C 
ATOM      8  O   UNL     1      10.140  10.644  19.318  0.00  0.00    +0.000 OA
ATOM      9  C   UNL     1       9.419  11.201  20.420  0.00  0.00    +0.000 C 
ATOM     10  C   UNL     1       9.531  12.731  20.651  0.00  0.00    +0.000 C 
ATOM     11  C   UNL     1      11.025  13.084  20.229  0.00  0.00    +0.000 C 
ATOM     12  C   UNL     1       8.547  13.628  19.865  0.00  0.00    +0.000 C 
ATOM     13  N   UNL     1       8.151  14.886  20.589  0.00  0.00    +0.000 N 
ATOM     14  C   UNL     1       9.118  15.673  21.202  0.00  0.00    +0.000 A 
ATOM     15  N   UNL     1      10.112  15.199  21.917  0.00  0.00    +0.000 NA
ATOM     16  C   UNL     1      10.749  16.144  22.673  0.00  0.00    +0.000 A 
ATOM     17  C   UNL     1      10.231  17.402  22.540  0.00  0.00    +0.000 A 
ATOM     18  S   UNL     1       8.921  17.386  21.424  0.00  0.00    +0.000 S 
ATOM     19  C   UNL     1       7.206  14.416  21.601  0.00  0.00    +0.000 C 
ATOM     20  C   UNL     1       7.879  13.308  22.463  0.00  0.00    +0.000 C 
ATOM     21  O   UNL     1       9.214  12.843  22.089  0.00  0.00    +0.000 OA
ATOM     22  N   UNL     1      11.816  15.640  19.116  0.00  0.00    +0.000 NA
ATOM     23  C   UNL     1      11.543  16.957  18.898  0.00  0.00    +0.000 A 
ENDROOT
TORSDOF 0
ENDMDL
MODEL 4
REMARK VINA RESULT:      -5.3      2.204      4.552
REMARK  Name = 
REMARK  0 active torsions:
REMARK  status: ('A' for Active; 'I' for Inactive)
REMARK                            x       y       z     vdW  Elec       q    Type
REMARK                         _______ _______ _______ _____ _____    ______ ____
ROOT
ATOM      1  C   UNL     1      10.391  11.200  19.514  0.00  0.00    +0.000 A 
ATOM      2  C   UNL     1      11.522  11.888  19.175  0.00  0.00    +0.000 A 
ATOM      3  N   UNL     1      11.510  13.025  18.450  0.00  0.00    +0.000 NA
ATOM      4  C   UNL     1      10.310  13.570  18.143  0.00  0.00    +0.000 A 
ATOM      5  N   UNL     1      10.274  14.882  17.677  0.00  0.00    +0.000 N 
ATOM      6  C   UNL     1      11.406  15.355  16.875  0.00  0.00    +0.000 C 
ATOM      7  C   UNL     1      12.059  16.687  17.286  0.00  0.00    +0.000 C 
ATOM      8  O   UNL     1      11.132  17.741  17.492  0.00  0.00    +0.000 OA
ATOM      9  C   UNL     1      10.706  17.888  18.849  0.00  0.00    +0.000 C 
ATOM     10  C   UNL     1      10.157  16.628  19.569  0.00  0.00    +0.000 C 
ATOM     11  C   UNL     1       9.397  15.821  18.426  0.00  0.00    +0.000 C 
ATOM     12  C   UNL     1      11.197  15.706  20.248  0.00  0.00    +0.000 C 
ATOM     13  N   UNL     1      10.686  15.006  21.478  0.00  0.00    +0.000 N 
ATOM     14  C   UNL     1       9.443  14.384  21.462  0.00  0.00    +0.000 A 
ATOM     15  N   UNL     1       8.364  14.903  20.924  0.00  0.00    +0.000 NA
ATOM     16  C   UNL     1       7.206  14.274  21.292  0.00  0.00    +0.000 A 
ATOM     17  C   UNL     1       7.392  13.225  22.148  0.00  0.00    +0.000 A 
ATOM     18  S   UNL     1       9.070  13.025  22.480  0.00  0.00    +0.000 S 
ATOM     19  C   UNL     1      10.679  16.059  22.493  0.00  0.00    +0.000 C 
ATOM     20  C   UNL     1       9.834  17.263  21.984  0.00  0.00    +0.000 C 
ATOM     21  O   UNL     1       9.310  17.226  20.620  0.00  0.00    +0.000 OA
ATOM     22  N   UNL     1       9.160  12.934  18.388  0.00  0.00    +0.000 NA
ATOM     23  C   UNL     1       9.233  11.744  19.049  0.00  0.00    +0.000 A 
ENDROOT
TORSDOF 0
ENDMDL
MODEL 5
REMARK VINA RESULT:      -5.3      8.566     10.882
REMARK  Name = 
REMARK  0 active torsions:
REMARK  status: ('A' for Active; 'I' for Inactive)
REMARK                            x       y       z     vdW  Elec       q    Type
REMARK                         _______ _______ _______ _____ _____    ______ ____
ROOT
ATOM      1  C   UNL     1      -1.357  16.136  22.423  0.00  0.00    +0.000 A 
ATOM      2  C   UNL     1      -0.945  16.536  21.183  0.00  0.00    +0.000 A 
ATOM      3  N   UNL     1       0.216  16.140  20.622  0.00  0.00    +0.000 NA
ATOM      4  C   UNL     1       0.952  15.211  21.275  0.00  0.00    +0.000 A 
ATOM      5  N   UNL     1       1.974  14.566  20.584  0.00  0.00    +0.000 N 
ATOM      6  C   UNL     1       2.686  15.323  19.550  0.00  0.00    +0.000 C 
ATOM      7  C   UNL     1       2.835  14.666  18.167  0.00  0.00    +0.000 C 
ATOM      8  O   UNL     1       3.316  13.333  18.213  0.00  0.00    +0.000 OA
ATOM      9  C   UNL     1       2.287  12.341  18.229  0.00  0.00    +0.000 C 
ATOM     10  C   UNL     1       1.173  12.479  19.301  0.00  0.00    +0.000 C 
ATOM     11  C   UNL     1       1.923  13.080  20.571  0.00  0.00    +0.000 C 
ATOM     12  C   UNL     1      -0.032  13.379  18.940  0.00  0.00    +0.000 C 
ATOM     13  N   UNL     1      -1.332  12.940  19.557  0.00  0.00    +0.000 N 
ATOM     14  C   UNL     1      -1.385  12.598  20.903  0.00  0.00    +0.000 A 
ATOM     15  N   UNL     1      -0.483  11.867  21.516  0.00  0.00    +0.000 NA
ATOM     16  C   UNL     1      -0.888  11.400  22.737  0.00  0.00    +0.000 A 
ATOM     17  C   UNL     1      -2.152  11.783  23.087  0.00  0.00    +0.000 A 
ATOM     18  S   UNL     1      -2.834  12.766  21.849  0.00  0.00    +0.000 S 
ATOM     19  C   UNL     1      -1.718  11.780  18.755  0.00  0.00    +0.000 C 
ATOM     20  C   UNL     1      -0.563  10.736  18.765  0.00  0.00    +0.000 C 
ATOM     21  O   UNL     1       0.695  11.088  19.421  0.00  0.00    +0.000 OA
ATOM     22  N   UNL     1       0.649  14.811  22.515  0.00  0.00    +0.000 NA
ATOM     23  C   UNL     1      -0.491  15.308  23.070  0.00  0.00    +0.000 A 
ENDROOT
TORSDOF 0
ENDMDL
MODEL 6
REMARK VINA RESULT:      -5.1      2.402      4.645
REMARK  Name = 
REMARK  0 active torsions:
REMARK  status: ('A' for Active; 'I' for Inactive)
REMARK                            x       y       z     vdW  Elec       q    Type
REMARK                         _______ _______ _______ _____ _____    ______ ____
ROOT
ATOM      1  C   UNL     1       8.946  17.850  18.972  0.00  0.00    +0.000 A 
ATOM      2  C   UNL     1       8.409  16.846  18.217  0.00  0.00    +0.000 A 
ATOM      3  N   UNL     1       9.025  15.666  18.004  0.00  0.00    +0.000 NA
ATOM      4  C   UNL     1      10.179  15.423  18.668  0.00  0.00    +0.000 A 
ATOM      5  N   UNL     1      10.662  14.117  18.710  0.00  0.00    +0.000 N 
ATOM      6  C   UNL     1      10.406  13.255  17.553  0.00  0.00    +0.000 C 
ATOM      7  C   UNL     1       9.800  11.867  17.823  0.00  0.00    +0.000 C 
ATOM      8  O   UNL     1      10.469  11.136  18.838  0.00  0.00    +0.000 OA
ATOM      9  C   UNL     1       9.904  11.294  20.141  0.00  0.00    +0.000 C 
ATOM     10  C   UNL     1       9.693  12.740  20.662  0.00  0.00    +0.000 C 
ATOM     11  C   UNL     1      10.922  13.557  20.063  0.00  0.00    +0.000 C 
ATOM     12  C   UNL     1       8.370  13.436  20.267  0.00  0.00    +0.000 C 
ATOM     13  N   UNL     1       7.857  14.408  21.294  0.00  0.00    +0.000 N 
ATOM     14  C   UNL     1       8.719  15.330  21.875  0.00  0.00    +0.000 A 
ATOM     15  N   UNL     1       9.933  15.049  22.287  0.00  0.00    +0.000 NA
ATOM     16  C   UNL     1      10.478  16.007  23.097  0.00  0.00    +0.000 A 
ATOM     17  C   UNL     1       9.656  17.075  23.323  0.00  0.00    +0.000 A 
ATOM     18  S   UNL     1       8.170  16.865  22.479  0.00  0.00    +0.000 S 
ATOM     19  C   UNL     1       7.308  13.543  22.339  0.00  0.00    +0.000 C 
ATOM     20  C   UNL     1       8.407  12.550  22.818  0.00  0.00    +0.000 C 
ATOM     21  O   UNL     1       9.693  12.538  22.124  0.00  0.00    +0.000 OA
ATOM     22  N   UNL     1      10.799  16.370  19.381  0.00  0.00    +0.000 NA
ATOM     23  C   UNL     1      10.174  17.576  19.493  0.00  0.00    +0.000 A 
ENDROOT
TORSDOF 0
ENDMDL
MODEL 7
REMARK VINA RESULT:      -5.1      8.467     10.326
REMARK  Name = 
REMARK  0 active torsions:
REMARK  status: ('A' for Active; 'I' for Inactive)
REMARK                            x       y       z     vdW  Elec       q    Type
REMARK                         _______ _______ _______ _____ _____    ______ ____
ROOT
ATOM      1  C   UNL     1      -1.936  14.117  22.707  0.00  0.00    +0.000 A 
ATOM      2  C   UNL     1      -1.199  12.997  22.971  0.00  0.00    +0.000 A 
ATOM      3  N   UNL     1      -0.940  12.044  22.053  0.00  0.00    +0.000 NA
ATOM      4  C   UNL     1      -1.335  12.267  20.778  0.00  0.00    +0.000 A 
ATOM      5  N   UNL     1      -0.814  11.461  19.769  0.00  0.00    +0.000 N 
ATOM      6  C   UNL     1      -0.502  10.067  20.098  0.00  0.00    +0.000 C 
ATOM      7  C   UNL     1       0.895   9.545  19.718  0.00  0.00    +0.000 C 
ATOM      8  O   UNL     1       1.267   9.824  18.379  0.00  0.00    +0.000 OA
ATOM      9  C   UNL     1       2.017  11.032  18.221  0.00  0.00    +0.000 C 
ATOM     10  C   UNL     1       1.422  12.330  18.827  0.00  0.00    +0.000 C 
ATOM     11  C   UNL     1      -0.151  12.167  18.640  0.00  0.00    +0.000 C 
ATOM     12  C   UNL     1       1.739  12.612  20.314  0.00  0.00    +0.000 C 
ATOM     13  N   UNL     1       1.834  14.075  20.655  0.00  0.00    +0.000 N 
ATOM     14  C   UNL     1       0.865  14.962  20.203  0.00  0.00    +0.000 A 
ATOM     15  N   UNL     1       0.364  14.954  18.990  0.00  0.00    +0.000 NA
ATOM     16  C   UNL     1      -0.331  16.088  18.671  0.00  0.00    +0.000 A 
ATOM     17  C   UNL     1      -0.373  17.014  19.676  0.00  0.00    +0.000 A 
ATOM     18  S   UNL     1       0.474  16.426  21.055  0.00  0.00    +0.000 S 
ATOM     19  C   UNL     1       3.133  14.469  20.110  0.00  0.00    +0.000 C 
ATOM     20  C   UNL     1       3.190  14.109  18.597  0.00  0.00    +0.000 C 
ATOM     21  O   UNL     1       2.072  13.372  18.008  0.00  0.00    +0.000 OA
ATOM     22  N   UNL     1      -2.108  13.307  20.447  0.00  0.00    +0.000 NA
ATOM     23  C   UNL     1      -2.412  14.197  21.434  0.00  0.00    +0.000 A 
ENDROOT
TORSDOF 0
ENDMDL
MODEL 8
REMARK VINA RESULT:      -5.1      2.429      4.608
REMARK  Name = 
REMARK  0 active torsions:
REMARK  status: ('A' for Active; 'I' for Inactive)
REMARK                            x       y       z     vdW  Elec       q    Type
REMARK                         _______ _______ _______ _____ _____    ______ ____
ROOT
ATOM      1  C   UNL     1       8.239  13.559  22.622  0.00  0.00    +0.000 A 
ATOM      2  C   UNL     1       9.307  12.801  22.233  0.00  0.00    +0.000 A 
ATOM      3  N   UNL     1       9.634  12.585  20.942  0.00  0.00    +0.000 NA
ATOM      4  C   UNL     1       8.936  13.247  19.991  0.00  0.00    +0.000 A 
ATOM      5  N   UNL     1       9.446  13.286  18.696  0.00  0.00    +0.000 N 
ATOM      6  C   UNL     1      10.210  12.126  18.226  0.00  0.00    +0.000 C 
ATOM      7  C   UNL     1      11.587  12.394  17.594  0.00  0.00    +0.000 C 
ATOM      8  O   UNL     1      11.576  13.406  16.600  0.00  0.00    +0.000 OA
ATOM      9  C   UNL     1      11.894  14.710  17.092  0.00  0.00    +0.000 C 
ATOM     10  C   UNL     1      11.088  15.235  18.310  0.00  0.00    +0.000 C 
ATOM     11  C   UNL     1       9.627  14.637  18.101  0.00  0.00    +0.000 C 
ATOM     12  C   UNL     1      11.611  14.842  19.711  0.00  0.00    +0.000 C 
ATOM     13  N   UNL     1      11.347  15.873  20.775  0.00  0.00    +0.000 N 
ATOM     14  C   UNL     1      10.091  16.456  20.887  0.00  0.00    +0.000 A 
ATOM     15  N   UNL     1       9.373  16.866  19.867  0.00  0.00    +0.000 NA
ATOM     16  C   UNL     1       8.330  17.678  20.217  0.00  0.00    +0.000 A 
ATOM     17  C   UNL     1       8.231  17.907  21.561  0.00  0.00    +0.000 A 
ATOM     18  S   UNL     1       9.479  17.064  22.396  0.00  0.00    +0.000 S 
ATOM     19  C   UNL     1      12.333  16.916  20.493  0.00  0.00    +0.000 C 
ATOM     20  C   UNL     1      12.177  17.391  19.019  0.00  0.00    +0.000 C 
ATOM     21  O   UNL     1      11.224  16.696  18.155  0.00  0.00    +0.000 OA
ATOM     22  N   UNL     1       7.844  13.962  20.283  0.00  0.00    +0.000 NA
ATOM     23  C   UNL     1       7.507  14.078  21.598  0.00  0.00    +0.000 A 
ENDROOT
TORSDOF 0
ENDMDL
MODEL 9
REMARK VINA RESULT:      -5.1      2.420      5.482
REMARK  Name = 
REMARK  0 active torsions:
REMARK  status: ('A' for Active; 'I' for Inactive)
REMARK                            x       y       z     vdW  Elec       q    Type
REMARK                         _______ _______ _______ _____ _____    ______ ____
ROOT
ATOM      1  C   UNL     1       6.096  16.200  19.988  0.00  0.00    +0.000 A 
ATOM      2  C   UNL     1       6.444  15.907  18.699  0.00  0.00    +0.000 A 
ATOM      3  N   UNL     1       7.665  16.157  18.185  0.00  0.00    +0.000 NA
ATOM      4  C   UNL     1       8.625  16.614  19.021  0.00  0.00    +0.000 A 
ATOM      5  N   UNL     1       9.950  16.581  18.594  0.00  0.00    +0.000 N 
ATOM      6  C   UNL     1      10.215  16.771  17.165  0.00  0.00    +0.000 C 
ATOM      7  C   UNL     1      11.121  15.740  16.469  0.00  0.00    +0.000 C 
ATOM      8  O   UNL     1      12.333  15.482  17.159  0.00  0.00    +0.000 OA
ATOM      9  C   UNL     1      12.272  14.364  18.049  0.00  0.00    +0.000 C 
ATOM     10  C   UNL     1      11.120  14.338  19.089  0.00  0.00    +0.000 C 
ATOM     11  C   UNL     1      10.908  15.866  19.480  0.00  0.00    +0.000 C 
ATOM     12  C   UNL     1       9.775  13.733  18.622  0.00  0.00    +0.000 C 
ATOM     13  N   UNL     1       8.998  13.049  19.714  0.00  0.00    +0.000 N 
ATOM     14  C   UNL     1       8.834  13.668  20.947  0.00  0.00    +0.000 A 
ATOM     15  N   UNL     1       9.788  14.300  21.589  0.00  0.00    +0.000 NA
ATOM     16  C   UNL     1       9.497  14.556  22.901  0.00  0.00    +0.000 A 
ATOM     17  C   UNL     1       8.267  14.106  23.294  0.00  0.00    +0.000 A 
ATOM     18  S   UNL     1       7.462  13.358  21.969  0.00  0.00    +0.000 S 
ATOM     19  C   UNL     1       9.713  11.788  19.904  0.00  0.00    +0.000 C 
ATOM     20  C   UNL     1      11.212  12.083  20.206  0.00  0.00    +0.000 C 
ATOM     21  O   UNL     1      11.682  13.466  20.139  0.00  0.00    +0.000 OA
ATOM     22  N   UNL     1       8.354  16.978  20.279  0.00  0.00    +0.000 NA
ATOM     23  C   UNL     1       7.081  16.785  20.724  0.00  0.00    +0.000 A 
ENDROOT
TORSDOF 0
ENDMDL
