MODEL 1
REMARK VINA RESULT:      -8.0      0.000      0.000
REMARK  Name = 
REMARK  5 active torsions:
REMARK  status: ('A' for Active; 'I' for Inactive)
REMARK    1  A    between atoms: C_1  and  N_2
REMARK    2  A    between atoms: C_5  and  N_6
REMARK    3  A    between atoms: C_9  and  C_10
REMARK    4  A    between atoms: C_17  and  C_18
REMARK    5  A    between atoms: N_23  and  C_24
REMARK                            x       y       z     vdW  Elec       q    Type
REMARK                         _______ _______ _______ _____ _____    ______ ____
ROOT
ATOM      1  N   UNL     1      -1.891  12.241  21.155  0.00  0.00    +0.000 N 
ATOM      2  C   UNL     1      -0.931  12.139  22.125  0.00  0.00    +0.000 A 
ATOM      3  N   UNL     1       0.045  11.350  21.757  0.00  0.00    +0.000 NA
ATOM      4  C   UNL     1      -0.289  10.907  20.493  0.00  0.00    +0.000 A 
ATOM      5  C   UNL     1      -1.512  11.446  20.081  0.00  0.00    +0.000 A 
ENDROOT
BRANCH   5   6
ATOM      6  C   UNL     1      -2.229  11.344  18.805  0.00  0.00    +0.000 A 
ATOM      7  C   UNL     1      -1.642  11.447  17.566  0.00  0.00    +0.000 A 
ATOM      8  C   UNL     1      -2.491  11.323  16.493  0.00  0.00    +0.000 A 
ATOM      9  N   UNL     1      -3.826  11.213  16.606  0.00  0.00    +0.000 NA
ATOM     10  C   UNL     1      -4.319  11.154  17.849  0.00  0.00    +0.000 A 
ATOM     11  N   UNL     1      -5.704  11.147  17.991  0.00  0.00    +0.000 N 
ATOM     12  N   UNL     1      -3.549  11.168  18.945  0.00  0.00    +0.000 NA
ATOM     13  H   UNL     1      -6.174  11.316  17.114  0.00  0.00    +0.000 HD
BRANCH  11  14
ATOM     14  C   UNL     1      -6.476  10.729  19.083  0.00  0.00    +0.000 A 
ATOM     15  C   UNL     1      -6.846  11.635  20.072  0.00  0.00    +0.000 A 
ATOM     16  C   UNL     1      -7.546  11.171  21.176  0.00  0.00    +0.000 A 
ATOM     17  N   UNL     1      -7.908   9.881  21.354  0.00  0.00    +0.000 NA
ATOM     18  C   UNL     1      -7.521   9.017  20.398  0.00  0.00    +0.000 A 
ATOM     19  C   UNL     1      -6.806   9.386  19.274  0.00  0.00    +0.000 A 
ENDBRANCH  11  14
ENDBRANCH   5   6
BRANCH   1  24
ATOM     20  C   UNL     1      -6.154  15.789  22.354  0.00  0.00    +0.000 C 
ATOM     21  N   UNL     1      -4.875  15.078  22.291  0.00  0.00    +0.000 NA
ATOM     22  C   UNL     1      -5.057  13.682  22.697  0.00  0.00    +0.000 C 
ATOM     23  C   UNL     1      -3.730  12.927  22.669  0.00  0.00    +0.000 C 
ATOM     24  C   UNL     1      -3.095  13.046  21.281  0.00  0.00    +0.000 C 
ATOM     25  C   UNL     1      -2.926  14.509  20.875  0.00  0.00    +0.000 C 
ATOM     26  C   UNL     1      -4.290  15.198  20.949  0.00  0.00    +0.000 C 
ENDBRANCH   1  24
BRANCH   4  27
ATOM     27  C   UNL     1       0.597  10.001  19.759  0.00  0.00    +0.000 A 
ATOM     28  C   UNL     1       1.066  10.295  18.470  0.00  0.00    +0.000 A 
ATOM     29  C   UNL     1       1.944   9.434  17.811  0.00  0.00    +0.000 A 
ATOM     30  C   UNL     1       2.326   8.248  18.422  0.00  0.00    +0.000 A 
ATOM     31  F   UNL     1       3.160   7.417  17.782  0.00  0.00    +0.000 F 
ATOM     32  C   UNL     1       1.842   7.906  19.678  0.00  0.00    +0.000 A 
ATOM     33  C   UNL     1       0.979   8.783  20.346  0.00  0.00    +0.000 A 
ENDBRANCH   4  27
TORSDOF 4
ENDMDL
MODEL 2
REMARK VINA RESULT:      -7.8      3.876      7.655
REMARK  Name = 
REMARK  5 active torsions:
REMARK  status: ('A' for Active; 'I' for Inactive)
REMARK    1  A    between atoms: C_1  and  N_2
REMARK    2  A    between atoms: C_5  and  N_6
REMARK    3  A    between atoms: C_9  and  C_10
REMARK    4  A    between atoms: C_17  and  C_18
REMARK    5  A    between atoms: N_23  and  C_24
REMARK                            x       y       z     vdW  Elec       q    Type
REMARK                         _______ _______ _______ _____ _____    ______ ____
ROOT
ATOM      1  N   UNL     1       0.484   9.323  21.310  0.00  0.00    +0.000 N 
ATOM      2  C   UNL     1       0.714   9.162  22.649  0.00  0.00    +0.000 A 
ATOM      3  N   UNL     1       0.097  10.072  23.358  0.00  0.00    +0.000 NA
ATOM      4  C   UNL     1      -0.562  10.872  22.445  0.00  0.00    +0.000 A 
ATOM      5  C   UNL     1      -0.336  10.430  21.138  0.00  0.00    +0.000 A 
ENDROOT
BRANCH   5   6
ATOM      6  C   UNL     1      -0.883  10.892  19.856  0.00  0.00    +0.000 A 
ATOM      7  C   UNL     1      -1.601  10.109  18.984  0.00  0.00    +0.000 A 
ATOM      8  C   UNL     1      -2.023  10.733  17.835  0.00  0.00    +0.000 A 
ATOM      9  N   UNL     1      -1.688  11.992  17.502  0.00  0.00    +0.000 NA
ATOM     10  C   UNL     1      -0.957  12.673  18.393  0.00  0.00    +0.000 A 
ATOM     11  N   UNL     1      -0.509  13.937  18.024  0.00  0.00    +0.000 N 
ATOM     12  N   UNL     1      -0.590  12.168  19.578  0.00  0.00    +0.000 NA
ATOM     13  H   UNL     1      -0.698  14.136  17.052  0.00  0.00    +0.000 HD
BRANCH  11  14
ATOM     14  C   UNL     1      -0.071  14.990  18.838  0.00  0.00    +0.000 A 
ATOM     15  C   UNL     1       1.278  15.327  18.890  0.00  0.00    +0.000 A 
ATOM     16  C   UNL     1       1.685  16.324  19.763  0.00  0.00    +0.000 A 
ATOM     17  N   UNL     1       0.846  17.010  20.572  0.00  0.00    +0.000 NA
ATOM     18  C   UNL     1      -0.450  16.653  20.524  0.00  0.00    +0.000 A 
ATOM     19  C   UNL     1      -0.943  15.661  19.699  0.00  0.00    +0.000 A 
ENDBRANCH  11  14
ENDBRANCH   5   6
BRANCH   1  24
ATOM     20  C   UNL     1       3.472   6.293  17.555  0.00  0.00    +0.000 C 
ATOM     21  N   UNL     1       3.034   7.156  18.655  0.00  0.00    +0.000 NA
ATOM     22  C   UNL     1       2.305   8.312  18.125  0.00  0.00    +0.000 C 
ATOM     23  C   UNL     1       1.864   9.242  19.252  0.00  0.00    +0.000 C 
ATOM     24  C   UNL     1       1.039   8.461  20.278  0.00  0.00    +0.000 C 
ATOM     25  C   UNL     1       1.815   7.256  20.807  0.00  0.00    +0.000 C 
ATOM     26  C   UNL     1       2.238   6.387  19.621  0.00  0.00    +0.000 C 
ENDBRANCH   1  24
BRANCH   4  27
ATOM     27  C   UNL     1      -1.377  12.003  22.893  0.00  0.00    +0.000 A 
ATOM     28  C   UNL     1      -0.902  13.323  22.868  0.00  0.00    +0.000 A 
ATOM     29  C   UNL     1      -1.715  14.387  23.260  0.00  0.00    +0.000 A 
ATOM     30  C   UNL     1      -2.998  14.132  23.724  0.00  0.00    +0.000 A 
ATOM     31  F   UNL     1      -3.773  15.154  24.111  0.00  0.00    +0.000 F 
ATOM     32  C   UNL     1      -3.480  12.832  23.806  0.00  0.00    +0.000 A 
ATOM     33  C   UNL     1      -2.671  11.769  23.389  0.00  0.00    +0.000 A 
ENDBRANCH   4  27
TORSDOF 4
ENDMDL
MODEL 3
REMARK VINA RESULT:      -7.7      3.893      7.716
REMARK  Name = 
REMARK  5 active torsions:
REMARK  status: ('A' for Active; 'I' for Inactive)
REMARK    1  A    between atoms: C_1  and  N_2
REMARK    2  A    between atoms: C_5  and  N_6
REMARK    3  A    between atoms: C_9  and  C_10
REMARK    4  A    between atoms: C_17  and  C_18
REMARK    5  A    between atoms: N_23  and  C_24
REMARK                            x       y       z     vdW  Elec       q    Type
REMARK                         _______ _______ _______ _____ _____    ______ ____
ROOT
ATOM      1  N   UNL     1       0.416   9.373  21.375  0.00  0.00    +0.000 N 
ATOM      2  C   UNL     1       0.622   9.187  22.715  0.00  0.00    +0.000 A 
ATOM      3  N   UNL     1       0.002  10.091  23.429  0.00  0.00    +0.000 NA
ATOM      4  C   UNL     1      -0.634  10.912  22.519  0.00  0.00    +0.000 A 
ATOM      5  C   UNL     1      -0.390  10.491  21.209  0.00  0.00    +0.000 A 
ENDROOT
BRANCH   5   6
ATOM      6  C   UNL     1      -0.911  10.980  19.926  0.00  0.00    +0.000 A 
ATOM      7  C   UNL     1      -1.653  10.230  19.046  0.00  0.00    +0.000 A 
ATOM      8  C   UNL     1      -2.044  10.876  17.897  0.00  0.00    +0.000 A 
ATOM      9  N   UNL     1      -1.658  12.122  17.573  0.00  0.00    +0.000 NA
ATOM     10  C   UNL     1      -0.907  12.770  18.472  0.00  0.00    +0.000 A 
ATOM     11  N   UNL     1      -0.409  14.019  18.113  0.00  0.00    +0.000 N 
ATOM     12  N   UNL     1      -0.568  12.246  19.657  0.00  0.00    +0.000 NA
ATOM     13  H   UNL     1      -0.584  14.229  17.141  0.00  0.00    +0.000 HD
BRANCH  11  14
ATOM     14  C   UNL     1       0.063  15.049  18.936  0.00  0.00    +0.000 A 
ATOM     15  C   UNL     1      -0.827  15.849  19.645  0.00  0.00    +0.000 A 
ATOM     16  C   UNL     1      -0.328  16.907  20.390  0.00  0.00    +0.000 A 
ATOM     17  N   UNL     1       0.985  17.213  20.485  0.00  0.00    +0.000 NA
ATOM     18  C   UNL     1       1.828  16.442  19.774  0.00  0.00    +0.000 A 
ATOM     19  C   UNL     1       1.419  15.379  18.991  0.00  0.00    +0.000 A 
ENDBRANCH  11  14
ENDBRANCH   5   6
BRANCH   1  24
ATOM     20  C   UNL     1       3.436   6.404  17.597  0.00  0.00    +0.000 C 
ATOM     21  N   UNL     1       2.989   7.256  18.701  0.00  0.00    +0.000 NA
ATOM     22  C   UNL     1       2.240   8.402  18.179  0.00  0.00    +0.000 C 
ATOM     23  C   UNL     1       1.789   9.322  19.311  0.00  0.00    +0.000 C 
ATOM     24  C   UNL     1       0.981   8.524  20.338  0.00  0.00    +0.000 C 
ATOM     25  C   UNL     1       1.778   7.330  20.858  0.00  0.00    +0.000 C 
ATOM     26  C   UNL     1       2.209   6.472  19.667  0.00  0.00    +0.000 C 
ENDBRANCH   1  24
BRANCH   4  27
ATOM     27  C   UNL     1      -1.446  12.043  22.974  0.00  0.00    +0.000 A 
ATOM     28  C   UNL     1      -2.782  11.892  23.375  0.00  0.00    +0.000 A 
ATOM     29  C   UNL     1      -3.518  12.980  23.845  0.00  0.00    +0.000 A 
ATOM     30  C   UNL     1      -2.936  14.239  23.874  0.00  0.00    +0.000 A 
ATOM     31  F   UNL     1      -3.649  15.284  24.314  0.00  0.00    +0.000 F 
ATOM     32  C   UNL     1      -1.631  14.429  23.439  0.00  0.00    +0.000 A 
ATOM     33  C   UNL     1      -0.886  13.332  22.990  0.00  0.00    +0.000 A 
ENDBRANCH   4  27
TORSDOF 4
ENDMDL
MODEL 4
REMARK VINA RESULT:      -7.7      3.235      5.629
REMARK  Name = 
REMARK  5 active torsions:
REMARK  status: ('A' for Active; 'I' for Inactive)
REMARK    1  A    between atoms: C_1  and  N_2
REMARK    2  A    between atoms: C_5  and  N_6
REMARK    3  A    between atoms: C_9  and  C_10
REMARK    4  A    between atoms: C_17  and  C_18
REMARK    5  A    between atoms: N_23  and  C_24
REMARK                            x       y       z     vdW  Elec       q    Type
REMARK                         _______ _______ _______ _____ _____    ______ ____
ROOT
ATOM      1  N   UNL     1      -0.998  11.108  22.384  0.00  0.00    +0.000 N 
ATOM      2  C   UNL     1      -0.609  10.152  23.282  0.00  0.00    +0.000 A 
ATOM      3  N   UNL     1       0.135   9.235  22.720  0.00  0.00    +0.000 NA
ATOM      4  C   UNL     1       0.234   9.598  21.392  0.00  0.00    +0.000 A 
ATOM      5  C   UNL     1      -0.475  10.777  21.141  0.00  0.00    +0.000 A 
ENDROOT
BRANCH   5   6
ATOM      6  C   UNL     1      -0.592  11.590  19.924  0.00  0.00    +0.000 A 
ATOM      7  C   UNL     1      -1.505  11.369  18.920  0.00  0.00    +0.000 A 
ATOM      8  C   UNL     1      -1.450  12.245  17.863  0.00  0.00    +0.000 A 
ATOM      9  N   UNL     1      -0.515  13.202  17.735  0.00  0.00    +0.000 NA
ATOM     10  C   UNL     1       0.357  13.327  18.742  0.00  0.00    +0.000 A 
ATOM     11  N   UNL     1       1.397  14.238  18.582  0.00  0.00    +0.000 N 
ATOM     12  N   UNL     1       0.309  12.577  19.851  0.00  0.00    +0.000 NA
ATOM     13  H   UNL     1       1.431  14.612  17.645  0.00  0.00    +0.000 HD
BRANCH  11  14
ATOM     14  C   UNL     1       2.202  14.837  19.560  0.00  0.00    +0.000 A 
ATOM     15  C   UNL     1       1.724  15.909  20.307  0.00  0.00    +0.000 A 
ATOM     16  C   UNL     1       2.574  16.525  21.213  0.00  0.00    +0.000 A 
ATOM     17  N   UNL     1       3.852  16.143  21.431  0.00  0.00    +0.000 NA
ATOM     18  C   UNL     1       4.303  15.120  20.683  0.00  0.00    +0.000 A 
ATOM     19  C   UNL     1       3.534  14.458  19.744  0.00  0.00    +0.000 A 
ENDBRANCH  11  14
ENDBRANCH   5   6
BRANCH   1  24
ATOM     20  C   UNL     1      -4.003  15.399  24.567  0.00  0.00    +0.000 C 
ATOM     21  N   UNL     1      -3.097  14.269  24.346  0.00  0.00    +0.000 NA
ATOM     22  C   UNL     1      -3.859  13.091  23.920  0.00  0.00    +0.000 C 
ATOM     23  C   UNL     1      -2.939  11.891  23.712  0.00  0.00    +0.000 C 
ATOM     24  C   UNL     1      -1.831  12.251  22.719  0.00  0.00    +0.000 C 
ATOM     25  C   UNL     1      -1.059  13.487  23.178  0.00  0.00    +0.000 C 
ATOM     26  C   UNL     1      -2.050  14.635  23.383  0.00  0.00    +0.000 C 
ENDBRANCH   1  24
BRANCH   4  27
ATOM     27  C   UNL     1       1.016   8.791  20.453  0.00  0.00    +0.000 A 
ATOM     28  C   UNL     1       1.310   9.231  19.153  0.00  0.00    +0.000 A 
ATOM     29  C   UNL     1       2.094   8.460  18.294  0.00  0.00    +0.000 A 
ATOM     30  C   UNL     1       2.553   7.219  18.714  0.00  0.00    +0.000 A 
ATOM     31  F   UNL     1       3.296   6.476  17.883  0.00  0.00    +0.000 F 
ATOM     32  C   UNL     1       2.239   6.736  19.978  0.00  0.00    +0.000 A 
ATOM     33  C   UNL     1       1.473   7.521  20.846  0.00  0.00    +0.000 A 
ENDBRANCH   4  27
TORSDOF 4
ENDMDL
MODEL 5
REMARK VINA RESULT:      -7.6      3.018      4.773
REMARK  Name = 
REMARK  5 active torsions:
REMARK  status: ('A' for Active; 'I' for Inactive)
REMARK    1  A    between atoms: C_1  and  N_2
REMARK    2  A    between atoms: C_5  and  N_6
REMARK    3  A    between atoms: C_9  and  C_10
REMARK    4  A    between atoms: C_17  and  C_18
REMARK    5  A    between atoms: N_23  and  C_24
REMARK                            x       y       z     vdW  Elec       q    Type
REMARK                         _______ _______ _______ _____ _____    ______ ____
ROOT
ATOM      1  N   UNL     1      -0.671  10.803  22.151  0.00  0.00    +0.000 N 
ATOM      2  C   UNL     1       0.054  10.106  23.078  0.00  0.00    +0.000 A 
ATOM      3  N   UNL     1       0.822   9.209  22.517  0.00  0.00    +0.000 NA
ATOM      4  C   UNL     1       0.588   9.314  21.161  0.00  0.00    +0.000 A 
ATOM      5  C   UNL     1      -0.356  10.310  20.891  0.00  0.00    +0.000 A 
ENDROOT
BRANCH   5   6
ATOM      6  C   UNL     1      -0.858  10.843  19.619  0.00  0.00    +0.000 A 
ATOM      7  C   UNL     1      -1.549  10.113  18.682  0.00  0.00    +0.000 A 
ATOM      8  C   UNL     1      -1.931  10.800  17.556  0.00  0.00    +0.000 A 
ATOM      9  N   UNL     1      -1.581  12.073  17.303  0.00  0.00    +0.000 NA
ATOM     10  C   UNL     1      -0.878  12.701  18.254  0.00  0.00    +0.000 A 
ATOM     11  N   UNL     1      -0.415  13.982  17.969  0.00  0.00    +0.000 N 
ATOM     12  N   UNL     1      -0.553  12.131  19.422  0.00  0.00    +0.000 NA
ATOM     13  H   UNL     1      -0.570  14.234  17.004  0.00  0.00    +0.000 HD
BRANCH  11  14
ATOM     14  C   UNL     1      -0.001  14.987  18.854  0.00  0.00    +0.000 A 
ATOM     15  C   UNL     1       1.353  15.230  19.061  0.00  0.00    +0.000 A 
ATOM     16  C   UNL     1       1.726  16.180  20.000  0.00  0.00    +0.000 A 
ATOM     17  N   UNL     1       0.850  16.906  20.731  0.00  0.00    +0.000 NA
ATOM     18  C   UNL     1      -0.454  16.639  20.533  0.00  0.00    +0.000 A 
ATOM     19  C   UNL     1      -0.917  15.698  19.632  0.00  0.00    +0.000 A 
ENDBRANCH  11  14
ENDBRANCH   5   6
BRANCH   1  24
ATOM     20  C   UNL     1      -3.991  14.881  24.285  0.00  0.00    +0.000 C 
ATOM     21  N   UNL     1      -2.970  13.855  24.061  0.00  0.00    +0.000 NA
ATOM     22  C   UNL     1      -3.608  12.558  23.818  0.00  0.00    +0.000 C 
ATOM     23  C   UNL     1      -2.561  11.465  23.612  0.00  0.00    +0.000 C 
ATOM     24  C   UNL     1      -1.612  11.862  22.479  0.00  0.00    +0.000 C 
ATOM     25  C   UNL     1      -0.969  13.221  22.749  0.00  0.00    +0.000 C 
ATOM     26  C   UNL     1      -2.078  14.253  22.964  0.00  0.00    +0.000 C 
ENDBRANCH   1  24
BRANCH   4  27
ATOM     27  C   UNL     1       1.297   8.455  20.210  0.00  0.00    +0.000 A 
ATOM     28  C   UNL     1       1.649   8.893  18.925  0.00  0.00    +0.000 A 
ATOM     29  C   UNL     1       2.364   8.068  18.055  0.00  0.00    +0.000 A 
ATOM     30  C   UNL     1       2.694   6.779  18.451  0.00  0.00    +0.000 A 
ATOM     31  F   UNL     1       3.370   5.985  17.610  0.00  0.00    +0.000 F 
ATOM     32  C   UNL     1       2.319   6.300  19.699  0.00  0.00    +0.000 A 
ATOM     33  C   UNL     1       1.622   7.138  20.578  0.00  0.00    +0.000 A 
ENDBRANCH   4  27
TORSDOF 4
ENDMDL
MODEL 6
REMARK VINA RESULT:      -7.5      3.522      6.027
REMARK  Name = 
REMARK  5 active torsions:
REMARK  status: ('A' for Active; 'I' for Inactive)
REMARK    1  A    between atoms: C_1  and  N_2
REMARK    2  A    between atoms: C_5  and  N_6
REMARK    3  A    between atoms: C_9  and  C_10
REMARK    4  A    between atoms: C_17  and  C_18
REMARK    5  A    between atoms: N_23  and  C_24
REMARK                            x       y       z     vdW  Elec       q    Type
REMARK                         _______ _______ _______ _____ _____    ______ ____
ROOT
ATOM      1  N   UNL     1      -1.204  11.509  22.414  0.00  0.00    +0.000 N 
ATOM      2  C   UNL     1      -1.142  10.371  23.171  0.00  0.00    +0.000 A 
ATOM      3  N   UNL     1      -0.443   9.436  22.582  0.00  0.00    +0.000 NA
ATOM      4  C   UNL     1      -0.033   9.978  21.380  0.00  0.00    +0.000 A 
ATOM      5  C   UNL     1      -0.500  11.289  21.238  0.00  0.00    +0.000 A 
ENDROOT
BRANCH   5   6
ATOM      6  C   UNL     1      -0.258  12.290  20.192  0.00  0.00    +0.000 A 
ATOM      7  C   UNL     1      -0.964  12.380  19.016  0.00  0.00    +0.000 A 
ATOM      8  C   UNL     1      -0.579  13.389  18.167  0.00  0.00    +0.000 A 
ATOM      9  N   UNL     1       0.479  14.189  18.389  0.00  0.00    +0.000 NA
ATOM     10  C   UNL     1       1.133  14.011  19.543  0.00  0.00    +0.000 A 
ATOM     11  N   UNL     1       2.293  14.753  19.746  0.00  0.00    +0.000 N 
ATOM     12  N   UNL     1       0.759  13.115  20.467  0.00  0.00    +0.000 NA
ATOM     13  H   UNL     1       2.567  15.258  18.916  0.00  0.00    +0.000 HD
BRANCH  11  14
ATOM     14  C   UNL     1       2.949  15.052  20.946  0.00  0.00    +0.000 A 
ATOM     15  C   UNL     1       4.023  14.277  21.374  0.00  0.00    +0.000 A 
ATOM     16  C   UNL     1       4.601  14.556  22.604  0.00  0.00    +0.000 A 
ATOM     17  N   UNL     1       4.194  15.552  23.423  0.00  0.00    +0.000 NA
ATOM     18  C   UNL     1       3.140  16.274  23.002  0.00  0.00    +0.000 A 
ATOM     19  C   UNL     1       2.491  16.057  21.801  0.00  0.00    +0.000 A 
ENDBRANCH  11  14
ENDBRANCH   5   6
BRANCH   1  24
ATOM     20  C   UNL     1      -3.842  15.915  24.830  0.00  0.00    +0.000 C 
ATOM     21  N   UNL     1      -3.073  14.699  24.554  0.00  0.00    +0.000 NA
ATOM     22  C   UNL     1      -3.932  13.697  23.915  0.00  0.00    +0.000 C 
ATOM     23  C   UNL     1      -3.159  12.408  23.645  0.00  0.00    +0.000 C 
ATOM     24  C   UNL     1      -1.912  12.715  22.812  0.00  0.00    +0.000 C 
ATOM     25  C   UNL     1      -1.040  13.769  23.491  0.00  0.00    +0.000 C 
ATOM     26  C   UNL     1      -1.889  15.017  23.746  0.00  0.00    +0.000 C 
ENDBRANCH   1  24
BRANCH   4  27
ATOM     27  C   UNL     1       0.792   9.203  20.452  0.00  0.00    +0.000 A 
ATOM     28  C   UNL     1       1.009   9.607  19.127  0.00  0.00    +0.000 A 
ATOM     29  C   UNL     1       1.836   8.872  18.277  0.00  0.00    +0.000 A 
ATOM     30  C   UNL     1       2.418   7.698  18.735  0.00  0.00    +0.000 A 
ATOM     31  F   UNL     1       3.202   6.987  17.914  0.00  0.00    +0.000 F 
ATOM     32  C   UNL     1       2.185   7.246  20.028  0.00  0.00    +0.000 A 
ATOM     33  C   UNL     1       1.374   7.999  20.886  0.00  0.00    +0.000 A 
ENDBRANCH   4  27
TORSDOF 4
ENDMDL
MODEL 7
REMARK VINA RESULT:      -7.4      2.973      4.886
REMARK  Name = 
REMARK  5 active torsions:
REMARK  status: ('A' for Active; 'I' for Inactive)
REMARK    1  A    between atoms: C_1  and  N_2
REMARK    2  A    between atoms: C_5  and  N_6
REMARK    3  A    between atoms: C_9  and  C_10
REMARK    4  A    between atoms: C_17  and  C_18
REMARK    5  A    between atoms: N_23  and  C_24
REMARK                            x       y       z     vdW  Elec       q    Type
REMARK                         _______ _______ _______ _____ _____    ______ ____
ROOT
ATOM      1  N   UNL     1      -0.745  10.970  22.186  0.00  0.00    +0.000 N 
ATOM      2  C   UNL     1      -0.028  10.281  23.125  0.00  0.00    +0.000 A 
ATOM      3  N   UNL     1       0.752   9.385  22.576  0.00  0.00    +0.000 NA
ATOM      4  C   UNL     1       0.532   9.484  21.217  0.00  0.00    +0.000 A 
ATOM      5  C   UNL     1      -0.413  10.473  20.933  0.00  0.00    +0.000 A 
ENDROOT
BRANCH   5   6
ATOM      6  C   UNL     1      -0.904  11.000  19.653  0.00  0.00    +0.000 A 
ATOM      7  C   UNL     1      -1.626  10.276  18.735  0.00  0.00    +0.000 A 
ATOM      8  C   UNL     1      -1.989  10.954  17.596  0.00  0.00    +0.000 A 
ATOM      9  N   UNL     1      -1.595  12.208  17.316  0.00  0.00    +0.000 NA
ATOM     10  C   UNL     1      -0.865  12.829  18.250  0.00  0.00    +0.000 A 
ATOM     11  N   UNL     1      -0.357  14.087  17.938  0.00  0.00    +0.000 N 
ATOM     12  N   UNL     1      -0.553  12.272  19.428  0.00  0.00    +0.000 NA
ATOM     13  H   UNL     1      -0.509  14.325  16.968  0.00  0.00    +0.000 HD
BRANCH  11  14
ATOM     14  C   UNL     1       0.097  15.093  18.800  0.00  0.00    +0.000 A 
ATOM     15  C   UNL     1      -0.807  15.947  19.425  0.00  0.00    +0.000 A 
ATOM     16  C   UNL     1      -0.318  16.979  20.212  0.00  0.00    +0.000 A 
ATOM     17  N   UNL     1       0.997  17.209  20.427  0.00  0.00    +0.000 NA
ATOM     18  C   UNL     1       1.855  16.387  19.796  0.00  0.00    +0.000 A 
ATOM     19  C   UNL     1       1.459  15.344  18.979  0.00  0.00    +0.000 A 
ENDBRANCH  11  14
ENDBRANCH   5   6
BRANCH   1  24
ATOM     20  C   UNL     1      -4.110  15.040  24.265  0.00  0.00    +0.000 C 
ATOM     21  N   UNL     1      -3.081  14.018  24.058  0.00  0.00    +0.000 NA
ATOM     22  C   UNL     1      -3.709  12.716  23.813  0.00  0.00    +0.000 C 
ATOM     23  C   UNL     1      -2.655  11.628  23.623  0.00  0.00    +0.000 C 
ATOM     24  C   UNL     1      -1.695  12.026  22.499  0.00  0.00    +0.000 C 
ATOM     25  C   UNL     1      -1.063  13.389  22.771  0.00  0.00    +0.000 C 
ATOM     26  C   UNL     1      -2.179  14.416  22.969  0.00  0.00    +0.000 C 
ENDBRANCH   1  24
BRANCH   4  27
ATOM     27  C   UNL     1       1.258   8.625  20.278  0.00  0.00    +0.000 A 
ATOM     28  C   UNL     1       1.687   7.334  20.624  0.00  0.00    +0.000 A 
ATOM     29  C   UNL     1       2.338   6.521  19.695  0.00  0.00    +0.000 A 
ATOM     30  C   UNL     1       2.605   7.011  18.424  0.00  0.00    +0.000 A 
ATOM     31  F   UNL     1       3.240   6.233  17.539  0.00  0.00    +0.000 F 
ATOM     32  C   UNL     1       2.235   8.302  18.068  0.00  0.00    +0.000 A 
ATOM     33  C   UNL     1       1.561   9.107  18.993  0.00  0.00    +0.000 A 
ENDBRANCH   4  27
TORSDOF 4
ENDMDL
MODEL 8
REMARK VINA RESULT:      -7.4      1.202      1.564
REMARK  Name = 
REMARK  5 active torsions:
REMARK  status: ('A' for Active; 'I' for Inactive)
REMARK    1  A    between atoms: C_1  and  N_2
REMARK    2  A    between atoms: C_5  and  N_6
REMARK    3  A    between atoms: C_9  and  C_10
REMARK    4  A    between atoms: C_17  and  C_18
REMARK    5  A    between atoms: N_23  and  C_24
REMARK                            x       y       z     vdW  Elec       q    Type
REMARK                         _______ _______ _______ _____ _____    ______ ____
ROOT
ATOM      1  N   UNL     1      -1.449  13.377  21.158  0.00  0.00    +0.000 N 
ATOM      2  C   UNL     1      -0.479  13.363  22.123  0.00  0.00    +0.000 A 
ATOM      3  N   UNL     1       0.303  12.321  22.009  0.00  0.00    +0.000 NA
ATOM      4  C   UNL     1      -0.177  11.613  20.926  0.00  0.00    +0.000 A 
ATOM      5  C   UNL     1      -1.289  12.248  20.364  0.00  0.00    +0.000 A 
ENDROOT
BRANCH   5   6
ATOM      6  C   UNL     1      -2.077  11.932  19.167  0.00  0.00    +0.000 A 
ATOM      7  C   UNL     1      -1.555  11.775  17.905  0.00  0.00    +0.000 A 
ATOM      8  C   UNL     1      -2.464  11.483  16.918  0.00  0.00    +0.000 A 
ATOM      9  N   UNL     1      -3.794  11.448  17.113  0.00  0.00    +0.000 NA
ATOM     10  C   UNL     1      -4.221  11.646  18.367  0.00  0.00    +0.000 A 
ATOM     11  N   UNL     1      -5.595  11.720  18.573  0.00  0.00    +0.000 N 
ATOM     12  N   UNL     1      -3.392  11.838  19.401  0.00  0.00    +0.000 NA
ATOM     13  H   UNL     1      -6.107  11.736  17.703  0.00  0.00    +0.000 HD
BRANCH  11  14
ATOM     14  C   UNL     1      -6.318  11.547  19.760  0.00  0.00    +0.000 A 
ATOM     15  C   UNL     1      -7.116  10.421  19.942  0.00  0.00    +0.000 A 
ATOM     16  C   UNL     1      -7.877  10.320  21.097  0.00  0.00    +0.000 A 
ATOM     17  N   UNL     1      -7.887  11.249  22.080  0.00  0.00    +0.000 NA
ATOM     18  C   UNL     1      -7.127  12.340  21.875  0.00  0.00    +0.000 A 
ATOM     19  C   UNL     1      -6.352  12.534  20.747  0.00  0.00    +0.000 A 
ENDBRANCH  11  14
ENDBRANCH   5   6
BRANCH   1  24
ATOM     20  C   UNL     1      -5.046  17.756  21.457  0.00  0.00    +0.000 C 
ATOM     21  N   UNL     1      -3.953  16.801  21.657  0.00  0.00    +0.000 NA
ATOM     22  C   UNL     1      -4.495  15.488  22.020  0.00  0.00    +0.000 C 
ATOM     23  C   UNL     1      -3.372  14.482  22.263  0.00  0.00    +0.000 C 
ATOM     24  C   UNL     1      -2.463  14.411  21.034  0.00  0.00    +0.000 C 
ATOM     25  C   UNL     1      -1.920  15.792  20.670  0.00  0.00    +0.000 C 
ATOM     26  C   UNL     1      -3.101  16.743  20.463  0.00  0.00    +0.000 C 
ENDBRANCH   1  24
BRANCH   4  27
ATOM     27  C   UNL     1       0.474  10.374  20.494  0.00  0.00    +0.000 A 
ATOM     28  C   UNL     1       1.012  10.221  19.207  0.00  0.00    +0.000 A 
ATOM     29  C   UNL     1       1.666   9.045  18.837  0.00  0.00    +0.000 A 
ATOM     30  C   UNL     1       1.748   7.994  19.740  0.00  0.00    +0.000 A 
ATOM     31  F   UNL     1       2.366   6.863  19.378  0.00  0.00    +0.000 F 
ATOM     32  C   UNL     1       1.185   8.098  21.005  0.00  0.00    +0.000 A 
ATOM     33  C   UNL     1       0.550   9.287  21.382  0.00  0.00    +0.000 A 
ENDBRANCH   4  27
TORSDOF 4
ENDMDL
MODEL 9
REMARK VINA RESULT:      -7.4      3.481      6.927
REMARK  Name = 
REMARK  5 active torsions:
REMARK  status: ('A' for Active; 'I' for Inactive)
REMARK    1  A    between atoms: C_1  and  N_2
REMARK    2  A    between atoms: C_5  and  N_6
REMARK    3  A    between atoms: C_9  and  C_10
REMARK    4  A    between atoms: C_17  and  C_18
REMARK    5  A    between atoms: N_23  and  C_24
REMARK                            x       y       z     vdW  Elec       q    Type
REMARK                         _______ _______ _______ _____ _____    ______ ____
ROOT
ATOM      1  N   UNL     1       0.593   9.428  21.569  0.00  0.00    +0.000 N 
ATOM      2  C   UNL     1       0.035   8.871  22.687  0.00  0.00    +0.000 A 
ATOM      3  N   UNL     1      -0.725   9.724  23.325  0.00  0.00    +0.000 NA
ATOM      4  C   UNL     1      -0.660  10.896  22.598  0.00  0.00    +0.000 A 
ATOM      5  C   UNL     1       0.170  10.748  21.482  0.00  0.00    +0.000 A 
ENDROOT
BRANCH   5   6
ATOM      6  C   UNL     1       0.478  11.669  20.381  0.00  0.00    +0.000 A 
ATOM      7  C   UNL     1       1.578  12.492  20.334  0.00  0.00    +0.000 A 
ATOM      8  C   UNL     1       1.683  13.281  19.215  0.00  0.00    +0.000 A 
ATOM      9  N   UNL     1       0.741  13.348  18.258  0.00  0.00    +0.000 NA
ATOM     10  C   UNL     1      -0.315  12.538  18.398  0.00  0.00    +0.000 A 
ATOM     11  N   UNL     1      -1.351  12.667  17.478  0.00  0.00    +0.000 N 
ATOM     12  N   UNL     1      -0.442  11.669  19.410  0.00  0.00    +0.000 NA
ATOM     13  H   UNL     1      -1.221  13.466  16.874  0.00  0.00    +0.000 HD
BRANCH  11  14
ATOM     14  C   UNL     1      -2.360  11.752  17.153  0.00  0.00    +0.000 A 
ATOM     15  C   UNL     1      -2.257  10.965  16.010  0.00  0.00    +0.000 A 
ATOM     16  C   UNL     1      -3.310  10.125  15.679  0.00  0.00    +0.000 A 
ATOM     17  N   UNL     1      -4.442  10.007  16.409  0.00  0.00    +0.000 NA
ATOM     18  C   UNL     1      -4.532  10.793  17.497  0.00  0.00    +0.000 A 
ATOM     19  C   UNL     1      -3.542  11.672  17.893  0.00  0.00    +0.000 A 
ENDBRANCH  11  14
ENDBRANCH   5   6
BRANCH   1  24
ATOM     20  C   UNL     1       3.321   6.188  17.792  0.00  0.00    +0.000 C 
ATOM     21  N   UNL     1       2.320   6.863  18.622  0.00  0.00    +0.000 NA
ATOM     22  C   UNL     1       2.545   6.544  20.036  0.00  0.00    +0.000 C 
ATOM     23  C   UNL     1       1.495   7.212  20.920  0.00  0.00    +0.000 C 
ATOM     24  C   UNL     1       1.484   8.721  20.664  0.00  0.00    +0.000 C 
ATOM     25  C   UNL     1       1.261   9.028  19.184  0.00  0.00    +0.000 C 
ATOM     26  C   UNL     1       2.336   8.309  18.367  0.00  0.00    +0.000 C 
ENDBRANCH   1  24
BRANCH   4  27
ATOM     27  C   UNL     1      -1.410  12.080  23.021  0.00  0.00    +0.000 A 
ATOM     28  C   UNL     1      -0.830  13.357  23.067  0.00  0.00    +0.000 A 
ATOM     29  C   UNL     1      -1.581  14.475  23.432  0.00  0.00    +0.000 A 
ATOM     30  C   UNL     1      -2.911  14.316  23.797  0.00  0.00    +0.000 A 
ATOM     31  F   UNL     1      -3.626  15.389  24.159  0.00  0.00    +0.000 F 
ATOM     32  C   UNL     1      -3.501  13.059  23.807  0.00  0.00    +0.000 A 
ATOM     33  C   UNL     1      -2.752  11.943  23.418  0.00  0.00    +0.000 A 
ENDBRANCH   4  27
TORSDOF 4
ENDMDL
