MODEL 1
REMARK VINA RESULT:      -7.1      0.000      0.000
REMARK  Name = 
REMARK  6 active torsions:
REMARK  status: ('A' for Active; 'I' for Inactive)
REMARK    1  A    between atoms: C_1  and  C_2
REMARK    2  A    between atoms: C_2  and  C_3
REMARK    3  A    between atoms: C_2  and  C_4
REMARK    4  A    between atoms: N_6  and  C_7
REMARK    5  A    between atoms: C_8  and  C_9
REMARK    6  A    between atoms: N_24  and  C_25
REMARK                            x       y       z     vdW  Elec       q    Type
REMARK                         _______ _______ _______ _____ _____    ______ ____
ROOT
ATOM      1  C   UNL     1       2.379   6.821  20.071  0.00  0.00    +0.000 A 
ATOM      2  C   UNL     1       2.904   6.915  18.823  0.00  0.00    +0.000 A 
ATOM      3  C   UNL     1       2.518   8.075  17.982  0.00  0.00    +0.000 A 
ATOM      4  O   UNL     1       2.927   8.196  16.826  0.00  0.00    +0.000 OA
ATOM      5  C   UNL     1       1.614   9.087  18.547  0.00  0.00    +0.000 A 
ATOM      6  C   UNL     1       1.245  10.172  17.731  0.00  0.00    +0.000 A 
ATOM      7  C   UNL     1       0.383  11.144  18.210  0.00  0.00    +0.000 A 
ATOM      8  C   UNL     1      -0.085  11.046  19.515  0.00  0.00    +0.000 A 
ATOM      9  C   UNL     1       0.299   9.964  20.327  0.00  0.00    +0.000 A 
ATOM     10  C   UNL     1       1.141   8.934  19.863  0.00  0.00    +0.000 A 
ATOM     11  N   UNL     1       1.501   7.784  20.610  0.00  0.00    +0.000 N 
ATOM     12  C   UNL     1       1.042   7.656  22.001  0.00  0.00    +0.000 C 
ENDROOT
BRANCH   2  13
ATOM     13  C   UNL     1       3.761   5.887  18.186  0.00  0.00    +0.000 A 
ATOM     14  C   UNL     1       5.150   6.078  18.186  0.00  0.00    +0.000 A 
ATOM     15  C   UNL     1       5.983   5.230  17.453  0.00  0.00    +0.000 A 
ATOM     16  C   UNL     1       5.437   4.173  16.726  0.00  0.00    +0.000 A 
ATOM     17  C   UNL     1       4.059   3.950  16.747  0.00  0.00    +0.000 A 
ATOM     18  C   UNL     1       3.224   4.805  17.470  0.00  0.00    +0.000 A 
ATOM     19 CL   UNL     1       1.520   4.492  17.429  0.00  0.00    +0.000 Cl
ENDBRANCH   2  13
BRANCH   1  22
ATOM     20  C   UNL     1       1.778   4.589  20.830  0.00  0.00    +0.000 C 
ATOM     21  O   UNL     1       0.659   4.603  20.326  0.00  0.00    +0.000 OA
ATOM     22  N   UNL     1       2.665   5.662  20.784  0.00  0.00    +0.000 N 
ATOM     23  H   UNL     1       3.640   5.388  20.761  0.00  0.00    +0.000 HD
BRANCH  20  25
ATOM     24  C   UNL     1       1.239   2.397  21.939  0.00  0.00    +0.000 C 
ATOM     25  C   UNL     1       2.355   3.363  21.543  0.00  0.00    +0.000 C 
ATOM     26  C   UNL     1       3.379   2.644  20.662  0.00  0.00    +0.000 C 
ENDBRANCH  20  25
ENDBRANCH   1  22
TORSDOF 3
ENDMDL
MODEL 2
REMARK VINA RESULT:      -7.0      1.900      2.491
REMARK  Name = 
REMARK  6 active torsions:
REMARK  status: ('A' for Active; 'I' for Inactive)
REMARK    1  A    between atoms: C_1  and  C_2
REMARK    2  A    between atoms: C_2  and  C_3
REMARK    3  A    between atoms: C_2  and  C_4
REMARK    4  A    between atoms: N_6  and  C_7
REMARK    5  A    between atoms: C_8  and  C_9
REMARK    6  A    between atoms: N_24  and  C_25
REMARK                            x       y       z     vdW  Elec       q    Type
REMARK                         _______ _______ _______ _____ _____    ______ ____
ROOT
ATOM      1  C   UNL     1       3.338   5.639  19.072  0.00  0.00    +0.000 A 
ATOM      2  C   UNL     1       3.966   6.176  17.996  0.00  0.00    +0.000 A 
ATOM      3  C   UNL     1       3.576   7.539  17.560  0.00  0.00    +0.000 A 
ATOM      4  O   UNL     1       4.079   8.066  16.567  0.00  0.00    +0.000 OA
ATOM      5  C   UNL     1       2.553   8.260  18.331  0.00  0.00    +0.000 A 
ATOM      6  C   UNL     1       2.182   9.546  17.894  0.00  0.00    +0.000 A 
ATOM      7  C   UNL     1       1.212  10.261  18.576  0.00  0.00    +0.000 A 
ATOM      8  C   UNL     1       0.635   9.702  19.709  0.00  0.00    +0.000 A 
ATOM      9  C   UNL     1       1.020   8.422  20.144  0.00  0.00    +0.000 A 
ATOM     10  C   UNL     1       1.974   7.647  19.455  0.00  0.00    +0.000 A 
ATOM     11  N   UNL     1       2.346   6.324  19.805  0.00  0.00    +0.000 N 
ATOM     12  C   UNL     1       1.772   5.708  21.009  0.00  0.00    +0.000 C 
ENDROOT
BRANCH   2  13
ATOM     13  C   UNL     1       4.950   5.463  17.148  0.00  0.00    +0.000 A 
ATOM     14  C   UNL     1       4.497   4.835  15.978  0.00  0.00    +0.000 A 
ATOM     15  C   UNL     1       5.349   4.011  15.240  0.00  0.00    +0.000 A 
ATOM     16  C   UNL     1       6.666   3.817  15.655  0.00  0.00    +0.000 A 
ATOM     17  C   UNL     1       7.140   4.465  16.797  0.00  0.00    +0.000 A 
ATOM     18  C   UNL     1       6.285   5.280  17.543  0.00  0.00    +0.000 A 
ATOM     19 CL   UNL     1       6.927   6.029  18.968  0.00  0.00    +0.000 Cl
ENDBRANCH   2  13
BRANCH   1  22
ATOM     20  C   UNL     1       2.847   3.259  18.938  0.00  0.00    +0.000 C 
ATOM     21  O   UNL     1       1.792   3.403  18.326  0.00  0.00    +0.000 OA
ATOM     22  N   UNL     1       3.641   4.316  19.377  0.00  0.00    +0.000 N 
ATOM     23  H   UNL     1       4.631   4.107  19.391  0.00  0.00    +0.000 HD
BRANCH  20  25
ATOM     24  C   UNL     1       3.963   1.216  17.987  0.00  0.00    +0.000 C 
ATOM     25  C   UNL     1       3.443   1.886  19.258  0.00  0.00    +0.000 C 
ATOM     26  C   UNL     1       4.571   2.002  20.286  0.00  0.00    +0.000 C 
ENDBRANCH  20  25
ENDBRANCH   1  22
TORSDOF 3
ENDMDL
MODEL 3
REMARK VINA RESULT:      -6.8      1.960      5.860
REMARK  Name = 
REMARK  6 active torsions:
REMARK  status: ('A' for Active; 'I' for Inactive)
REMARK    1  A    between atoms: C_1  and  C_2
REMARK    2  A    between atoms: C_2  and  C_3
REMARK    3  A    between atoms: C_2  and  C_4
REMARK    4  A    between atoms: N_6  and  C_7
REMARK    5  A    between atoms: C_8  and  C_9
REMARK    6  A    between atoms: N_24  and  C_25
REMARK                            x       y       z     vdW  Elec       q    Type
REMARK                         _______ _______ _______ _____ _____    ______ ____
ROOT
ATOM      1  C   UNL     1       4.172   5.852  18.373  0.00  0.00    +0.000 A 
ATOM      2  C   UNL     1       3.796   4.550  18.434  0.00  0.00    +0.000 A 
ATOM      3  C   UNL     1       4.295   3.623  17.389  0.00  0.00    +0.000 A 
ATOM      4  O   UNL     1       3.957   2.438  17.365  0.00  0.00    +0.000 OA
ATOM      5  C   UNL     1       5.199   4.146  16.355  0.00  0.00    +0.000 A 
ATOM      6  C   UNL     1       5.650   3.257  15.361  0.00  0.00    +0.000 A 
ATOM      7  C   UNL     1       6.490   3.704  14.355  0.00  0.00    +0.000 A 
ATOM      8  C   UNL     1       6.903   5.031  14.361  0.00  0.00    +0.000 A 
ATOM      9  C   UNL     1       6.456   5.908  15.365  0.00  0.00    +0.000 A 
ATOM     10  C   UNL     1       5.569   5.502  16.381  0.00  0.00    +0.000 A 
ATOM     11  N   UNL     1       5.029   6.359  17.374  0.00  0.00    +0.000 N 
ATOM     12  C   UNL     1       5.458   7.764  17.424  0.00  0.00    +0.000 C 
ENDROOT
BRANCH   2  13
ATOM     13  C   UNL     1       2.833   3.992  19.413  0.00  0.00    +0.000 A 
ATOM     14  C   UNL     1       3.312   3.580  20.665  0.00  0.00    +0.000 A 
ATOM     15  C   UNL     1       2.480   2.895  21.553  0.00  0.00    +0.000 A 
ATOM     16  C   UNL     1       1.157   2.627  21.204  0.00  0.00    +0.000 A 
ATOM     17  C   UNL     1       0.657   3.063  19.976  0.00  0.00    +0.000 A 
ATOM     18  C   UNL     1       1.492   3.739  19.082  0.00  0.00    +0.000 A 
ATOM     19 CL   UNL     1       0.819   4.225  17.561  0.00  0.00    +0.000 Cl
ENDBRANCH   2  13
BRANCH   1  22
ATOM     20  C   UNL     1       2.452   7.461  18.989  0.00  0.00    +0.000 C 
ATOM     21  O   UNL     1       1.925   7.483  17.880  0.00  0.00    +0.000 OA
ATOM     22  N   UNL     1       3.589   6.715  19.295  0.00  0.00    +0.000 N 
ATOM     23  H   UNL     1       3.618   6.385  20.252  0.00  0.00    +0.000 HD
BRANCH  20  25
ATOM     24  C   UNL     1       0.976   9.356  19.730  0.00  0.00    +0.000 C 
ATOM     25  C   UNL     1       1.895   8.225  20.192  0.00  0.00    +0.000 C 
ATOM     26  C   UNL     1       1.137   7.290  21.137  0.00  0.00    +0.000 C 
ENDBRANCH  20  25
ENDBRANCH   1  22
TORSDOF 3
ENDMDL
MODEL 4
REMARK VINA RESULT:      -6.7      3.764      6.082
REMARK  Name = 
REMARK  6 active torsions:
REMARK  status: ('A' for Active; 'I' for Inactive)
REMARK    1  A    between atoms: C_1  and  C_2
REMARK    2  A    between atoms: C_2  and  C_3
REMARK    3  A    between atoms: C_2  and  C_4
REMARK    4  A    between atoms: N_6  and  C_7
REMARK    5  A    between atoms: C_8  and  C_9
REMARK    6  A    between atoms: N_24  and  C_25
REMARK                            x       y       z     vdW  Elec       q    Type
REMARK                         _______ _______ _______ _____ _____    ______ ____
ROOT
ATOM      1  C   UNL     1       4.875   3.826  17.528  0.00  0.00    +0.000 A 
ATOM      2  C   UNL     1       5.045   4.949  18.270  0.00  0.00    +0.000 A 
ATOM      3  C   UNL     1       4.032   5.271  19.305  0.00  0.00    +0.000 A 
ATOM      4  O   UNL     1       4.107   6.297  19.983  0.00  0.00    +0.000 OA
ATOM      5  C   UNL     1       2.908   4.344  19.503  0.00  0.00    +0.000 A 
ATOM      6  C   UNL     1       1.946   4.672  20.477  0.00  0.00    +0.000 A 
ATOM      7  C   UNL     1       0.860   3.841  20.692  0.00  0.00    +0.000 A 
ATOM      8  C   UNL     1       0.753   2.668  19.955  0.00  0.00    +0.000 A 
ATOM      9  C   UNL     1       1.725   2.343  18.993  0.00  0.00    +0.000 A 
ATOM     10  C   UNL     1       2.822   3.183  18.716  0.00  0.00    +0.000 A 
ATOM     11  N   UNL     1       3.790   2.943  17.708  0.00  0.00    +0.000 N 
ATOM     12  C   UNL     1       3.721   1.703  16.922  0.00  0.00    +0.000 C 
ENDROOT
BRANCH   2  13
ATOM     13  C   UNL     1       6.120   5.948  18.059  0.00  0.00    +0.000 A 
ATOM     14  C   UNL     1       7.301   5.830  18.806  0.00  0.00    +0.000 A 
ATOM     15  C   UNL     1       8.268   6.837  18.769  0.00  0.00    +0.000 A 
ATOM     16  C   UNL     1       8.071   7.965  17.973  0.00  0.00    +0.000 A 
ATOM     17  C   UNL     1       6.916   8.078  17.197  0.00  0.00    +0.000 A 
ATOM     18  C   UNL     1       5.943   7.076  17.242  0.00  0.00    +0.000 A 
ATOM     19 CL   UNL     1       4.519   7.293  16.279  0.00  0.00    +0.000 Cl
ENDBRANCH   2  13
BRANCH   1  22
ATOM     20  C   UNL     1       5.503   4.035  15.186  0.00  0.00    +0.000 C 
ATOM     21  O   UNL     1       4.437   4.531  14.834  0.00  0.00    +0.000 OA
ATOM     22  N   UNL     1       5.776   3.622  16.488  0.00  0.00    +0.000 N 
ATOM     23  H   UNL     1       6.748   3.716  16.754  0.00  0.00    +0.000 HD
BRANCH  20  25
ATOM     24  C   UNL     1       6.200   3.474  12.836  0.00  0.00    +0.000 C 
ATOM     25  C   UNL     1       6.688   3.846  14.236  0.00  0.00    +0.000 C 
ATOM     26  C   UNL     1       7.549   5.109  14.170  0.00  0.00    +0.000 C 
ENDBRANCH  20  25
ENDBRANCH   1  22
TORSDOF 3
ENDMDL
MODEL 5
REMARK VINA RESULT:      -6.7      7.217     10.705
REMARK  Name = 
REMARK  6 active torsions:
REMARK  status: ('A' for Active; 'I' for Inactive)
REMARK    1  A    between atoms: C_1  and  C_2
REMARK    2  A    between atoms: C_2  and  C_3
REMARK    3  A    between atoms: C_2  and  C_4
REMARK    4  A    between atoms: N_6  and  C_7
REMARK    5  A    between atoms: C_8  and  C_9
REMARK    6  A    between atoms: N_24  and  C_25
REMARK                            x       y       z     vdW  Elec       q    Type
REMARK                         _______ _______ _______ _____ _____    ______ ____
ROOT
ATOM      1  C   UNL     1      -4.823  12.741  19.912  0.00  0.00    +0.000 A 
ATOM      2  C   UNL     1      -3.664  12.783  20.616  0.00  0.00    +0.000 A 
ATOM      3  C   UNL     1      -2.482  12.070  20.071  0.00  0.00    +0.000 A 
ATOM      4  O   UNL     1      -1.413  12.035  20.682  0.00  0.00    +0.000 OA
ATOM      5  C   UNL     1      -2.609  11.380  18.779  0.00  0.00    +0.000 A 
ATOM      6  C   UNL     1      -1.483  10.695  18.284  0.00  0.00    +0.000 A 
ATOM      7  C   UNL     1      -1.555  10.015  17.080  0.00  0.00    +0.000 A 
ATOM      8  C   UNL     1      -2.742  10.047  16.357  0.00  0.00    +0.000 A 
ATOM      9  C   UNL     1      -3.857  10.744  16.855  0.00  0.00    +0.000 A 
ATOM     10  C   UNL     1      -3.836  11.413  18.095  0.00  0.00    +0.000 A 
ATOM     11  N   UNL     1      -4.950  12.068  18.679  0.00  0.00    +0.000 N 
ATOM     12  C   UNL     1      -6.216  12.139  17.936  0.00  0.00    +0.000 C 
ENDROOT
BRANCH   2  13
ATOM     13  C   UNL     1      -3.507  13.404  21.953  0.00  0.00    +0.000 A 
ATOM     14  C   UNL     1      -3.773  12.626  23.089  0.00  0.00    +0.000 A 
ATOM     15  C   UNL     1      -3.806  13.210  24.357  0.00  0.00    +0.000 A 
ATOM     16  C   UNL     1      -3.559  14.574  24.504  0.00  0.00    +0.000 A 
ATOM     17  C   UNL     1      -3.258  15.353  23.385  0.00  0.00    +0.000 A 
ATOM     18  C   UNL     1      -3.236  14.772  22.114  0.00  0.00    +0.000 A 
ATOM     19 CL   UNL     1      -2.886  15.800  20.764  0.00  0.00    +0.000 Cl
ENDBRANCH   2  13
BRANCH   1  22
ATOM     20  C   UNL     1      -6.851  12.559  21.245  0.00  0.00    +0.000 C 
ATOM     21  O   UNL     1      -6.795  11.338  21.358  0.00  0.00    +0.000 OA
ATOM     22  N   UNL     1      -5.939  13.315  20.512  0.00  0.00    +0.000 N 
ATOM     23  H   UNL     1      -5.782  14.243  20.883  0.00  0.00    +0.000 HD
BRANCH  20  25
ATOM     24  C   UNL     1      -7.893  13.177  23.449  0.00  0.00    +0.000 C 
ATOM     25  C   UNL     1      -7.917  13.412  21.939  0.00  0.00    +0.000 C 
ATOM     26  C   UNL     1      -7.715  14.899  21.639  0.00  0.00    +0.000 C 
ENDBRANCH  20  25
ENDBRANCH   1  22
TORSDOF 3
ENDMDL
MODEL 6
REMARK VINA RESULT:      -6.5      2.221      6.007
REMARK  Name = 
REMARK  6 active torsions:
REMARK  status: ('A' for Active; 'I' for Inactive)
REMARK    1  A    between atoms: C_1  and  C_2
REMARK    2  A    between atoms: C_2  and  C_3
REMARK    3  A    between atoms: C_2  and  C_4
REMARK    4  A    between atoms: N_6  and  C_7
REMARK    5  A    between atoms: C_8  and  C_9
REMARK    6  A    between atoms: N_24  and  C_25
REMARK                            x       y       z     vdW  Elec       q    Type
REMARK                         _______ _______ _______ _____ _____    ______ ____
ROOT
ATOM      1  C   UNL     1       4.136   5.618  18.274  0.00  0.00    +0.000 A 
ATOM      2  C   UNL     1       3.759   4.314  18.274  0.00  0.00    +0.000 A 
ATOM      3  C   UNL     1       4.232   3.444  17.170  0.00  0.00    +0.000 A 
ATOM      4  O   UNL     1       3.891   2.262  17.091  0.00  0.00    +0.000 OA
ATOM      5  C   UNL     1       5.112   4.021  16.144  0.00  0.00    +0.000 A 
ATOM      6  C   UNL     1       5.538   3.186  15.093  0.00  0.00    +0.000 A 
ATOM      7  C   UNL     1       6.354   3.686  14.093  0.00  0.00    +0.000 A 
ATOM      8  C   UNL     1       6.769   5.010  14.160  0.00  0.00    +0.000 A 
ATOM      9  C   UNL     1       6.348   5.833  15.220  0.00  0.00    +0.000 A 
ATOM     10  C   UNL     1       5.484   5.373  16.234  0.00  0.00    +0.000 A 
ATOM     11  N   UNL     1       4.969   6.177  17.283  0.00  0.00    +0.000 N 
ATOM     12  C   UNL     1       5.401   7.577  17.398  0.00  0.00    +0.000 C 
ENDROOT
BRANCH   2  13
ATOM     13  C   UNL     1       2.819   3.705  19.245  0.00  0.00    +0.000 A 
ATOM     14  C   UNL     1       1.455   4.017  19.143  0.00  0.00    +0.000 A 
ATOM     15  C   UNL     1       0.558   3.607  20.132  0.00  0.00    +0.000 A 
ATOM     16  C   UNL     1       1.012   2.870  21.225  0.00  0.00    +0.000 A 
ATOM     17  C   UNL     1       2.361   2.522  21.320  0.00  0.00    +0.000 A 
ATOM     18  C   UNL     1       3.261   2.941  20.337  0.00  0.00    +0.000 A 
ATOM     19 CL   UNL     1       4.927   2.503  20.530  0.00  0.00    +0.000 Cl
ENDBRANCH   2  13
BRANCH   1  22
ATOM     20  C   UNL     1       2.506   7.280  18.983  0.00  0.00    +0.000 C 
ATOM     21  O   UNL     1       2.026   7.442  17.865  0.00  0.00    +0.000 OA
ATOM     22  N   UNL     1       3.576   6.430  19.254  0.00  0.00    +0.000 N 
ATOM     23  H   UNL     1       3.544   6.011  20.175  0.00  0.00    +0.000 HD
BRANCH  20  25
ATOM     24  C   UNL     1       1.052   9.140  19.849  0.00  0.00    +0.000 C 
ATOM     25  C   UNL     1       1.953   7.968  20.234  0.00  0.00    +0.000 C 
ATOM     26  C   UNL     1       1.179   6.980  21.110  0.00  0.00    +0.000 C 
ENDBRANCH  20  25
ENDBRANCH   1  22
TORSDOF 3
ENDMDL
MODEL 7
REMARK VINA RESULT:      -6.5      7.196     10.346
REMARK  Name = 
REMARK  6 active torsions:
REMARK  status: ('A' for Active; 'I' for Inactive)
REMARK    1  A    between atoms: C_1  and  C_2
REMARK    2  A    between atoms: C_2  and  C_3
REMARK    3  A    between atoms: C_2  and  C_4
REMARK    4  A    between atoms: N_6  and  C_7
REMARK    5  A    between atoms: C_8  and  C_9
REMARK    6  A    between atoms: N_24  and  C_25
REMARK                            x       y       z     vdW  Elec       q    Type
REMARK                         _______ _______ _______ _____ _____    ______ ____
ROOT
ATOM      1  C   UNL     1      -4.270  13.213  20.319  0.00  0.00    +0.000 A 
ATOM      2  C   UNL     1      -2.960  13.314  20.656  0.00  0.00    +0.000 A 
ATOM      3  C   UNL     1      -1.976  12.487  19.916  0.00  0.00    +0.000 A 
ATOM      4  O   UNL     1      -0.777  12.502  20.202  0.00  0.00    +0.000 OA
ATOM      5  C   UNL     1      -2.457  11.622  18.830  0.00  0.00    +0.000 A 
ATOM      6  C   UNL     1      -1.513  10.830  18.148  0.00  0.00    +0.000 A 
ATOM      7  C   UNL     1      -1.917   9.986  17.128  0.00  0.00    +0.000 A 
ATOM      8  C   UNL     1      -3.259   9.956  16.770  0.00  0.00    +0.000 A 
ATOM      9  C   UNL     1      -4.193  10.759  17.449  0.00  0.00    +0.000 A 
ATOM     10  C   UNL     1      -3.827  11.599  18.518  0.00  0.00    +0.000 A 
ATOM     11  N   UNL     1      -4.735  12.373  19.286  0.00  0.00    +0.000 N 
ATOM     12  C   UNL     1      -6.160  12.382  18.923  0.00  0.00    +0.000 C 
ENDROOT
BRANCH   2  13
ATOM     13  C   UNL     1      -2.437  14.117  21.787  0.00  0.00    +0.000 A 
ATOM     14  C   UNL     1      -2.093  15.457  21.556  0.00  0.00    +0.000 A 
ATOM     15  C   UNL     1      -1.440  16.202  22.540  0.00  0.00    +0.000 A 
ATOM     16  C   UNL     1      -1.137  15.620  23.770  0.00  0.00    +0.000 A 
ATOM     17  C   UNL     1      -1.505  14.298  24.026  0.00  0.00    +0.000 A 
ATOM     18  C   UNL     1      -2.149  13.548  23.038  0.00  0.00    +0.000 A 
ATOM     19 CL   UNL     1      -2.551  11.904  23.408  0.00  0.00    +0.000 Cl
ENDBRANCH   2  13
BRANCH   1  22
ATOM     20  C   UNL     1      -5.818  13.310  22.194  0.00  0.00    +0.000 C 
ATOM     21  O   UNL     1      -5.706  12.123  22.485  0.00  0.00    +0.000 OA
ATOM     22  N   UNL     1      -5.175  13.909  21.113  0.00  0.00    +0.000 N 
ATOM     23  H   UNL     1      -4.936  14.881  21.264  0.00  0.00    +0.000 HD
BRANCH  20  25
ATOM     24  C   UNL     1      -7.489  13.551  24.058  0.00  0.00    +0.000 C 
ATOM     25  C   UNL     1      -6.653  14.295  23.016  0.00  0.00    +0.000 C 
ATOM     26  C   UNL     1      -5.764  15.332  23.704  0.00  0.00    +0.000 C 
ENDBRANCH  20  25
ENDBRANCH   1  22
TORSDOF 3
ENDMDL
MODEL 8
REMARK VINA RESULT:      -6.4      1.850      4.036
REMARK  Name = 
REMARK  6 active torsions:
REMARK  status: ('A' for Active; 'I' for Inactive)
REMARK    1  A    between atoms: C_1  and  C_2
REMARK    2  A    between atoms: C_2  and  C_3
REMARK    3  A    between atoms: C_2  and  C_4
REMARK    4  A    between atoms: N_6  and  C_7
REMARK    5  A    between atoms: C_8  and  C_9
REMARK    6  A    between atoms: N_24  and  C_25
REMARK                            x       y       z     vdW  Elec       q    Type
REMARK                         _______ _______ _______ _____ _____    ______ ____
ROOT
ATOM      1  C   UNL     1       2.992   6.411  18.332  0.00  0.00    +0.000 A 
ATOM      2  C   UNL     1       2.568   5.458  19.199  0.00  0.00    +0.000 A 
ATOM      3  C   UNL     1       1.763   5.880  20.371  0.00  0.00    +0.000 A 
ATOM      4  O   UNL     1       1.383   5.068  21.217  0.00  0.00    +0.000 OA
ATOM      5  C   UNL     1       1.432   7.304  20.525  0.00  0.00    +0.000 A 
ATOM      6  C   UNL     1       0.682   7.690  21.652  0.00  0.00    +0.000 A 
ATOM      7  C   UNL     1       0.358   9.021  21.850  0.00  0.00    +0.000 A 
ATOM      8  C   UNL     1       0.758   9.961  20.908  0.00  0.00    +0.000 A 
ATOM      9  C   UNL     1       1.497   9.563  19.780  0.00  0.00    +0.000 A 
ATOM     10  C   UNL     1       1.881   8.226  19.563  0.00  0.00    +0.000 A 
ATOM     11  N   UNL     1       2.687   7.780  18.484  0.00  0.00    +0.000 N 
ATOM     12  C   UNL     1       3.112   8.741  17.457  0.00  0.00    +0.000 C 
ENDROOT
BRANCH   2  13
ATOM     13  C   UNL     1       2.934   4.024  19.125  0.00  0.00    +0.000 A 
ATOM     14  C   UNL     1       3.998   3.562  19.914  0.00  0.00    +0.000 A 
ATOM     15  C   UNL     1       4.489   2.264  19.753  0.00  0.00    +0.000 A 
ATOM     16  C   UNL     1       3.913   1.411  18.813  0.00  0.00    +0.000 A 
ATOM     17  C   UNL     1       2.830   1.846  18.047  0.00  0.00    +0.000 A 
ATOM     18  C   UNL     1       2.346   3.148  18.199  0.00  0.00    +0.000 A 
ATOM     19 CL   UNL     1       1.020   3.636  17.194  0.00  0.00    +0.000 Cl
ENDBRANCH   2  13
BRANCH   1  22
ATOM     20  C   UNL     1       5.222   5.897  17.503  0.00  0.00    +0.000 C 
ATOM     21  O   UNL     1       5.799   6.235  18.532  0.00  0.00    +0.000 OA
ATOM     22  N   UNL     1       3.845   5.996  17.314  0.00  0.00    +0.000 N 
ATOM     23  H   UNL     1       3.459   5.277  16.714  0.00  0.00    +0.000 HD
BRANCH  20  25
ATOM     24  C   UNL     1       7.285   4.679  16.738  0.00  0.00    +0.000 C 
ATOM     25  C   UNL     1       5.948   5.280  16.305  0.00  0.00    +0.000 C 
ATOM     26  C   UNL     1       5.088   4.209  15.630  0.00  0.00    +0.000 C 
ENDBRANCH  20  25
ENDBRANCH   1  22
TORSDOF 3
ENDMDL
MODEL 9
REMARK VINA RESULT:      -6.3      5.412      9.769
REMARK  Name = 
REMARK  6 active torsions:
REMARK  status: ('A' for Active; 'I' for Inactive)
REMARK    1  A    between atoms: C_1  and  C_2
REMARK    2  A    between atoms: C_2  and  C_3
REMARK    3  A    between atoms: C_2  and  C_4
REMARK    4  A    between atoms: N_6  and  C_7
REMARK    5  A    between atoms: C_8  and  C_9
REMARK    6  A    between atoms: N_24  and  C_25
REMARK                            x       y       z     vdW  Elec       q    Type
REMARK                         _______ _______ _______ _____ _____    ______ ____
ROOT
ATOM      1  C   UNL     1      -1.888  12.443  20.438  0.00  0.00    +0.000 A 
ATOM      2  C   UNL     1      -1.530  12.180  21.720  0.00  0.00    +0.000 A 
ATOM      3  C   UNL     1      -0.548  11.097  21.970  0.00  0.00    +0.000 A 
ATOM      4  O   UNL     1      -0.213  10.781  23.113  0.00  0.00    +0.000 OA
ATOM      5  C   UNL     1       0.018  10.379  20.819  0.00  0.00    +0.000 A 
ATOM      6  C   UNL     1       0.936   9.342  21.073  0.00  0.00    +0.000 A 
ATOM      7  C   UNL     1       1.486   8.625  20.024  0.00  0.00    +0.000 A 
ATOM      8  C   UNL     1       1.142   8.964  18.722  0.00  0.00    +0.000 A 
ATOM      9  C   UNL     1       0.233  10.010  18.478  0.00  0.00    +0.000 A 
ATOM     10  C   UNL     1      -0.379  10.735  19.518  0.00  0.00    +0.000 A 
ATOM     11  N   UNL     1      -1.355  11.747  19.334  0.00  0.00    +0.000 N 
ATOM     12  C   UNL     1      -1.730  12.147  17.970  0.00  0.00    +0.000 C 
ENDROOT
BRANCH   2  13
ATOM     13  C   UNL     1      -2.124  12.827  22.915  0.00  0.00    +0.000 A 
ATOM     14  C   UNL     1      -3.284  12.269  23.472  0.00  0.00    +0.000 A 
ATOM     15  C   UNL     1      -3.975  12.935  24.486  0.00  0.00    +0.000 A 
ATOM     16  C   UNL     1      -3.506  14.157  24.964  0.00  0.00    +0.000 A 
ATOM     17  C   UNL     1      -2.333  14.706  24.444  0.00  0.00    +0.000 A 
ATOM     18  C   UNL     1      -1.647  14.047  23.420  0.00  0.00    +0.000 A 
ATOM     19 CL   UNL     1      -0.215  14.797  22.796  0.00  0.00    +0.000 Cl
ENDBRANCH   2  13
BRANCH   1  22
ATOM     20  C   UNL     1      -4.240  13.010  20.175  0.00  0.00    +0.000 C 
ATOM     21  O   UNL     1      -4.631  11.847  20.185  0.00  0.00    +0.000 OA
ATOM     22  N   UNL     1      -2.899  13.380  20.252  0.00  0.00    +0.000 N 
ATOM     23  H   UNL     1      -2.742  14.262  20.723  0.00  0.00    +0.000 HD
BRANCH  20  25
ATOM     24  C   UNL     1      -6.643  13.747  20.227  0.00  0.00    +0.000 C 
ATOM     25  C   UNL     1      -5.190  14.208  20.118  0.00  0.00    +0.000 C 
ATOM     26  C   UNL     1      -4.877  15.214  21.228  0.00  0.00    +0.000 C 
ENDBRANCH  20  25
ENDBRANCH   1  22
TORSDOF 3
ENDMDL
