MODEL 1
REMARK VINA RESULT:      -7.1      0.000      0.000
REMARK  Name = 
REMARK  12 active torsions:
REMARK  status: ('A' for Active; 'I' for Inactive)
REMARK    1  A    between atoms: C_1  and  C_2
REMARK    2  A    between atoms: N_4  and  O_5
REMARK    3  A    between atoms: N_4  and  C_6
REMARK    4  A    between atoms: C_6  and  C_7
REMARK    5  A    between atoms: C_7  and  C_8
REMARK    6  A    between atoms: C_8  and  C_9
REMARK    7  A    between atoms: C_9  and  C_10
REMARK    8  A    between atoms: C_10  and  N_11
REMARK    9  A    between atoms: N_11  and  O_12
REMARK   10  A    between atoms: C_13  and  C_15
REMARK   11  A    between atoms: C_18  and  C_19
REMARK   12  A    between atoms: C_24  and  O_25
REMARK                            x       y       z     vdW  Elec       q    Type
REMARK                         _______ _______ _______ _____ _____    ______ ____
ROOT
ATOM      1  N   UNL     1       5.837   6.291  17.564  0.00  0.00    +0.000 N 
ATOM      2  C   UNL     1       5.354   5.415  18.517  0.00  0.00    +0.000 C 
ATOM      3  O   UNL     1       6.117   4.754  19.230  0.00  0.00    +0.000 OA
ENDROOT
BRANCH   2   4
ATOM      4  C   UNL     1       3.829   5.366  18.699  0.00  0.00    +0.000 C 
ATOM      5  C   UNL     1       3.455   4.544  19.927  0.00  0.00    +0.000 C 
ATOM      6  S   UNL     1       1.930   5.315  20.495  0.00  0.00    +0.000 S 
ATOM      7  C   UNL     1       2.396   6.829  19.734  0.00  0.00    +0.000 C 
ATOM      8  N   UNL     1       3.358   6.764  18.865  0.00  0.00    +0.000 NA
BRANCH   7   9
ATOM      9  C   UNL     1       1.689   8.082  20.118  0.00  0.00    +0.000 A 
ATOM     10  N   UNL     1       1.332   8.187  21.432  0.00  0.00    +0.000 NA
ATOM     11  C   UNL     1       0.661   9.295  21.807  0.00  0.00    +0.000 A 
ATOM     12  C   UNL     1       0.319  10.317  20.938  0.00  0.00    +0.000 A 
ATOM     13  C   UNL     1       0.687  10.202  19.602  0.00  0.00    +0.000 A 
ATOM     14  C   UNL     1       1.383   9.071  19.178  0.00  0.00    +0.000 A 
BRANCH  14  15
ATOM     15  O   UNL     1       1.770   8.986  17.871  0.00  0.00    +0.000 OA
ATOM     16  H   UNL     1       1.598   8.093  17.536  0.00  0.00    +0.000 HD
ENDBRANCH  14  15
ENDBRANCH   7   9
ENDBRANCH   2   4
BRANCH   1  17
ATOM     17  O   UNL     1       4.944   6.776  16.589  0.00  0.00    +0.000 OA
ATOM     18  H   UNL     1       5.475   7.387  16.049  0.00  0.00    +0.000 HD
ENDBRANCH   1  17
BRANCH   1  19
ATOM     19  C   UNL     1       7.257   6.436  17.252  0.00  0.00    +0.000 C 
BRANCH  19  20
ATOM     20  C   UNL     1       8.002   7.291  18.283  0.00  0.00    +0.000 C 
BRANCH  20  21
ATOM     21  C   UNL     1       8.024   8.774  17.908  0.00  0.00    +0.000 C 
BRANCH  21  22
ATOM     22  C   UNL     1       9.015   9.557  18.769  0.00  0.00    +0.000 C 
BRANCH  22  23
ATOM     23  C   UNL     1       9.113  11.003  18.286  0.00  0.00    +0.000 C 
BRANCH  23  27
ATOM     24  C   UNL     1      10.210  12.077  20.862  0.00  0.00    +0.000 C 
ATOM     25  C   UNL     1      11.054  12.018  19.618  0.00  0.00    +0.000 C 
ATOM     26  O   UNL     1      12.238  12.364  19.615  0.00  0.00    +0.000 OA
ATOM     27  N   UNL     1      10.445  11.562  18.479  0.00  0.00    +0.000 N 
BRANCH  27  28
ATOM     28  O   UNL     1      11.270  11.431  17.339  0.00  0.00    +0.000 OA
ATOM     29  H   UNL     1      11.107  10.497  17.080  0.00  0.00    +0.000 HD
ENDBRANCH  27  28
ENDBRANCH  23  27
ENDBRANCH  22  23
ENDBRANCH  21  22
ENDBRANCH  20  21
ENDBRANCH  19  20
ENDBRANCH   1  19
TORSDOF 11
ENDMDL
MODEL 2
REMARK VINA RESULT:      -7.0      5.454      8.144
REMARK  Name = 
REMARK  12 active torsions:
REMARK  status: ('A' for Active; 'I' for Inactive)
REMARK    1  A    between atoms: C_1  and  C_2
REMARK    2  A    between atoms: N_4  and  O_5
REMARK    3  A    between atoms: N_4  and  C_6
REMARK    4  A    between atoms: C_6  and  C_7
REMARK    5  A    between atoms: C_7  and  C_8
REMARK    6  A    between atoms: C_8  and  C_9
REMARK    7  A    between atoms: C_9  and  C_10
REMARK    8  A    between atoms: C_10  and  N_11
REMARK    9  A    between atoms: N_11  and  O_12
REMARK   10  A    between atoms: C_13  and  C_15
REMARK   11  A    between atoms: C_18  and  C_19
REMARK   12  A    between atoms: C_24  and  O_25
REMARK                            x       y       z     vdW  Elec       q    Type
REMARK                         _______ _______ _______ _____ _____    ______ ____
ROOT
ATOM      1  N   UNL     1       2.017   8.195  18.793  0.00  0.00    +0.000 N 
ATOM      2  C   UNL     1       1.653   9.467  18.399  0.00  0.00    +0.000 C 
ATOM      3  O   UNL     1       2.062   9.957  17.341  0.00  0.00    +0.000 OA
ENDROOT
BRANCH   2   4
ATOM      4  C   UNL     1       0.650  10.207  19.301  0.00  0.00    +0.000 C 
ATOM      5  C   UNL     1       1.053  11.667  19.475  0.00  0.00    +0.000 C 
ATOM      6  S   UNL     1      -0.524  12.511  19.683  0.00  0.00    +0.000 S 
ATOM      7  C   UNL     1      -1.341  11.231  18.800  0.00  0.00    +0.000 C 
ATOM      8  N   UNL     1      -0.678  10.126  18.643  0.00  0.00    +0.000 NA
BRANCH   7   9
ATOM      9  C   UNL     1      -2.716  11.472  18.280  0.00  0.00    +0.000 A 
ATOM     10  N   UNL     1      -3.617  11.961  19.181  0.00  0.00    +0.000 NA
ATOM     11  C   UNL     1      -4.880  12.159  18.752  0.00  0.00    +0.000 A 
ATOM     12  C   UNL     1      -5.303  11.893  17.461  0.00  0.00    +0.000 A 
ATOM     13  C   UNL     1      -4.378  11.396  16.549  0.00  0.00    +0.000 A 
ATOM     14  C   UNL     1      -3.063  11.179  16.957  0.00  0.00    +0.000 A 
BRANCH  14  15
ATOM     15  O   UNL     1      -2.156  10.724  16.044  0.00  0.00    +0.000 OA
ATOM     16  H   UNL     1      -1.481  10.190  16.491  0.00  0.00    +0.000 HD
ENDBRANCH  14  15
ENDBRANCH   7   9
ENDBRANCH   2   4
BRANCH   1  17
ATOM     17  O   UNL     1       1.777   7.812  20.127  0.00  0.00    +0.000 OA
ATOM     18  H   UNL     1       1.678   6.845  20.094  0.00  0.00    +0.000 HD
ENDBRANCH   1  17
BRANCH   1  19
ATOM     19  C   UNL     1       2.979   7.372  18.061  0.00  0.00    +0.000 C 
BRANCH  19  20
ATOM     20  C   UNL     1       3.271   6.043  18.764  0.00  0.00    +0.000 C 
BRANCH  20  21
ATOM     21  C   UNL     1       3.513   4.899  17.777  0.00  0.00    +0.000 C 
BRANCH  21  22
ATOM     22  C   UNL     1       4.447   3.840  18.362  0.00  0.00    +0.000 C 
BRANCH  22  23
ATOM     23  C   UNL     1       3.736   3.053  19.463  0.00  0.00    +0.000 C 
BRANCH  23  27
ATOM     24  C   UNL     1       0.964   3.692  20.413  0.00  0.00    +0.000 C 
ATOM     25  C   UNL     1       1.202   2.691  19.315  0.00  0.00    +0.000 C 
ATOM     26  O   UNL     1       0.273   2.128  18.732  0.00  0.00    +0.000 OA
ATOM     27  N   UNL     1       2.507   2.429  18.990  0.00  0.00    +0.000 N 
BRANCH  27  28
ATOM     28  O   UNL     1       2.715   1.552  17.902  0.00  0.00    +0.000 OA
ATOM     29  H   UNL     1       2.140   1.950  17.212  0.00  0.00    +0.000 HD
ENDBRANCH  27  28
ENDBRANCH  23  27
ENDBRANCH  22  23
ENDBRANCH  21  22
ENDBRANCH  20  21
ENDBRANCH  19  20
ENDBRANCH   1  19
TORSDOF 11
ENDMDL
MODEL 3
REMARK VINA RESULT:      -7.0      5.090      7.088
REMARK  Name = 
REMARK  12 active torsions:
REMARK  status: ('A' for Active; 'I' for Inactive)
REMARK    1  A    between atoms: C_1  and  C_2
REMARK    2  A    between atoms: N_4  and  O_5
REMARK    3  A    between atoms: N_4  and  C_6
REMARK    4  A    between atoms: C_6  and  C_7
REMARK    5  A    between atoms: C_7  and  C_8
REMARK    6  A    between atoms: C_8  and  C_9
REMARK    7  A    between atoms: C_9  and  C_10
REMARK    8  A    between atoms: C_10  and  N_11
REMARK    9  A    between atoms: N_11  and  O_12
REMARK   10  A    between atoms: C_13  and  C_15
REMARK   11  A    between atoms: C_18  and  C_19
REMARK   12  A    between atoms: C_24  and  O_25
REMARK                            x       y       z     vdW  Elec       q    Type
REMARK                         _______ _______ _______ _____ _____    ______ ____
ROOT
ATOM      1  N   UNL     1       1.772   8.245  19.176  0.00  0.00    +0.000 N 
ATOM      2  C   UNL     1       1.655   9.447  18.505  0.00  0.00    +0.000 C 
ATOM      3  O   UNL     1       2.163   9.616  17.391  0.00  0.00    +0.000 OA
ENDROOT
BRANCH   2   4
ATOM      4  C   UNL     1       0.795  10.530  19.177  0.00  0.00    +0.000 C 
ATOM      5  C   UNL     1       1.235  11.922  18.738  0.00  0.00    +0.000 C 
ATOM      6  S   UNL     1      -0.288  12.880  18.804  0.00  0.00    +0.000 S 
ATOM      7  C   UNL     1      -1.234  11.418  18.574  0.00  0.00    +0.000 C 
ATOM      8  N   UNL     1      -0.613  10.294  18.765  0.00  0.00    +0.000 NA
BRANCH   7   9
ATOM      9  C   UNL     1      -2.664  11.534  18.174  0.00  0.00    +0.000 A 
ATOM     10  N   UNL     1      -3.518  11.990  19.138  0.00  0.00    +0.000 NA
ATOM     11  C   UNL     1      -4.825  12.076  18.818  0.00  0.00    +0.000 A 
ATOM     12  C   UNL     1      -5.339  11.727  17.581  0.00  0.00    +0.000 A 
ATOM     13  C   UNL     1      -4.462  11.264  16.606  0.00  0.00    +0.000 A 
ATOM     14  C   UNL     1      -3.102  11.163  16.899  0.00  0.00    +0.000 A 
BRANCH  14  15
ATOM     15  O   UNL     1      -2.246  10.741  15.923  0.00  0.00    +0.000 OA
ATOM     16  H   UNL     1      -1.557  11.408  15.781  0.00  0.00    +0.000 HD
ENDBRANCH  14  15
ENDBRANCH   7   9
ENDBRANCH   2   4
BRANCH   1  17
ATOM     17  O   UNL     1       1.447   8.209  20.545  0.00  0.00    +0.000 OA
ATOM     18  H   UNL     1       0.486   8.063  20.569  0.00  0.00    +0.000 HD
ENDBRANCH   1  17
BRANCH   1  19
ATOM     19  C   UNL     1       2.576   7.127  18.684  0.00  0.00    +0.000 C 
BRANCH  19  20
ATOM     20  C   UNL     1       2.619   5.956  19.671  0.00  0.00    +0.000 C 
BRANCH  20  21
ATOM     21  C   UNL     1       2.990   4.634  18.996  0.00  0.00    +0.000 C 
BRANCH  21  22
ATOM     22  C   UNL     1       3.459   4.850  17.557  0.00  0.00    +0.000 C 
BRANCH  22  23
ATOM     23  C   UNL     1       4.298   3.663  17.086  0.00  0.00    +0.000 C 
BRANCH  23  27
ATOM     24  C   UNL     1       5.795   4.463  14.614  0.00  0.00    +0.000 C 
ATOM     25  C   UNL     1       6.473   4.413  15.956  0.00  0.00    +0.000 C 
ATOM     26  O   UNL     1       7.653   4.740  16.104  0.00  0.00    +0.000 OA
ATOM     27  N   UNL     1       5.718   3.983  17.015  0.00  0.00    +0.000 N 
BRANCH  27  28
ATOM     28  O   UNL     1       6.341   4.021  18.283  0.00  0.00    +0.000 OA
ATOM     29  H   UNL     1       6.988   3.285  18.210  0.00  0.00    +0.000 HD
ENDBRANCH  27  28
ENDBRANCH  23  27
ENDBRANCH  22  23
ENDBRANCH  21  22
ENDBRANCH  20  21
ENDBRANCH  19  20
ENDBRANCH   1  19
TORSDOF 11
ENDMDL
MODEL 4
REMARK VINA RESULT:      -6.9      4.809      8.219
REMARK  Name = 
REMARK  12 active torsions:
REMARK  status: ('A' for Active; 'I' for Inactive)
REMARK    1  A    between atoms: C_1  and  C_2
REMARK    2  A    between atoms: N_4  and  O_5
REMARK    3  A    between atoms: N_4  and  C_6
REMARK    4  A    between atoms: C_6  and  C_7
REMARK    5  A    between atoms: C_7  and  C_8
REMARK    6  A    between atoms: C_8  and  C_9
REMARK    7  A    between atoms: C_9  and  C_10
REMARK    8  A    between atoms: C_10  and  N_11
REMARK    9  A    between atoms: N_11  and  O_12
REMARK   10  A    between atoms: C_13  and  C_15
REMARK   11  A    between atoms: C_18  and  C_19
REMARK   12  A    between atoms: C_24  and  O_25
REMARK                            x       y       z     vdW  Elec       q    Type
REMARK                         _______ _______ _______ _____ _____    ______ ____
ROOT
ATOM      1  N   UNL     1       3.237   3.221  18.271  0.00  0.00    +0.000 N 
ATOM      2  C   UNL     1       4.463   3.699  18.691  0.00  0.00    +0.000 C 
ATOM      3  O   UNL     1       5.099   3.138  19.590  0.00  0.00    +0.000 OA
ENDROOT
BRANCH   2   4
ATOM      4  C   UNL     1       5.029   4.909  17.930  0.00  0.00    +0.000 C 
ATOM      5  C   UNL     1       6.384   5.319  18.496  0.00  0.00    +0.000 C 
ATOM      6  S   UNL     1       7.244   5.994  17.065  0.00  0.00    +0.000 S 
ATOM      7  C   UNL     1       6.252   5.020  15.992  0.00  0.00    +0.000 C 
ATOM      8  N   UNL     1       5.178   4.506  16.508  0.00  0.00    +0.000 NA
BRANCH   7   9
ATOM      9  C   UNL     1       6.683   4.828  14.579  0.00  0.00    +0.000 A 
ATOM     10  N   UNL     1       7.810   5.502  14.202  0.00  0.00    +0.000 NA
ATOM     11  C   UNL     1       8.209   5.377  12.921  0.00  0.00    +0.000 A 
ATOM     12  C   UNL     1       7.544   4.610  11.979  0.00  0.00    +0.000 A 
ATOM     13  C   UNL     1       6.398   3.926  12.372  0.00  0.00    +0.000 A 
ATOM     14  C   UNL     1       5.955   4.032  13.690  0.00  0.00    +0.000 A 
BRANCH  14  15
ATOM     15  O   UNL     1       4.850   3.327  14.072  0.00  0.00    +0.000 OA
ATOM     16  H   UNL     1       4.943   2.401  13.804  0.00  0.00    +0.000 HD
ENDBRANCH  14  15
ENDBRANCH   7   9
ENDBRANCH   2   4
BRANCH   1  17
ATOM     17  O   UNL     1       2.430   4.058  17.475  0.00  0.00    +0.000 OA
ATOM     18  H   UNL     1       1.837   3.451  16.999  0.00  0.00    +0.000 HD
ENDBRANCH   1  17
BRANCH   1  19
ATOM     19  C   UNL     1       2.552   2.097  18.906  0.00  0.00    +0.000 C 
BRANCH  19  20
ATOM     20  C   UNL     1       1.321   2.535  19.706  0.00  0.00    +0.000 C 
BRANCH  20  21
ATOM     21  C   UNL     1       1.674   3.480  20.856  0.00  0.00    +0.000 C 
BRANCH  21  22
ATOM     22  C   UNL     1       1.117   4.884  20.621  0.00  0.00    +0.000 C 
BRANCH  22  23
ATOM     23  C   UNL     1       2.244   5.915  20.648  0.00  0.00    +0.000 C 
BRANCH  23  27
ATOM     24  C   UNL     1       1.192   8.558  21.598  0.00  0.00    +0.000 C 
ATOM     25  C   UNL     1       1.536   8.328  20.151  0.00  0.00    +0.000 C 
ATOM     26  O   UNL     1       1.443   9.223  19.308  0.00  0.00    +0.000 OA
ATOM     27  N   UNL     1       1.957   7.070  19.808  0.00  0.00    +0.000 N 
BRANCH  27  28
ATOM     28  O   UNL     1       2.357   6.891  18.464  0.00  0.00    +0.000 OA
ATOM     29  H   UNL     1       2.003   7.704  18.040  0.00  0.00    +0.000 HD
ENDBRANCH  27  28
ENDBRANCH  23  27
ENDBRANCH  22  23
ENDBRANCH  21  22
ENDBRANCH  20  21
ENDBRANCH  19  20
ENDBRANCH   1  19
TORSDOF 11
ENDMDL
MODEL 5
REMARK VINA RESULT:      -6.9      3.775      6.280
REMARK  Name = 
REMARK  12 active torsions:
REMARK  status: ('A' for Active; 'I' for Inactive)
REMARK    1  A    between atoms: C_1  and  C_2
REMARK    2  A    between atoms: N_4  and  O_5
REMARK    3  A    between atoms: N_4  and  C_6
REMARK    4  A    between atoms: C_6  and  C_7
REMARK    5  A    between atoms: C_7  and  C_8
REMARK    6  A    between atoms: C_8  and  C_9
REMARK    7  A    between atoms: C_9  and  C_10
REMARK    8  A    between atoms: C_10  and  N_11
REMARK    9  A    between atoms: N_11  and  O_12
REMARK   10  A    between atoms: C_13  and  C_15
REMARK   11  A    between atoms: C_18  and  C_19
REMARK   12  A    between atoms: C_24  and  O_25
REMARK                            x       y       z     vdW  Elec       q    Type
REMARK                         _______ _______ _______ _____ _____    ______ ____
ROOT
ATOM      1  N   UNL     1       2.037   8.044  19.239  0.00  0.00    +0.000 N 
ATOM      2  C   UNL     1       1.652   9.189  18.569  0.00  0.00    +0.000 C 
ATOM      3  O   UNL     1       1.971   9.384  17.391  0.00  0.00    +0.000 OA
ENDROOT
BRANCH   2   4
ATOM      4  C   UNL     1       0.740  10.162  19.334  0.00  0.00    +0.000 C 
ATOM      5  C   UNL     1       1.229  11.597  19.181  0.00  0.00    +0.000 C 
ATOM      6  S   UNL     1      -0.287  12.565  19.270  0.00  0.00    +0.000 S 
ATOM      7  C   UNL     1      -1.217  11.184  18.709  0.00  0.00    +0.000 C 
ATOM      8  N   UNL     1      -0.625  10.031  18.762  0.00  0.00    +0.000 NA
BRANCH   7   9
ATOM      9  C   UNL     1      -2.603  11.398  18.206  0.00  0.00    +0.000 A 
ATOM     10  N   UNL     1      -3.499  11.883  19.116  0.00  0.00    +0.000 NA
ATOM     11  C   UNL     1      -4.771  12.057  18.702  0.00  0.00    +0.000 A 
ATOM     12  C   UNL     1      -5.208  11.772  17.420  0.00  0.00    +0.000 A 
ATOM     13  C   UNL     1      -4.288  11.281  16.500  0.00  0.00    +0.000 A 
ATOM     14  C   UNL     1      -2.963  11.088  16.892  0.00  0.00    +0.000 A 
BRANCH  14  15
ATOM     15  O   UNL     1      -2.062  10.638  15.970  0.00  0.00    +0.000 OA
ATOM     16  H   UNL     1      -2.062  11.225  15.199  0.00  0.00    +0.000 HD
ENDBRANCH  14  15
ENDBRANCH   7   9
ENDBRANCH   2   4
BRANCH   1  17
ATOM     17  O   UNL     1       1.911   8.016  20.642  0.00  0.00    +0.000 OA
ATOM     18  H   UNL     1       1.042   8.415  20.822  0.00  0.00    +0.000 HD
ENDBRANCH   1  17
BRANCH   1  19
ATOM     19  C   UNL     1       2.922   7.035  18.662  0.00  0.00    +0.000 C 
BRANCH  19  20
ATOM     20  C   UNL     1       2.155   5.926  17.934  0.00  0.00    +0.000 C 
BRANCH  20  21
ATOM     21  C   UNL     1       3.001   4.668  17.726  0.00  0.00    +0.000 C 
BRANCH  21  22
ATOM     22  C   UNL     1       4.411   4.839  18.290  0.00  0.00    +0.000 C 
BRANCH  22  23
ATOM     23  C   UNL     1       5.439   4.850  17.159  0.00  0.00    +0.000 C 
BRANCH  23  27
ATOM     24  C   UNL     1       7.724   6.134  18.616  0.00  0.00    +0.000 C 
ATOM     25  C   UNL     1       7.038   6.830  17.472  0.00  0.00    +0.000 C 
ATOM     26  O   UNL     1       7.411   7.929  17.058  0.00  0.00    +0.000 OA
ATOM     27  N   UNL     1       5.969   6.184  16.907  0.00  0.00    +0.000 N 
BRANCH  27  28
ATOM     28  O   UNL     1       5.387   6.807  15.780  0.00  0.00    +0.000 OA
ATOM     29  H   UNL     1       6.124   7.376  15.464  0.00  0.00    +0.000 HD
ENDBRANCH  27  28
ENDBRANCH  23  27
ENDBRANCH  22  23
ENDBRANCH  21  22
ENDBRANCH  20  21
ENDBRANCH  19  20
ENDBRANCH   1  19
TORSDOF 11
ENDMDL
MODEL 6
REMARK VINA RESULT:      -6.8      4.419      6.787
REMARK  Name = 
REMARK  12 active torsions:
REMARK  status: ('A' for Active; 'I' for Inactive)
REMARK    1  A    between atoms: C_1  and  C_2
REMARK    2  A    between atoms: N_4  and  O_5
REMARK    3  A    between atoms: N_4  and  C_6
REMARK    4  A    between atoms: C_6  and  C_7
REMARK    5  A    between atoms: C_7  and  C_8
REMARK    6  A    between atoms: C_8  and  C_9
REMARK    7  A    between atoms: C_9  and  C_10
REMARK    8  A    between atoms: C_10  and  N_11
REMARK    9  A    between atoms: N_11  and  O_12
REMARK   10  A    between atoms: C_13  and  C_15
REMARK   11  A    between atoms: C_18  and  C_19
REMARK   12  A    between atoms: C_24  and  O_25
REMARK                            x       y       z     vdW  Elec       q    Type
REMARK                         _______ _______ _______ _____ _____    ______ ____
ROOT
ATOM      1  N   UNL     1       1.905   8.295  18.955  0.00  0.00    +0.000 N 
ATOM      2  C   UNL     1       1.574   9.538  18.452  0.00  0.00    +0.000 C 
ATOM      3  O   UNL     1       1.993   9.921  17.354  0.00  0.00    +0.000 OA
ENDROOT
BRANCH   2   4
ATOM      4  C   UNL     1       0.596  10.381  19.286  0.00  0.00    +0.000 C 
ATOM      5  C   UNL     1       1.002  11.850  19.276  0.00  0.00    +0.000 C 
ATOM      6  S   UNL     1      -0.569  12.717  19.425  0.00  0.00    +0.000 S 
ATOM      7  C   UNL     1      -1.409  11.344  18.721  0.00  0.00    +0.000 C 
ATOM      8  N   UNL     1      -0.750  10.227  18.678  0.00  0.00    +0.000 NA
BRANCH   7   9
ATOM      9  C   UNL     1      -2.798  11.525  18.213  0.00  0.00    +0.000 A 
ATOM     10  N   UNL     1      -3.716  11.954  19.129  0.00  0.00    +0.000 NA
ATOM     11  C   UNL     1      -4.990  12.097  18.709  0.00  0.00    +0.000 A 
ATOM     12  C   UNL     1      -5.408  11.832  17.417  0.00  0.00    +0.000 A 
ATOM     13  C   UNL     1      -4.466  11.395  16.492  0.00  0.00    +0.000 A 
ATOM     14  C   UNL     1      -3.139  11.237  16.888  0.00  0.00    +0.000 A 
BRANCH  14  15
ATOM     15  O   UNL     1      -2.216  10.843  15.962  0.00  0.00    +0.000 OA
ATOM     16  H   UNL     1      -1.815  10.004  16.237  0.00  0.00    +0.000 HD
ENDBRANCH  14  15
ENDBRANCH   7   9
ENDBRANCH   2   4
BRANCH   1  17
ATOM     17  O   UNL     1       1.660   8.038  20.318  0.00  0.00    +0.000 OA
ATOM     18  H   UNL     1       2.162   8.721  20.794  0.00  0.00    +0.000 HD
ENDBRANCH   1  17
BRANCH   1  19
ATOM     19  C   UNL     1       2.842   7.386  18.297  0.00  0.00    +0.000 C 
BRANCH  19  20
ATOM     20  C   UNL     1       2.309   5.952  18.215  0.00  0.00    +0.000 C 
BRANCH  20  21
ATOM     21  C   UNL     1       2.902   5.044  19.294  0.00  0.00    +0.000 C 
BRANCH  21  22
ATOM     22  C   UNL     1       4.396   5.301  19.487  0.00  0.00    +0.000 C 
BRANCH  22  23
ATOM     23  C   UNL     1       5.204   4.066  19.092  0.00  0.00    +0.000 C 
BRANCH  23  27
ATOM     24  C   UNL     1       7.798   5.552  18.851  0.00  0.00    +0.000 C 
ATOM     25  C   UNL     1       7.172   4.875  17.662  0.00  0.00    +0.000 C 
ATOM     26  O   UNL     1       7.717   4.863  16.556  0.00  0.00    +0.000 OA
ATOM     27  N   UNL     1       5.960   4.269  17.863  0.00  0.00    +0.000 N 
BRANCH  27  28
ATOM     28  O   UNL     1       5.424   3.565  16.761  0.00  0.00    +0.000 OA
ATOM     29  H   UNL     1       4.565   3.254  17.121  0.00  0.00    +0.000 HD
ENDBRANCH  27  28
ENDBRANCH  23  27
ENDBRANCH  22  23
ENDBRANCH  21  22
ENDBRANCH  20  21
ENDBRANCH  19  20
ENDBRANCH   1  19
TORSDOF 11
ENDMDL
MODEL 7
REMARK VINA RESULT:      -6.7      5.039      7.504
REMARK  Name = 
REMARK  12 active torsions:
REMARK  status: ('A' for Active; 'I' for Inactive)
REMARK    1  A    between atoms: C_1  and  C_2
REMARK    2  A    between atoms: N_4  and  O_5
REMARK    3  A    between atoms: N_4  and  C_6
REMARK    4  A    between atoms: C_6  and  C_7
REMARK    5  A    between atoms: C_7  and  C_8
REMARK    6  A    between atoms: C_8  and  C_9
REMARK    7  A    between atoms: C_9  and  C_10
REMARK    8  A    between atoms: C_10  and  N_11
REMARK    9  A    between atoms: N_11  and  O_12
REMARK   10  A    between atoms: C_13  and  C_15
REMARK   11  A    between atoms: C_18  and  C_19
REMARK   12  A    between atoms: C_24  and  O_25
REMARK                            x       y       z     vdW  Elec       q    Type
REMARK                         _______ _______ _______ _____ _____    ______ ____
ROOT
ATOM      1  N   UNL     1       2.235   7.881  18.967  0.00  0.00    +0.000 N 
ATOM      2  C   UNL     1       1.453   8.313  20.021  0.00  0.00    +0.000 C 
ATOM      3  O   UNL     1       1.501   7.762  21.127  0.00  0.00    +0.000 OA
ENDROOT
BRANCH   2   4
ATOM      4  C   UNL     1       0.588   9.559  19.772  0.00  0.00    +0.000 C 
ATOM      5  C   UNL     1      -0.119   9.992  21.051  0.00  0.00    +0.000 C 
ATOM      6  S   UNL     1      -0.259  11.778  20.865  0.00  0.00    +0.000 S 
ATOM      7  C   UNL     1       1.132  11.788  19.792  0.00  0.00    +0.000 C 
ATOM      8  N   UNL     1       1.494  10.640  19.307  0.00  0.00    +0.000 NA
BRANCH   7   9
ATOM      9  C   UNL     1       1.818  13.079  19.505  0.00  0.00    +0.000 A 
ATOM     10  N   UNL     1       1.710  14.039  20.470  0.00  0.00    +0.000 NA
ATOM     11  C   UNL     1       2.292  15.231  20.227  0.00  0.00    +0.000 A 
ATOM     12  C   UNL     1       2.981  15.528  19.064  0.00  0.00    +0.000 A 
ATOM     13  C   UNL     1       3.086  14.544  18.087  0.00  0.00    +0.000 A 
ATOM     14  C   UNL     1       2.498  13.298  18.303  0.00  0.00    +0.000 A 
BRANCH  14  15
ATOM     15  O   UNL     1       2.639  12.328  17.352  0.00  0.00    +0.000 OA
ATOM     16  H   UNL     1       2.859  12.735  16.500  0.00  0.00    +0.000 HD
ENDBRANCH  14  15
ENDBRANCH   7   9
ENDBRANCH   2   4
BRANCH   1  17
ATOM     17  O   UNL     1       1.921   8.335  17.672  0.00  0.00    +0.000 OA
ATOM     18  H   UNL     1       2.664   8.913  17.425  0.00  0.00    +0.000 HD
ENDBRANCH   1  17
BRANCH   1  19
ATOM     19  C   UNL     1       3.091   6.698  19.034  0.00  0.00    +0.000 C 
BRANCH  19  20
ATOM     20  C   UNL     1       2.694   5.626  18.014  0.00  0.00    +0.000 C 
BRANCH  20  21
ATOM     21  C   UNL     1       3.903   5.030  17.290  0.00  0.00    +0.000 C 
BRANCH  21  22
ATOM     22  C   UNL     1       4.565   3.927  18.116  0.00  0.00    +0.000 C 
BRANCH  22  23
ATOM     23  C   UNL     1       3.524   2.902  18.566  0.00  0.00    +0.000 C 
BRANCH  23  27
ATOM     24  C   UNL     1       1.229   3.302  20.454  0.00  0.00    +0.000 C 
ATOM     25  C   UNL     1       2.554   2.774  20.935  0.00  0.00    +0.000 C 
ATOM     26  O   UNL     1       2.737   2.442  22.108  0.00  0.00    +0.000 OA
ATOM     27  N   UNL     1       3.555   2.679  20.005  0.00  0.00    +0.000 N 
BRANCH  27  28
ATOM     28  O   UNL     1       4.766   2.102  20.450  0.00  0.00    +0.000 OA
ATOM     29  H   UNL     1       5.433   2.708  20.057  0.00  0.00    +0.000 HD
ENDBRANCH  27  28
ENDBRANCH  23  27
ENDBRANCH  22  23
ENDBRANCH  21  22
ENDBRANCH  20  21
ENDBRANCH  19  20
ENDBRANCH   1  19
TORSDOF 11
ENDMDL
MODEL 8
REMARK VINA RESULT:      -6.7      4.463      6.681
REMARK  Name = 
REMARK  12 active torsions:
REMARK  status: ('A' for Active; 'I' for Inactive)
REMARK    1  A    between atoms: C_1  and  C_2
REMARK    2  A    between atoms: N_4  and  O_5
REMARK    3  A    between atoms: N_4  and  C_6
REMARK    4  A    between atoms: C_6  and  C_7
REMARK    5  A    between atoms: C_7  and  C_8
REMARK    6  A    between atoms: C_8  and  C_9
REMARK    7  A    between atoms: C_9  and  C_10
REMARK    8  A    between atoms: C_10  and  N_11
REMARK    9  A    between atoms: N_11  and  O_12
REMARK   10  A    between atoms: C_13  and  C_15
REMARK   11  A    between atoms: C_18  and  C_19
REMARK   12  A    between atoms: C_24  and  O_25
REMARK                            x       y       z     vdW  Elec       q    Type
REMARK                         _______ _______ _______ _____ _____    ______ ____
ROOT
ATOM      1  N   UNL     1       1.980   7.944  19.358  0.00  0.00    +0.000 N 
ATOM      2  C   UNL     1       1.772   9.042  18.547  0.00  0.00    +0.000 C 
ATOM      3  O   UNL     1       2.164   9.062  17.375  0.00  0.00    +0.000 OA
ENDROOT
BRANCH   2   4
ATOM      4  C   UNL     1       0.960  10.200  19.150  0.00  0.00    +0.000 C 
ATOM      5  C   UNL     1       1.491  11.544  18.666  0.00  0.00    +0.000 C 
ATOM      6  S   UNL     1       0.024  12.590  18.651  0.00  0.00    +0.000 S 
ATOM      7  C   UNL     1      -0.999  11.175  18.457  0.00  0.00    +0.000 C 
ATOM      8  N   UNL     1      -0.448  10.027  18.711  0.00  0.00    +0.000 NA
BRANCH   7   9
ATOM      9  C   UNL     1      -2.410  11.354  18.014  0.00  0.00    +0.000 A 
ATOM     10  N   UNL     1      -2.680  10.994  16.724  0.00  0.00    +0.000 NA
ATOM     11  C   UNL     1      -3.940  11.175  16.281  0.00  0.00    +0.000 A 
ATOM     12  C   UNL     1      -4.960  11.701  17.056  0.00  0.00    +0.000 A 
ATOM     13  C   UNL     1      -4.676  12.064  18.368  0.00  0.00    +0.000 A 
ATOM     14  C   UNL     1      -3.383  11.891  18.862  0.00  0.00    +0.000 A 
BRANCH  14  15
ATOM     15  O   UNL     1      -3.125  12.217  20.162  0.00  0.00    +0.000 OA
ATOM     16  H   UNL     1      -3.709  12.939  20.441  0.00  0.00    +0.000 HD
ENDBRANCH  14  15
ENDBRANCH   7   9
ENDBRANCH   2   4
BRANCH   1  17
ATOM     17  O   UNL     1       1.792   8.091  20.745  0.00  0.00    +0.000 OA
ATOM     18  H   UNL     1       1.778   7.182  21.092  0.00  0.00    +0.000 HD
ENDBRANCH   1  17
BRANCH   1  19
ATOM     19  C   UNL     1       2.754   6.775  18.943  0.00  0.00    +0.000 C 
BRANCH  19  20
ATOM     20  C   UNL     1       2.319   5.495  19.664  0.00  0.00    +0.000 C 
BRANCH  20  21
ATOM     21  C   UNL     1       3.476   4.516  19.869  0.00  0.00    +0.000 C 
BRANCH  21  22
ATOM     22  C   UNL     1       4.777   5.049  19.269  0.00  0.00    +0.000 C 
BRANCH  22  23
ATOM     23  C   UNL     1       5.223   4.172  18.100  0.00  0.00    +0.000 C 
BRANCH  23  27
ATOM     24  C   UNL     1       5.185   6.238  15.926  0.00  0.00    +0.000 C 
ATOM     25  C   UNL     1       6.481   5.693  16.463  0.00  0.00    +0.000 C 
ATOM     26  O   UNL     1       7.574   6.101  16.067  0.00  0.00    +0.000 OA
ATOM     27  N   UNL     1       6.390   4.713  17.416  0.00  0.00    +0.000 N 
BRANCH  27  28
ATOM     28  O   UNL     1       7.612   4.270  17.973  0.00  0.00    +0.000 OA
ATOM     29  H   UNL     1       8.145   5.095  17.967  0.00  0.00    +0.000 HD
ENDBRANCH  27  28
ENDBRANCH  23  27
ENDBRANCH  22  23
ENDBRANCH  21  22
ENDBRANCH  20  21
ENDBRANCH  19  20
ENDBRANCH   1  19
TORSDOF 11
ENDMDL
MODEL 9
REMARK VINA RESULT:      -6.6      5.171      7.738
REMARK  Name = 
REMARK  12 active torsions:
REMARK  status: ('A' for Active; 'I' for Inactive)
REMARK    1  A    between atoms: C_1  and  C_2
REMARK    2  A    between atoms: N_4  and  O_5
REMARK    3  A    between atoms: N_4  and  C_6
REMARK    4  A    between atoms: C_6  and  C_7
REMARK    5  A    between atoms: C_7  and  C_8
REMARK    6  A    between atoms: C_8  and  C_9
REMARK    7  A    between atoms: C_9  and  C_10
REMARK    8  A    between atoms: C_10  and  N_11
REMARK    9  A    between atoms: N_11  and  O_12
REMARK   10  A    between atoms: C_13  and  C_15
REMARK   11  A    between atoms: C_18  and  C_19
REMARK   12  A    between atoms: C_24  and  O_25
REMARK                            x       y       z     vdW  Elec       q    Type
REMARK                         _______ _______ _______ _____ _____    ______ ____
ROOT
ATOM      1  N   UNL     1       1.999   8.500  18.633  0.00  0.00    +0.000 N 
ATOM      2  C   UNL     1       1.641   9.809  18.376  0.00  0.00    +0.000 C 
ATOM      3  O   UNL     1       2.108  10.428  17.414  0.00  0.00    +0.000 OA
ENDROOT
BRANCH   2   4
ATOM      4  C   UNL     1       0.574  10.425  19.296  0.00  0.00    +0.000 C 
ATOM      5  C   UNL     1       0.878  11.893  19.572  0.00  0.00    +0.000 C 
ATOM      6  S   UNL     1      -0.753  12.621  19.792  0.00  0.00    +0.000 S 
ATOM      7  C   UNL     1      -1.468  11.352  18.809  0.00  0.00    +0.000 C 
ATOM      8  N   UNL     1      -0.732  10.303  18.600  0.00  0.00    +0.000 NA
BRANCH   7   9
ATOM      9  C   UNL     1      -2.844  11.539  18.270  0.00  0.00    +0.000 A 
ATOM     10  N   UNL     1      -3.785  11.952  19.169  0.00  0.00    +0.000 NA
ATOM     11  C   UNL     1      -5.049  12.099  18.721  0.00  0.00    +0.000 A 
ATOM     12  C   UNL     1      -5.434  11.854  17.414  0.00  0.00    +0.000 A 
ATOM     13  C   UNL     1      -4.469  11.435  16.506  0.00  0.00    +0.000 A 
ATOM     14  C   UNL     1      -3.151  11.272  16.932  0.00  0.00    +0.000 A 
BRANCH  14  15
ATOM     15  O   UNL     1      -2.205  10.894  16.023  0.00  0.00    +0.000 OA
ATOM     16  H   UNL     1      -1.520  11.577  15.960  0.00  0.00    +0.000 HD
ENDBRANCH  14  15
ENDBRANCH   7   9
ENDBRANCH   2   4
BRANCH   1  17
ATOM     17  O   UNL     1       1.682   7.954  19.891  0.00  0.00    +0.000 OA
ATOM     18  H   UNL     1       1.249   8.679  20.375  0.00  0.00    +0.000 HD
ENDBRANCH   1  17
BRANCH   1  19
ATOM     19  C   UNL     1       3.016   7.781  17.868  0.00  0.00    +0.000 C 
BRANCH  19  20
ATOM     20  C   UNL     1       3.417   6.455  18.523  0.00  0.00    +0.000 C 
BRANCH  20  21
ATOM     21  C   UNL     1       4.767   5.939  18.023  0.00  0.00    +0.000 C 
BRANCH  21  22
ATOM     22  C   UNL     1       5.366   4.909  18.982  0.00  0.00    +0.000 C 
BRANCH  22  23
ATOM     23  C   UNL     1       4.256   4.168  19.726  0.00  0.00    +0.000 C 
BRANCH  23  27
ATOM     24  C   UNL     1       2.632   2.831  17.588  0.00  0.00    +0.000 C 
ATOM     25  C   UNL     1       3.593   2.050  18.442  0.00  0.00    +0.000 C 
ATOM     26  O   UNL     1       3.786   0.844  18.272  0.00  0.00    +0.000 OA
ATOM     27  N   UNL     1       4.248   2.742  19.427  0.00  0.00    +0.000 N 
BRANCH  27  28
ATOM     28  O   UNL     1       5.209   2.016  20.166  0.00  0.00    +0.000 OA
ATOM     29  H   UNL     1       5.801   2.734  20.484  0.00  0.00    +0.000 HD
ENDBRANCH  27  28
ENDBRANCH  23  27
ENDBRANCH  22  23
ENDBRANCH  21  22
ENDBRANCH  20  21
ENDBRANCH  19  20
ENDBRANCH   1  19
TORSDOF 11
ENDMDL
