MODEL 1
REMARK VINA RESULT:      -6.5      0.000      0.000
REMARK  Name = 
REMARK  10 active torsions:
REMARK  status: ('A' for Active; 'I' for Inactive)
REMARK    1  A    between atoms: C_1  and  C_2
REMARK    2  A    between atoms: C_2  and  S_3
REMARK    3  A    between atoms: S_3  and  N_6
REMARK    4  A    between atoms: N_6  and  C_7
REMARK    5  A    between atoms: C_7  and  C_8
REMARK    6  A    between atoms: C_8  and  N_9
REMARK    7  A    between atoms: C_12  and  C_13
REMARK    8  A    between atoms: C_13  and  O_15
REMARK    9  A    between atoms: C_16  and  C_17
REMARK   10  A    between atoms: C_17  and  O_19
REMARK                            x       y       z     vdW  Elec       q    Type
REMARK                         _______ _______ _______ _____ _____    ______ ____
ROOT
ATOM      1  N   UNL     1       3.654   6.226  18.299  0.00  0.00    +0.000 N 
ATOM      2  N   UNL     1       2.324   6.290  18.438  0.00  0.00    +0.000 NA
ATOM      3  N   UNL     1       1.953   5.320  19.238  0.00  0.00    +0.000 NA
ATOM      4  C   UNL     1       3.070   4.629  19.649  0.00  0.00    +0.000 A 
ATOM      5  C   UNL     1       4.203   5.209  19.056  0.00  0.00    +0.000 A 
ENDROOT
BRANCH   4   6
ATOM      6  C   UNL     1       2.862   3.497  20.567  0.00  0.00    +0.000 C 
ATOM      7  O   UNL     1       3.287   2.375  20.318  0.00  0.00    +0.000 OA
BRANCH   6   8
ATOM      8  O   UNL     1       2.177   3.704  21.720  0.00  0.00    +0.000 OA
ATOM      9  H   UNL     1       2.185   2.970  22.374  0.00  0.00    +0.000 HD
ENDBRANCH   6   8
ENDBRANCH   4   6
BRANCH   5  10
ATOM     10  C   UNL     1       5.571   4.792  19.230  0.00  0.00    +0.000 C 
ATOM     11  O   UNL     1       6.442   5.544  19.642  0.00  0.00    +0.000 OA
BRANCH  10  12
ATOM     12  O   UNL     1       5.889   3.529  18.901  0.00  0.00    +0.000 OA
ATOM     13  H   UNL     1       5.817   2.782  19.511  0.00  0.00    +0.000 HD
ENDBRANCH  10  12
ENDBRANCH   5  10
BRANCH   1  14
ATOM     14  C   UNL     1       4.266   7.134  17.348  0.00  0.00    +0.000 C 
BRANCH  14  15
ATOM     15  C   UNL     1       5.012   6.448  16.193  0.00  0.00    +0.000 C 
BRANCH  15  16
ATOM     16  N   UNL     1       6.500   6.389  16.392  0.00  0.00    +0.000 NA
ATOM     17  H   UNL     1       6.915   7.244  16.009  0.00  0.00    +0.000 HD
BRANCH  16  18
ATOM     18  S   UNL     1       7.237   5.028  15.697  0.00  0.00    +0.000 S 
ATOM     19  O   UNL     1       7.931   4.365  16.775  0.00  0.00    +0.000 OA
ATOM     20  O   UNL     1       7.928   5.492  14.516  0.00  0.00    +0.000 OA
BRANCH  18  22
ATOM     21  C   UNL     1       5.881   3.825  13.691  0.00  0.00    +0.000 C 
ATOM     22  C   UNL     1       5.840   4.032  15.194  0.00  0.00    +0.000 C 
ENDBRANCH  18  22
ENDBRANCH  16  18
ENDBRANCH  15  16
ENDBRANCH  14  15
ENDBRANCH   1  14
TORSDOF 9
ENDMDL
MODEL 2
REMARK VINA RESULT:      -6.4      1.563      1.872
REMARK  Name = 
REMARK  10 active torsions:
REMARK  status: ('A' for Active; 'I' for Inactive)
REMARK    1  A    between atoms: C_1  and  C_2
REMARK    2  A    between atoms: C_2  and  S_3
REMARK    3  A    between atoms: S_3  and  N_6
REMARK    4  A    between atoms: N_6  and  C_7
REMARK    5  A    between atoms: C_7  and  C_8
REMARK    6  A    between atoms: C_8  and  N_9
REMARK    7  A    between atoms: C_12  and  C_13
REMARK    8  A    between atoms: C_13  and  O_15
REMARK    9  A    between atoms: C_16  and  C_17
REMARK   10  A    between atoms: C_17  and  O_19
REMARK                            x       y       z     vdW  Elec       q    Type
REMARK                         _______ _______ _______ _____ _____    ______ ____
ROOT
ATOM      1  N   UNL     1       3.782   5.281  19.355  0.00  0.00    +0.000 N 
ATOM      2  N   UNL     1       2.860   6.119  19.843  0.00  0.00    +0.000 NA
ATOM      3  N   UNL     1       1.953   5.406  20.464  0.00  0.00    +0.000 NA
ATOM      4  C   UNL     1       2.309   4.078  20.403  0.00  0.00    +0.000 A 
ATOM      5  C   UNL     1       3.513   3.967  19.689  0.00  0.00    +0.000 A 
ENDROOT
BRANCH   4   6
ATOM      6  C   UNL     1       1.414   3.109  21.057  0.00  0.00    +0.000 C 
ATOM      7  O   UNL     1       1.654   2.656  22.170  0.00  0.00    +0.000 OA
BRANCH   6   8
ATOM      8  O   UNL     1       0.295   2.705  20.405  0.00  0.00    +0.000 OA
ATOM      9  H   UNL     1       0.238   1.750  20.178  0.00  0.00    +0.000 HD
ENDBRANCH   6   8
ENDBRANCH   4   6
BRANCH   5  10
ATOM     10  C   UNL     1       4.232   2.752  19.404  0.00  0.00    +0.000 C 
ATOM     11  O   UNL     1       4.884   2.158  20.250  0.00  0.00    +0.000 OA
BRANCH  10  12
ATOM     12  O   UNL     1       4.192   2.278  18.147  0.00  0.00    +0.000 OA
ATOM     13  H   UNL     1       3.914   1.380  17.922  0.00  0.00    +0.000 HD
ENDBRANCH  10  12
ENDBRANCH   5  10
BRANCH   1  14
ATOM     14  C   UNL     1       4.819   5.849  18.515  0.00  0.00    +0.000 C 
BRANCH  14  15
ATOM     15  C   UNL     1       4.621   5.624  17.008  0.00  0.00    +0.000 C 
BRANCH  15  16
ATOM     16  N   UNL     1       5.494   4.538  16.444  0.00  0.00    +0.000 NA
ATOM     17  H   UNL     1       5.557   3.780  17.131  0.00  0.00    +0.000 HD
BRANCH  16  18
ATOM     18  S   UNL     1       7.050   5.056  16.012  0.00  0.00    +0.000 S 
ATOM     19  O   UNL     1       7.961   4.232  16.768  0.00  0.00    +0.000 OA
ATOM     20  O   UNL     1       7.050   6.498  16.127  0.00  0.00    +0.000 OA
BRANCH  18  22
ATOM     21  C   UNL     1       5.860   3.938  13.857  0.00  0.00    +0.000 C 
ATOM     22  C   UNL     1       7.150   4.615  14.282  0.00  0.00    +0.000 C 
ENDBRANCH  18  22
ENDBRANCH  16  18
ENDBRANCH  15  16
ENDBRANCH  14  15
ENDBRANCH   1  14
TORSDOF 9
ENDMDL
MODEL 3
REMARK VINA RESULT:      -6.3      1.962      2.299
REMARK  Name = 
REMARK  10 active torsions:
REMARK  status: ('A' for Active; 'I' for Inactive)
REMARK    1  A    between atoms: C_1  and  C_2
REMARK    2  A    between atoms: C_2  and  S_3
REMARK    3  A    between atoms: S_3  and  N_6
REMARK    4  A    between atoms: N_6  and  C_7
REMARK    5  A    between atoms: C_7  and  C_8
REMARK    6  A    between atoms: C_8  and  N_9
REMARK    7  A    between atoms: C_12  and  C_13
REMARK    8  A    between atoms: C_13  and  O_15
REMARK    9  A    between atoms: C_16  and  C_17
REMARK   10  A    between atoms: C_17  and  O_19
REMARK                            x       y       z     vdW  Elec       q    Type
REMARK                         _______ _______ _______ _____ _____    ______ ____
ROOT
ATOM      1  N   UNL     1       4.468   4.574  19.407  0.00  0.00    +0.000 N 
ATOM      2  N   UNL     1       3.647   5.617  19.580  0.00  0.00    +0.000 NA
ATOM      3  N   UNL     1       2.569   5.187  20.188  0.00  0.00    +0.000 NA
ATOM      4  C   UNL     1       2.704   3.841  20.440  0.00  0.00    +0.000 A 
ATOM      5  C   UNL     1       3.948   3.413  19.947  0.00  0.00    +0.000 A 
ENDROOT
BRANCH   4   6
ATOM      6  C   UNL     1       1.592   3.169  21.131  0.00  0.00    +0.000 C 
ATOM      7  O   UNL     1       1.727   2.670  22.243  0.00  0.00    +0.000 OA
BRANCH   6   8
ATOM      8  O   UNL     1       0.384   3.096  20.516  0.00  0.00    +0.000 OA
ATOM      9  H   UNL     1      -0.240   3.837  20.682  0.00  0.00    +0.000 HD
ENDBRANCH   6   8
ENDBRANCH   4   6
BRANCH   5  10
ATOM     10  C   UNL     1       4.483   2.077  20.013  0.00  0.00    +0.000 C 
ATOM     11  O   UNL     1       5.079   1.654  20.994  0.00  0.00    +0.000 OA
BRANCH  10  12
ATOM     12  O   UNL     1       4.333   1.286  18.939  0.00  0.00    +0.000 OA
ATOM     13  H   UNL     1       4.787   1.432  18.098  0.00  0.00    +0.000 HD
ENDBRANCH  10  12
ENDBRANCH   5  10
BRANCH   1  14
ATOM     14  C   UNL     1       5.675   4.799  18.634  0.00  0.00    +0.000 C 
BRANCH  14  15
ATOM     15  C   UNL     1       5.712   4.081  17.276  0.00  0.00    +0.000 C 
BRANCH  15  16
ATOM     16  N   UNL     1       6.931   4.408  16.459  0.00  0.00    +0.000 NA
ATOM     17  H   UNL     1       7.578   4.949  17.041  0.00  0.00    +0.000 HD
BRANCH  16  18
ATOM     18  S   UNL     1       6.597   5.253  15.026  0.00  0.00    +0.000 S 
ATOM     19  O   UNL     1       7.870   5.430  14.371  0.00  0.00    +0.000 OA
ATOM     20  O   UNL     1       5.765   6.376  15.396  0.00  0.00    +0.000 OA
BRANCH  18  22
ATOM     21  C   UNL     1       6.338   3.717  12.816  0.00  0.00    +0.000 C 
ATOM     22  C   UNL     1       5.611   4.086  14.097  0.00  0.00    +0.000 C 
ENDBRANCH  18  22
ENDBRANCH  16  18
ENDBRANCH  15  16
ENDBRANCH  14  15
ENDBRANCH   1  14
TORSDOF 9
ENDMDL
MODEL 4
REMARK VINA RESULT:      -6.3      1.463      1.921
REMARK  Name = 
REMARK  10 active torsions:
REMARK  status: ('A' for Active; 'I' for Inactive)
REMARK    1  A    between atoms: C_1  and  C_2
REMARK    2  A    between atoms: C_2  and  S_3
REMARK    3  A    between atoms: S_3  and  N_6
REMARK    4  A    between atoms: N_6  and  C_7
REMARK    5  A    between atoms: C_7  and  C_8
REMARK    6  A    between atoms: C_8  and  N_9
REMARK    7  A    between atoms: C_12  and  C_13
REMARK    8  A    between atoms: C_13  and  O_15
REMARK    9  A    between atoms: C_16  and  C_17
REMARK   10  A    between atoms: C_17  and  O_19
REMARK                            x       y       z     vdW  Elec       q    Type
REMARK                         _______ _______ _______ _____ _____    ______ ____
ROOT
ATOM      1  N   UNL     1       3.936   4.909  18.971  0.00  0.00    +0.000 N 
ATOM      2  N   UNL     1       3.035   5.849  19.280  0.00  0.00    +0.000 NA
ATOM      3  N   UNL     1       1.929   5.246  19.642  0.00  0.00    +0.000 NA
ATOM      4  C   UNL     1       2.126   3.885  19.594  0.00  0.00    +0.000 A 
ATOM      5  C   UNL     1       3.440   3.634  19.167  0.00  0.00    +0.000 A 
ENDROOT
BRANCH   4   6
ATOM      6  C   UNL     1       0.993   3.026  19.977  0.00  0.00    +0.000 C 
ATOM      7  O   UNL     1       0.280   2.485  19.139  0.00  0.00    +0.000 OA
BRANCH   6   8
ATOM      8  O   UNL     1       0.731   2.832  21.294  0.00  0.00    +0.000 OA
ATOM      9  H   UNL     1       0.186   3.517  21.740  0.00  0.00    +0.000 HD
ENDBRANCH   6   8
ENDBRANCH   4   6
BRANCH   5  10
ATOM     10  C   UNL     1       4.052   2.342  18.988  0.00  0.00    +0.000 C 
ATOM     11  O   UNL     1       3.695   1.558  18.122  0.00  0.00    +0.000 OA
BRANCH  10  12
ATOM     12  O   UNL     1       5.039   1.993  19.830  0.00  0.00    +0.000 OA
ATOM     13  H   UNL     1       5.420   1.105  19.870  0.00  0.00    +0.000 HD
ENDBRANCH  10  12
ENDBRANCH   5  10
BRANCH   1  14
ATOM     14  C   UNL     1       5.200   5.357  18.418  0.00  0.00    +0.000 C 
BRANCH  14  15
ATOM     15  C   UNL     1       5.103   5.989  17.021  0.00  0.00    +0.000 C 
BRANCH  15  16
ATOM     16  N   UNL     1       6.439   6.334  16.425  0.00  0.00    +0.000 NA
ATOM     17  H   UNL     1       6.315   7.117  15.777  0.00  0.00    +0.000 HD
BRANCH  16  18
ATOM     18  S   UNL     1       7.197   5.041  15.631  0.00  0.00    +0.000 S 
ATOM     19  O   UNL     1       7.931   4.331  16.651  0.00  0.00    +0.000 OA
ATOM     20  O   UNL     1       7.850   5.598  14.468  0.00  0.00    +0.000 OA
BRANCH  18  22
ATOM     21  C   UNL     1       5.921   3.795  13.599  0.00  0.00    +0.000 C 
ATOM     22  C   UNL     1       5.816   4.040  15.093  0.00  0.00    +0.000 C 
ENDBRANCH  18  22
ENDBRANCH  16  18
ENDBRANCH  15  16
ENDBRANCH  14  15
ENDBRANCH   1  14
TORSDOF 9
ENDMDL
MODEL 5
REMARK VINA RESULT:      -6.3      2.142      5.247
REMARK  Name = 
REMARK  10 active torsions:
REMARK  status: ('A' for Active; 'I' for Inactive)
REMARK    1  A    between atoms: C_1  and  C_2
REMARK    2  A    between atoms: C_2  and  S_3
REMARK    3  A    between atoms: S_3  and  N_6
REMARK    4  A    between atoms: N_6  and  C_7
REMARK    5  A    between atoms: C_7  and  C_8
REMARK    6  A    between atoms: C_8  and  N_9
REMARK    7  A    between atoms: C_12  and  C_13
REMARK    8  A    between atoms: C_13  and  O_15
REMARK    9  A    between atoms: C_16  and  C_17
REMARK   10  A    between atoms: C_17  and  O_19
REMARK                            x       y       z     vdW  Elec       q    Type
REMARK                         _______ _______ _______ _____ _____    ______ ____
ROOT
ATOM      1  N   UNL     1       4.360   6.372  17.701  0.00  0.00    +0.000 N 
ATOM      2  N   UNL     1       4.284   6.865  16.459  0.00  0.00    +0.000 NA
ATOM      3  N   UNL     1       5.319   6.428  15.786  0.00  0.00    +0.000 NA
ATOM      4  C   UNL     1       6.068   5.609  16.599  0.00  0.00    +0.000 A 
ATOM      5  C   UNL     1       5.456   5.545  17.862  0.00  0.00    +0.000 A 
ENDROOT
BRANCH   4   6
ATOM      6  C   UNL     1       7.279   5.006  16.019  0.00  0.00    +0.000 C 
ATOM      7  O   UNL     1       7.643   5.257  14.875  0.00  0.00    +0.000 OA
BRANCH   6   8
ATOM      8  O   UNL     1       8.010   4.145  16.771  0.00  0.00    +0.000 OA
ATOM      9  H   UNL     1       7.837   4.150  17.738  0.00  0.00    +0.000 HD
ENDBRANCH   6   8
ENDBRANCH   4   6
BRANCH   5  10
ATOM     10  C   UNL     1       5.914   4.792  19.001  0.00  0.00    +0.000 C 
ATOM     11  O   UNL     1       6.540   5.301  19.918  0.00  0.00    +0.000 OA
BRANCH  10  12
ATOM     12  O   UNL     1       5.654   3.474  19.029  0.00  0.00    +0.000 OA
ATOM     13  H   UNL     1       5.077   3.056  19.683  0.00  0.00    +0.000 HD
ENDBRANCH  10  12
ENDBRANCH   5  10
BRANCH   1  14
ATOM     14  C   UNL     1       3.376   6.835  18.661  0.00  0.00    +0.000 C 
BRANCH  14  15
ATOM     15  C   UNL     1       2.356   5.774  19.100  0.00  0.00    +0.000 C 
BRANCH  15  16
ATOM     16  N   UNL     1       2.166   4.673  18.093  0.00  0.00    +0.000 NA
ATOM     17  H   UNL     1       1.317   4.868  17.553  0.00  0.00    +0.000 HD
BRANCH  16  18
ATOM     18  S   UNL     1       2.076   3.122  18.773  0.00  0.00    +0.000 S 
ATOM     19  O   UNL     1       3.146   2.366  18.168  0.00  0.00    +0.000 OA
ATOM     20  O   UNL     1       0.695   2.707  18.669  0.00  0.00    +0.000 OA
BRANCH  18  22
ATOM     21  C   UNL     1       1.463   2.682  21.370  0.00  0.00    +0.000 C 
ATOM     22  C   UNL     1       2.461   3.419  20.494  0.00  0.00    +0.000 C 
ENDBRANCH  18  22
ENDBRANCH  16  18
ENDBRANCH  15  16
ENDBRANCH  14  15
ENDBRANCH   1  14
TORSDOF 9
ENDMDL
MODEL 6
REMARK VINA RESULT:      -6.3      3.133      5.843
REMARK  Name = 
REMARK  10 active torsions:
REMARK  status: ('A' for Active; 'I' for Inactive)
REMARK    1  A    between atoms: C_1  and  C_2
REMARK    2  A    between atoms: C_2  and  S_3
REMARK    3  A    between atoms: S_3  and  N_6
REMARK    4  A    between atoms: N_6  and  C_7
REMARK    5  A    between atoms: C_7  and  C_8
REMARK    6  A    between atoms: C_8  and  N_9
REMARK    7  A    between atoms: C_12  and  C_13
REMARK    8  A    between atoms: C_13  and  O_15
REMARK    9  A    between atoms: C_16  and  C_17
REMARK   10  A    between atoms: C_17  and  O_19
REMARK                            x       y       z     vdW  Elec       q    Type
REMARK                         _______ _______ _______ _____ _____    ______ ____
ROOT
ATOM      1  N   UNL     1       5.221   4.201  17.647  0.00  0.00    +0.000 N 
ATOM      2  N   UNL     1       5.590   4.156  18.933  0.00  0.00    +0.000 NA
ATOM      3  N   UNL     1       6.478   5.099  19.132  0.00  0.00    +0.000 NA
ATOM      4  C   UNL     1       6.669   5.789  17.958  0.00  0.00    +0.000 A 
ATOM      5  C   UNL     1       5.848   5.228  16.966  0.00  0.00    +0.000 A 
ENDROOT
BRANCH   4   6
ATOM      6  C   UNL     1       7.631   6.903  17.978  0.00  0.00    +0.000 C 
ATOM      7  O   UNL     1       7.710   7.707  17.056  0.00  0.00    +0.000 OA
BRANCH   6   8
ATOM      8  O   UNL     1       8.456   7.039  19.047  0.00  0.00    +0.000 OA
ATOM      9  H   UNL     1       8.334   7.845  19.597  0.00  0.00    +0.000 HD
ENDBRANCH   6   8
ENDBRANCH   4   6
BRANCH   5  10
ATOM     10  C   UNL     1       5.740   5.659  15.596  0.00  0.00    +0.000 C 
ATOM     11  O   UNL     1       6.115   4.970  14.658  0.00  0.00    +0.000 OA
BRANCH  10  12
ATOM     12  O   UNL     1       5.226   6.876  15.358  0.00  0.00    +0.000 OA
ATOM     13  H   UNL     1       4.283   7.082  15.422  0.00  0.00    +0.000 HD
ENDBRANCH  10  12
ENDBRANCH   5  10
BRANCH   1  14
ATOM     14  C   UNL     1       4.334   3.156  17.173  0.00  0.00    +0.000 C 
BRANCH  14  15
ATOM     15  C   UNL     1       3.800   2.220  18.269  0.00  0.00    +0.000 C 
BRANCH  15  16
ATOM     16  N   UNL     1       2.366   1.819  18.068  0.00  0.00    +0.000 NA
ATOM     17  H   UNL     1       2.209   1.657  17.068  0.00  0.00    +0.000 HD
BRANCH  16  18
ATOM     18  S   UNL     1       1.243   2.948  18.653  0.00  0.00    +0.000 S 
ATOM     19  O   UNL     1       0.071   2.186  19.007  0.00  0.00    +0.000 OA
ATOM     20  O   UNL     1       1.194   4.019  17.682  0.00  0.00    +0.000 OA
BRANCH  18  22
ATOM     21  C   UNL     1       1.690   5.023  20.328  0.00  0.00    +0.000 C 
ATOM     22  C   UNL     1       2.027   3.554  20.141  0.00  0.00    +0.000 C 
ENDBRANCH  18  22
ENDBRANCH  16  18
ENDBRANCH  15  16
ENDBRANCH  14  15
ENDBRANCH   1  14
TORSDOF 9
ENDMDL
MODEL 7
REMARK VINA RESULT:      -6.3      2.479      3.405
REMARK  Name = 
REMARK  10 active torsions:
REMARK  status: ('A' for Active; 'I' for Inactive)
REMARK    1  A    between atoms: C_1  and  C_2
REMARK    2  A    between atoms: C_2  and  S_3
REMARK    3  A    between atoms: S_3  and  N_6
REMARK    4  A    between atoms: N_6  and  C_7
REMARK    5  A    between atoms: C_7  and  C_8
REMARK    6  A    between atoms: C_8  and  N_9
REMARK    7  A    between atoms: C_12  and  C_13
REMARK    8  A    between atoms: C_13  and  O_15
REMARK    9  A    between atoms: C_16  and  C_17
REMARK   10  A    between atoms: C_17  and  O_19
REMARK                            x       y       z     vdW  Elec       q    Type
REMARK                         _______ _______ _______ _____ _____    ______ ____
ROOT
ATOM      1  N   UNL     1       3.607   3.421  17.702  0.00  0.00    +0.000 N 
ATOM      2  N   UNL     1       3.702   2.094  17.854  0.00  0.00    +0.000 NA
ATOM      3  N   UNL     1       3.191   1.782  19.019  0.00  0.00    +0.000 NA
ATOM      4  C   UNL     1       2.727   2.927  19.625  0.00  0.00    +0.000 A 
ATOM      5  C   UNL     1       2.977   4.019  18.777  0.00  0.00    +0.000 A 
ENDROOT
BRANCH   4   6
ATOM      6  C   UNL     1       2.104   2.784  20.951  0.00  0.00    +0.000 C 
ATOM      7  O   UNL     1       2.763   2.526  21.952  0.00  0.00    +0.000 OA
BRANCH   6   8
ATOM      8  O   UNL     1       0.761   2.938  21.065  0.00  0.00    +0.000 OA
ATOM      9  H   UNL     1       0.304   3.386  20.319  0.00  0.00    +0.000 HD
ENDBRANCH   6   8
ENDBRANCH   4   6
BRANCH   5  10
ATOM     10  C   UNL     1       2.642   5.397  19.031  0.00  0.00    +0.000 C 
ATOM     11  O   UNL     1       2.115   6.112  18.191  0.00  0.00    +0.000 OA
BRANCH  10  12
ATOM     12  O   UNL     1       2.948   5.906  20.235  0.00  0.00    +0.000 OA
ATOM     13  H   UNL     1       2.366   6.499  20.730  0.00  0.00    +0.000 HD
ENDBRANCH  10  12
ENDBRANCH   5  10
BRANCH   1  14
ATOM     14  C   UNL     1       4.232   4.002  16.529  0.00  0.00    +0.000 C 
BRANCH  14  15
ATOM     15  C   UNL     1       5.761   4.123  16.609  0.00  0.00    +0.000 C 
BRANCH  15  16
ATOM     16  N   UNL     1       6.308   3.900  17.992  0.00  0.00    +0.000 NA
ATOM     17  H   UNL     1       5.596   3.421  18.551  0.00  0.00    +0.000 HD
BRANCH  16  18
ATOM     18  S   UNL     1       6.803   5.320  18.777  0.00  0.00    +0.000 S 
ATOM     19  O   UNL     1       8.215   5.158  19.025  0.00  0.00    +0.000 OA
ATOM     20  O   UNL     1       5.860   5.546  19.850  0.00  0.00    +0.000 OA
BRANCH  18  22
ATOM     21  C   UNL     1       7.698   7.578  17.590  0.00  0.00    +0.000 C 
ATOM     22  C   UNL     1       6.562   6.572  17.525  0.00  0.00    +0.000 C 
ENDBRANCH  18  22
ENDBRANCH  16  18
ENDBRANCH  15  16
ENDBRANCH  14  15
ENDBRANCH   1  14
TORSDOF 9
ENDMDL
MODEL 8
REMARK VINA RESULT:      -6.2      2.511      5.670
REMARK  Name = 
REMARK  10 active torsions:
REMARK  status: ('A' for Active; 'I' for Inactive)
REMARK    1  A    between atoms: C_1  and  C_2
REMARK    2  A    between atoms: C_2  and  S_3
REMARK    3  A    between atoms: S_3  and  N_6
REMARK    4  A    between atoms: N_6  and  C_7
REMARK    5  A    between atoms: C_7  and  C_8
REMARK    6  A    between atoms: C_8  and  N_9
REMARK    7  A    between atoms: C_12  and  C_13
REMARK    8  A    between atoms: C_13  and  O_15
REMARK    9  A    between atoms: C_16  and  C_17
REMARK   10  A    between atoms: C_17  and  O_19
REMARK                            x       y       z     vdW  Elec       q    Type
REMARK                         _______ _______ _______ _____ _____    ______ ____
ROOT
ATOM      1  N   UNL     1       4.924   4.972  18.216  0.00  0.00    +0.000 N 
ATOM      2  N   UNL     1       3.999   4.423  17.419  0.00  0.00    +0.000 NA
ATOM      3  N   UNL     1       4.546   4.220  16.246  0.00  0.00    +0.000 NA
ATOM      4  C   UNL     1       5.862   4.619  16.290  0.00  0.00    +0.000 A 
ATOM      5  C   UNL     1       6.142   5.108  17.577  0.00  0.00    +0.000 A 
ENDROOT
BRANCH   4   6
ATOM      6  C   UNL     1       6.656   4.461  15.061  0.00  0.00    +0.000 C 
ATOM      7  O   UNL     1       7.564   5.234  14.774  0.00  0.00    +0.000 OA
BRANCH   6   8
ATOM      8  O   UNL     1       6.372   3.434  14.222  0.00  0.00    +0.000 OA
ATOM      9  H   UNL     1       6.497   3.602  13.262  0.00  0.00    +0.000 HD
ENDBRANCH   6   8
ENDBRANCH   4   6
BRANCH   5  10
ATOM     10  C   UNL     1       7.404   5.619  18.045  0.00  0.00    +0.000 C 
ATOM     11  O   UNL     1       8.038   5.086  18.944  0.00  0.00    +0.000 OA
BRANCH  10  12
ATOM     12  O   UNL     1       7.880   6.738  17.475  0.00  0.00    +0.000 OA
ATOM     13  H   UNL     1       7.316   7.433  17.108  0.00  0.00    +0.000 HD
ENDBRANCH  10  12
ENDBRANCH   5  10
BRANCH   1  14
ATOM     14  C   UNL     1       4.495   5.402  19.534  0.00  0.00    +0.000 C 
BRANCH  14  15
ATOM     15  C   UNL     1       2.973   5.406  19.744  0.00  0.00    +0.000 C 
BRANCH  15  16
ATOM     16  N   UNL     1       2.548   4.815  21.059  0.00  0.00    +0.000 NA
ATOM     17  H   UNL     1       3.295   4.972  21.744  0.00  0.00    +0.000 HD
BRANCH  16  18
ATOM     18  S   UNL     1       2.171   3.163  20.985  0.00  0.00    +0.000 S 
ATOM     19  O   UNL     1       1.729   2.802  22.310  0.00  0.00    +0.000 OA
ATOM     20  O   UNL     1       3.296   2.512  20.352  0.00  0.00    +0.000 OA
BRANCH  18  22
ATOM     21  C   UNL     1       1.125   2.277  18.654  0.00  0.00    +0.000 C 
ATOM     22  C   UNL     1       0.777   3.123  19.866  0.00  0.00    +0.000 C 
ENDBRANCH  18  22
ENDBRANCH  16  18
ENDBRANCH  15  16
ENDBRANCH  14  15
ENDBRANCH   1  14
TORSDOF 9
ENDMDL
MODEL 9
REMARK VINA RESULT:      -6.2      1.943      2.330
REMARK  Name = 
REMARK  10 active torsions:
REMARK  status: ('A' for Active; 'I' for Inactive)
REMARK    1  A    between atoms: C_1  and  C_2
REMARK    2  A    between atoms: C_2  and  S_3
REMARK    3  A    between atoms: S_3  and  N_6
REMARK    4  A    between atoms: N_6  and  C_7
REMARK    5  A    between atoms: C_7  and  C_8
REMARK    6  A    between atoms: C_8  and  N_9
REMARK    7  A    between atoms: C_12  and  C_13
REMARK    8  A    between atoms: C_13  and  O_15
REMARK    9  A    between atoms: C_16  and  C_17
REMARK   10  A    between atoms: C_17  and  O_19
REMARK                            x       y       z     vdW  Elec       q    Type
REMARK                         _______ _______ _______ _____ _____    ______ ____
ROOT
ATOM      1  N   UNL     1       2.984   5.700  18.949  0.00  0.00    +0.000 N 
ATOM      2  N   UNL     1       2.214   6.299  19.864  0.00  0.00    +0.000 NA
ATOM      3  N   UNL     1       1.884   5.405  20.764  0.00  0.00    +0.000 NA
ATOM      4  C   UNL     1       2.476   4.206  20.441  0.00  0.00    +0.000 A 
ATOM      5  C   UNL     1       3.215   4.373  19.258  0.00  0.00    +0.000 A 
ENDROOT
BRANCH   4   6
ATOM      6  C   UNL     1       2.232   3.069  21.343  0.00  0.00    +0.000 C 
ATOM      7  O   UNL     1       3.150   2.476  21.900  0.00  0.00    +0.000 OA
BRANCH   6   8
ATOM      8  O   UNL     1       0.956   2.664  21.559  0.00  0.00    +0.000 OA
ATOM      9  H   UNL     1       0.368   3.293  22.033  0.00  0.00    +0.000 HD
ENDBRANCH   6   8
ENDBRANCH   4   6
BRANCH   5  10
ATOM     10  C   UNL     1       3.992   3.365  18.582  0.00  0.00    +0.000 C 
ATOM     11  O   UNL     1       3.839   3.100  17.399  0.00  0.00    +0.000 OA
BRANCH  10  12
ATOM     12  O   UNL     1       4.899   2.685  19.301  0.00  0.00    +0.000 OA
ATOM     13  H   UNL     1       4.877   2.616  20.265  0.00  0.00    +0.000 HD
ENDBRANCH  10  12
ENDBRANCH   5  10
BRANCH   1  14
ATOM     14  C   UNL     1       3.360   6.479  17.784  0.00  0.00    +0.000 C 
BRANCH  14  15
ATOM     15  C   UNL     1       4.874   6.649  17.586  0.00  0.00    +0.000 C 
BRANCH  15  16
ATOM     16  N   UNL     1       5.442   5.762  16.514  0.00  0.00    +0.000 NA
ATOM     17  H   UNL     1       5.013   4.835  16.596  0.00  0.00    +0.000 HD
BRANCH  16  18
ATOM     18  S   UNL     1       7.132   5.622  16.555  0.00  0.00    +0.000 S 
ATOM     19  O   UNL     1       7.634   6.972  16.639  0.00  0.00    +0.000 OA
ATOM     20  O   UNL     1       7.498   4.737  15.471  0.00  0.00    +0.000 OA
BRANCH  18  22
ATOM     21  C   UNL     1       7.921   5.786  19.136  0.00  0.00    +0.000 C 
ATOM     22  C   UNL     1       7.425   4.785  18.107  0.00  0.00    +0.000 C 
ENDBRANCH  18  22
ENDBRANCH  16  18
ENDBRANCH  15  16
ENDBRANCH  14  15
ENDBRANCH   1  14
TORSDOF 9
ENDMDL
