MODEL 1
REMARK VINA RESULT:      -8.5      0.000      0.000
REMARK  Name = 
REMARK  9 active torsions:
REMARK  status: ('A' for Active; 'I' for Inactive)
REMARK    1  A    between atoms: C_1  and  C_2
REMARK    2  A    between atoms: C_2  and  C_3
REMARK    3  A    between atoms: N_7  and  S_8
REMARK    4  A    between atoms: S_8  and  C_11
REMARK    5  A    between atoms: C_14  and  N_15
REMARK    6  A    between atoms: N_15  and  C_16
REMARK    7  A    between atoms: C_16  and  N_18
REMARK    8  A    between atoms: C_19  and  C_21
REMARK    9  A    between atoms: C_22  and  C_23
REMARK                            x       y       z     vdW  Elec       q    Type
REMARK                         _______ _______ _______ _____ _____    ______ ____
ROOT
ATOM      1  C   UNL     1       0.929   9.668  19.524  0.00  0.00    +0.000 A 
ATOM      2  C   UNL     1       1.649   9.207  18.421  0.00  0.00    +0.000 A 
ATOM      3  C   UNL     1       2.319   7.966  18.480  0.00  0.00    +0.000 A 
ATOM      4  C   UNL     1       2.327   7.210  19.664  0.00  0.00    +0.000 A 
ATOM      5  C   UNL     1       1.578   7.678  20.741  0.00  0.00    +0.000 A 
ATOM      6  C   UNL     1       0.915   8.905  20.693  0.00  0.00    +0.000 A 
ENDROOT
BRANCH   1   7
ATOM      7  S   UNL     1       0.047  11.225  19.506  0.00  0.00    +0.000 S 
ATOM      8  O   UNL     1      -1.367  10.925  19.372  0.00  0.00    +0.000 OA
ATOM      9  O   UNL     1       0.712  12.078  18.547  0.00  0.00    +0.000 OA
BRANCH   7  14
ATOM     10  C   UNL     1      -2.627  12.695  23.168  0.00  0.00    +0.000 A 
ATOM     11  N   UNL     1      -2.214  11.474  23.439  0.00  0.00    +0.000 NA
ATOM     12  N   UNL     1      -1.095  11.131  22.704  0.00  0.00    +0.000 NA
ATOM     13  C   UNL     1      -0.780  12.062  21.837  0.00  0.00    +0.000 A 
ATOM     14  N   UNL     1       0.320  11.951  20.981  0.00  0.00    +0.000 N 
ATOM     15  S   UNL     1      -1.692  13.501  21.971  0.00  0.00    +0.000 S 
ATOM     16  H   UNL     1       1.263  11.960  21.353  0.00  0.00    +0.000 HD
BRANCH  10  18
ATOM     17  C   UNL     1      -4.520  12.422  24.768  0.00  0.00    +0.000 C 
ATOM     18  C   UNL     1      -3.787  13.365  23.828  0.00  0.00    +0.000 C 
ENDBRANCH  10  18
ENDBRANCH   7  14
ENDBRANCH   1   7
BRANCH   4  19
ATOM     19  N   UNL     1       3.058   5.999  19.719  0.00  0.00    +0.000 N 
ATOM     20  H   UNL     1       3.710   5.924  20.503  0.00  0.00    +0.000 HD
BRANCH  19  21
ATOM     21  C   UNL     1       2.954   4.833  18.962  0.00  0.00    +0.000 C 
ATOM     22  S   UNL     1       1.887   3.558  19.147  0.00  0.00    +0.000 S 
BRANCH  21  23
ATOM     23  N   UNL     1       3.911   4.690  17.955  0.00  0.00    +0.000 N 
ATOM     24  C   UNL     1       5.251   4.476  18.136  0.00  0.00    +0.000 C 
ATOM     25  O   UNL     1       5.747   4.464  19.273  0.00  0.00    +0.000 OA
ATOM     26  H   UNL     1       3.530   4.696  17.018  0.00  0.00    +0.000 HD
BRANCH  24  27
ATOM     27  C   UNL     1       6.109   4.255  16.950  0.00  0.00    +0.000 C 
ATOM     28  C   UNL     1       5.577   4.663  15.784  0.00  0.00    +0.000 C 
BRANCH  28  29
ATOM     29  C   UNL     1       6.134   4.511  14.436  0.00  0.00    +0.000 A 
ATOM     30  C   UNL     1       5.496   3.628  13.549  0.00  0.00    +0.000 A 
ATOM     31  C   UNL     1       6.011   3.406  12.271  0.00  0.00    +0.000 A 
ATOM     32  C   UNL     1       7.154   4.087  11.860  0.00  0.00    +0.000 A 
ATOM     33  C   UNL     1       7.772   4.993  12.721  0.00  0.00    +0.000 A 
ATOM     34  C   UNL     1       7.260   5.211  14.001  0.00  0.00    +0.000 A 
ENDBRANCH  28  29
ENDBRANCH  24  27
ENDBRANCH  21  23
ENDBRANCH  19  21
ENDBRANCH   4  19
TORSDOF 8
ENDMDL
MODEL 2
REMARK VINA RESULT:      -8.4      3.617      9.690
REMARK  Name = 
REMARK  9 active torsions:
REMARK  status: ('A' for Active; 'I' for Inactive)
REMARK    1  A    between atoms: C_1  and  C_2
REMARK    2  A    between atoms: C_2  and  C_3
REMARK    3  A    between atoms: N_7  and  S_8
REMARK    4  A    between atoms: S_8  and  C_11
REMARK    5  A    between atoms: C_14  and  N_15
REMARK    6  A    between atoms: N_15  and  C_16
REMARK    7  A    between atoms: C_16  and  N_18
REMARK    8  A    between atoms: C_19  and  C_21
REMARK    9  A    between atoms: C_22  and  C_23
REMARK                            x       y       z     vdW  Elec       q    Type
REMARK                         _______ _______ _______ _____ _____    ______ ____
ROOT
ATOM      1  C   UNL     1       2.249   4.547  18.993  0.00  0.00    +0.000 A 
ATOM      2  C   UNL     1       1.919   4.555  20.349  0.00  0.00    +0.000 A 
ATOM      3  C   UNL     1       1.784   5.780  21.038  0.00  0.00    +0.000 A 
ATOM      4  C   UNL     1       2.042   7.000  20.391  0.00  0.00    +0.000 A 
ATOM      5  C   UNL     1       2.341   6.967  19.031  0.00  0.00    +0.000 A 
ATOM      6  C   UNL     1       2.480   5.761  18.342  0.00  0.00    +0.000 A 
ENDROOT
BRANCH   1   7
ATOM      7  S   UNL     1       2.419   3.029  18.061  0.00  0.00    +0.000 S 
ATOM      8  O   UNL     1       1.962   3.292  16.708  0.00  0.00    +0.000 OA
ATOM      9  O   UNL     1       1.818   1.978  18.850  0.00  0.00    +0.000 OA
BRANCH   7  14
ATOM     10  C   UNL     1       6.505   5.482  17.920  0.00  0.00    +0.000 A 
ATOM     11  N   UNL     1       6.239   5.219  19.184  0.00  0.00    +0.000 NA
ATOM     12  N   UNL     1       5.367   4.155  19.319  0.00  0.00    +0.000 NA
ATOM     13  C   UNL     1       4.932   3.734  18.157  0.00  0.00    +0.000 A 
ATOM     14  N   UNL     1       4.044   2.662  18.030  0.00  0.00    +0.000 N 
ATOM     15  S   UNL     1       5.683   4.463  16.806  0.00  0.00    +0.000 S 
ATOM     16  H   UNL     1       4.337   1.722  18.276  0.00  0.00    +0.000 HD
BRANCH  10  18
ATOM     17  C   UNL     1       8.166   7.206  18.616  0.00  0.00    +0.000 C 
ATOM     18  C   UNL     1       7.442   6.547  17.454  0.00  0.00    +0.000 C 
ENDBRANCH  10  18
ENDBRANCH   7  14
ENDBRANCH   1   7
BRANCH   4  19
ATOM     19  N   UNL     1       1.962   8.212  21.119  0.00  0.00    +0.000 N 
ATOM     20  H   UNL     1       2.860   8.666  21.300  0.00  0.00    +0.000 HD
BRANCH  19  21
ATOM     21  C   UNL     1       0.860   8.963  21.525  0.00  0.00    +0.000 C 
ATOM     22  S   UNL     1       0.261   9.188  23.071  0.00  0.00    +0.000 S 
BRANCH  21  23
ATOM     23  N   UNL     1       0.130   9.554  20.493  0.00  0.00    +0.000 N 
ATOM     24  C   UNL     1       0.334  10.802  19.967  0.00  0.00    +0.000 C 
ATOM     25  O   UNL     1       1.188  11.563  20.447  0.00  0.00    +0.000 OA
ATOM     26  H   UNL     1      -0.573   8.952  20.084  0.00  0.00    +0.000 HD
BRANCH  24  27
ATOM     27  C   UNL     1      -0.479  11.235  18.809  0.00  0.00    +0.000 C 
ATOM     28  C   UNL     1      -1.477  10.397  18.474  0.00  0.00    +0.000 C 
BRANCH  28  29
ATOM     29  C   UNL     1      -2.398  10.500  17.338  0.00  0.00    +0.000 A 
ATOM     30  C   UNL     1      -2.159   9.691  16.214  0.00  0.00    +0.000 A 
ATOM     31  C   UNL     1      -2.973   9.782  15.084  0.00  0.00    +0.000 A 
ATOM     32  C   UNL     1      -4.050  10.664  15.080  0.00  0.00    +0.000 A 
ATOM     33  C   UNL     1      -4.317  11.443  16.205  0.00  0.00    +0.000 A 
ATOM     34  C   UNL     1      -3.500  11.356  17.333  0.00  0.00    +0.000 A 
ENDBRANCH  28  29
ENDBRANCH  24  27
ENDBRANCH  21  23
ENDBRANCH  19  21
ENDBRANCH   4  19
TORSDOF 8
ENDMDL
MODEL 3
REMARK VINA RESULT:      -8.1      4.265      5.228
REMARK  Name = 
REMARK  9 active torsions:
REMARK  status: ('A' for Active; 'I' for Inactive)
REMARK    1  A    between atoms: C_1  and  C_2
REMARK    2  A    between atoms: C_2  and  C_3
REMARK    3  A    between atoms: N_7  and  S_8
REMARK    4  A    between atoms: S_8  and  C_11
REMARK    5  A    between atoms: C_14  and  N_15
REMARK    6  A    between atoms: N_15  and  C_16
REMARK    7  A    between atoms: C_16  and  N_18
REMARK    8  A    between atoms: C_19  and  C_21
REMARK    9  A    between atoms: C_22  and  C_23
REMARK                            x       y       z     vdW  Elec       q    Type
REMARK                         _______ _______ _______ _____ _____    ______ ____
ROOT
ATOM      1  C   UNL     1       1.428   8.315  20.230  0.00  0.00    +0.000 A 
ATOM      2  C   UNL     1       1.975   7.056  20.482  0.00  0.00    +0.000 A 
ATOM      3  C   UNL     1       2.819   6.446  19.529  0.00  0.00    +0.000 A 
ATOM      4  C   UNL     1       3.069   7.064  18.292  0.00  0.00    +0.000 A 
ATOM      5  C   UNL     1       2.536   8.332  18.077  0.00  0.00    +0.000 A 
ATOM      6  C   UNL     1       1.697   8.942  19.012  0.00  0.00    +0.000 A 
ENDROOT
BRANCH   1   7
ATOM      7  S   UNL     1       0.364   9.146  21.404  0.00  0.00    +0.000 S 
ATOM      8  O   UNL     1       1.199   9.623  22.491  0.00  0.00    +0.000 OA
ATOM      9  O   UNL     1      -0.750   8.262  21.665  0.00  0.00    +0.000 OA
BRANCH   7  14
ATOM     10  C   UNL     1      -0.256  13.785  22.313  0.00  0.00    +0.000 A 
ATOM     11  N   UNL     1       0.865  13.656  21.630  0.00  0.00    +0.000 NA
ATOM     12  N   UNL     1       0.911  12.465  20.931  0.00  0.00    +0.000 NA
ATOM     13  C   UNL     1      -0.121  11.703  21.201  0.00  0.00    +0.000 A 
ATOM     14  N   UNL     1      -0.305  10.450  20.610  0.00  0.00    +0.000 N 
ATOM     15  S   UNL     1      -1.320  12.442  22.170  0.00  0.00    +0.000 S 
ATOM     16  H   UNL     1      -0.491  10.373  19.616  0.00  0.00    +0.000 HD
BRANCH  10  18
ATOM     17  C   UNL     1      -1.452  14.594  24.345  0.00  0.00    +0.000 C 
ATOM     18  C   UNL     1      -0.616  14.978  23.135  0.00  0.00    +0.000 C 
ENDBRANCH  10  18
ENDBRANCH   7  14
ENDBRANCH   1   7
BRANCH   4  19
ATOM     19  N   UNL     1       3.868   6.405  17.326  0.00  0.00    +0.000 N 
ATOM     20  H   UNL     1       3.539   6.492  16.362  0.00  0.00    +0.000 HD
BRANCH  19  21
ATOM     21  C   UNL     1       5.099   5.761  17.444  0.00  0.00    +0.000 C 
ATOM     22  S   UNL     1       5.512   4.205  16.987  0.00  0.00    +0.000 S 
BRANCH  21  23
ATOM     23  N   UNL     1       6.097   6.496  18.084  0.00  0.00    +0.000 N 
ATOM     24  C   UNL     1       7.267   6.933  17.522  0.00  0.00    +0.000 C 
ATOM     25  O   UNL     1       7.569   6.627  16.359  0.00  0.00    +0.000 OA
ATOM     26  H   UNL     1       5.874   6.759  19.035  0.00  0.00    +0.000 HD
BRANCH  24  27
ATOM     27  C   UNL     1       8.176   7.783  18.324  0.00  0.00    +0.000 C 
ATOM     28  C   UNL     1       8.171   9.086  17.990  0.00  0.00    +0.000 C 
BRANCH  28  29
ATOM     29  C   UNL     1       9.010  10.159  18.533  0.00  0.00    +0.000 A 
ATOM     30  C   UNL     1       9.198  10.217  19.925  0.00  0.00    +0.000 A 
ATOM     31  C   UNL     1       9.946  11.244  20.501  0.00  0.00    +0.000 A 
ATOM     32  C   UNL     1      10.534  12.209  19.688  0.00  0.00    +0.000 A 
ATOM     33  C   UNL     1      10.383  12.139  18.303  0.00  0.00    +0.000 A 
ATOM     34  C   UNL     1       9.631  11.114  17.727  0.00  0.00    +0.000 A 
ENDBRANCH  28  29
ENDBRANCH  24  27
ENDBRANCH  21  23
ENDBRANCH  19  21
ENDBRANCH   4  19
TORSDOF 8
ENDMDL
MODEL 4
REMARK VINA RESULT:      -8.0      4.074      4.927
REMARK  Name = 
REMARK  9 active torsions:
REMARK  status: ('A' for Active; 'I' for Inactive)
REMARK    1  A    between atoms: C_1  and  C_2
REMARK    2  A    between atoms: C_2  and  C_3
REMARK    3  A    between atoms: N_7  and  S_8
REMARK    4  A    between atoms: S_8  and  C_11
REMARK    5  A    between atoms: C_14  and  N_15
REMARK    6  A    between atoms: N_15  and  C_16
REMARK    7  A    between atoms: C_16  and  N_18
REMARK    8  A    between atoms: C_19  and  C_21
REMARK    9  A    between atoms: C_22  and  C_23
REMARK                            x       y       z     vdW  Elec       q    Type
REMARK                         _______ _______ _______ _____ _____    ______ ____
ROOT
ATOM      1  C   UNL     1       1.662   8.905  19.056  0.00  0.00    +0.000 A 
ATOM      2  C   UNL     1       1.787   7.856  19.968  0.00  0.00    +0.000 A 
ATOM      3  C   UNL     1       2.619   6.755  19.672  0.00  0.00    +0.000 A 
ATOM      4  C   UNL     1       3.280   6.666  18.436  0.00  0.00    +0.000 A 
ATOM      5  C   UNL     1       3.163   7.738  17.555  0.00  0.00    +0.000 A 
ATOM      6  C   UNL     1       2.340   8.830  17.837  0.00  0.00    +0.000 A 
ENDROOT
BRANCH   1   7
ATOM      7  S   UNL     1       0.636  10.334  19.378  0.00  0.00    +0.000 S 
ATOM      8  O   UNL     1      -0.747   9.891  19.370  0.00  0.00    +0.000 OA
ATOM      9  O   UNL     1       1.077  11.383  18.487  0.00  0.00    +0.000 OA
BRANCH   7  14
ATOM     10  C   UNL     1      -1.679  12.361  23.021  0.00  0.00    +0.000 A 
ATOM     11  N   UNL     1      -1.657  11.060  23.233  0.00  0.00    +0.000 NA
ATOM     12  N   UNL     1      -0.651  10.436  22.521  0.00  0.00    +0.000 NA
ATOM     13  C   UNL     1      -0.031  11.270  21.723  0.00  0.00    +0.000 A 
ATOM     14  N   UNL     1       1.031  10.878  20.903  0.00  0.00    +0.000 N 
ATOM     15  S   UNL     1      -0.486  12.907  21.909  0.00  0.00    +0.000 S 
ATOM     16  H   UNL     1       1.914  10.591  21.310  0.00  0.00    +0.000 HD
BRANCH  10  18
ATOM     17  C   UNL     1      -3.875  12.608  24.174  0.00  0.00    +0.000 C 
ATOM     18  C   UNL     1      -2.624  13.312  23.677  0.00  0.00    +0.000 C 
ENDBRANCH  10  18
ENDBRANCH   7  14
ENDBRANCH   1   7
BRANCH   4  19
ATOM     19  N   UNL     1       4.059   5.522  18.137  0.00  0.00    +0.000 N 
ATOM     20  H   UNL     1       3.567   4.630  18.223  0.00  0.00    +0.000 HD
BRANCH  19  21
ATOM     21  C   UNL     1       5.349   5.404  17.622  0.00  0.00    +0.000 C 
ATOM     22  S   UNL     1       5.902   4.392  16.409  0.00  0.00    +0.000 S 
BRANCH  21  23
ATOM     23  N   UNL     1       6.315   6.194  18.247  0.00  0.00    +0.000 N 
ATOM     24  C   UNL     1       7.316   6.893  17.627  0.00  0.00    +0.000 C 
ATOM     25  O   UNL     1       7.485   6.810  16.400  0.00  0.00    +0.000 OA
ATOM     26  H   UNL     1       6.198   6.277  19.249  0.00  0.00    +0.000 HD
BRANCH  24  27
ATOM     27  C   UNL     1       8.200   7.756  18.440  0.00  0.00    +0.000 C 
ATOM     28  C   UNL     1       8.255   9.041  18.045  0.00  0.00    +0.000 C 
BRANCH  28  29
ATOM     29  C   UNL     1       9.092  10.116  18.585  0.00  0.00    +0.000 A 
ATOM     30  C   UNL     1       9.137  10.287  19.979  0.00  0.00    +0.000 A 
ATOM     31  C   UNL     1       9.878  11.325  20.547  0.00  0.00    +0.000 A 
ATOM     32  C   UNL     1      10.601  12.185  19.726  0.00  0.00    +0.000 A 
ATOM     33  C   UNL     1      10.593  12.000  18.344  0.00  0.00    +0.000 A 
ATOM     34  C   UNL     1       9.848  10.965  17.776  0.00  0.00    +0.000 A 
ENDBRANCH  28  29
ENDBRANCH  24  27
ENDBRANCH  21  23
ENDBRANCH  19  21
ENDBRANCH   4  19
TORSDOF 8
ENDMDL
MODEL 5
REMARK VINA RESULT:      -8.0      0.906      1.278
REMARK  Name = 
REMARK  9 active torsions:
REMARK  status: ('A' for Active; 'I' for Inactive)
REMARK    1  A    between atoms: C_1  and  C_2
REMARK    2  A    between atoms: C_2  and  C_3
REMARK    3  A    between atoms: N_7  and  S_8
REMARK    4  A    between atoms: S_8  and  C_11
REMARK    5  A    between atoms: C_14  and  N_15
REMARK    6  A    between atoms: N_15  and  C_16
REMARK    7  A    between atoms: C_16  and  N_18
REMARK    8  A    between atoms: C_19  and  C_21
REMARK    9  A    between atoms: C_22  and  C_23
REMARK                            x       y       z     vdW  Elec       q    Type
REMARK                         _______ _______ _______ _____ _____    ______ ____
ROOT
ATOM      1  C   UNL     1       1.248   9.049  19.704  0.00  0.00    +0.000 A 
ATOM      2  C   UNL     1       1.088   8.345  20.898  0.00  0.00    +0.000 A 
ATOM      3  C   UNL     1       1.684   7.074  21.058  0.00  0.00    +0.000 A 
ATOM      4  C   UNL     1       2.387   6.474  20.000  0.00  0.00    +0.000 A 
ATOM      5  C   UNL     1       2.558   7.208  18.830  0.00  0.00    +0.000 A 
ATOM      6  C   UNL     1       1.970   8.463  18.661  0.00  0.00    +0.000 A 
ENDROOT
BRANCH   1   7
ATOM      7  S   UNL     1       0.532  10.667  19.446  0.00  0.00    +0.000 S 
ATOM      8  O   UNL     1      -0.912  10.511  19.437  0.00  0.00    +0.000 OA
ATOM      9  O   UNL     1       1.215  11.259  18.318  0.00  0.00    +0.000 OA
BRANCH   7  14
ATOM     10  C   UNL     1      -1.711  12.843  23.047  0.00  0.00    +0.000 A 
ATOM     11  N   UNL     1      -1.318  11.661  23.476  0.00  0.00    +0.000 NA
ATOM     12  N   UNL     1      -0.291  11.146  22.708  0.00  0.00    +0.000 NA
ATOM     13  C   UNL     1      -0.029  11.909  21.674  0.00  0.00    +0.000 A 
ATOM     14  N   UNL     1       0.975  11.605  20.751  0.00  0.00    +0.000 N 
ATOM     15  S   UNL     1      -0.870  13.397  21.653  0.00  0.00    +0.000 S 
ATOM     16  H   UNL     1       1.951  11.624  21.029  0.00  0.00    +0.000 HD
BRANCH  10  18
ATOM     17  C   UNL     1      -3.989  13.823  22.793  0.00  0.00    +0.000 C 
ATOM     18  C   UNL     1      -2.774  13.670  23.692  0.00  0.00    +0.000 C 
ENDBRANCH  10  18
ENDBRANCH   7  14
ENDBRANCH   1   7
BRANCH   4  19
ATOM     19  N   UNL     1       2.922   5.173  20.163  0.00  0.00    +0.000 N 
ATOM     20  H   UNL     1       3.585   5.072  20.935  0.00  0.00    +0.000 HD
BRANCH  19  21
ATOM     21  C   UNL     1       2.608   3.970  19.532  0.00  0.00    +0.000 C 
ATOM     22  S   UNL     1       1.845   2.624  20.169  0.00  0.00    +0.000 S 
BRANCH  21  23
ATOM     23  N   UNL     1       3.046   3.858  18.212  0.00  0.00    +0.000 N 
ATOM     24  C   UNL     1       4.334   4.003  17.770  0.00  0.00    +0.000 C 
ATOM     25  O   UNL     1       5.242   4.333  18.550  0.00  0.00    +0.000 OA
ATOM     26  H   UNL     1       2.324   3.589  17.556  0.00  0.00    +0.000 HD
BRANCH  24  27
ATOM     27  C   UNL     1       4.636   3.758  16.342  0.00  0.00    +0.000 C 
ATOM     28  C   UNL     1       5.739   4.378  15.884  0.00  0.00    +0.000 C 
BRANCH  28  29
ATOM     29  C   UNL     1       6.255   4.403  14.511  0.00  0.00    +0.000 A 
ATOM     30  C   UNL     1       5.625   3.596  13.549  0.00  0.00    +0.000 A 
ATOM     31  C   UNL     1       6.104   3.542  12.240  0.00  0.00    +0.000 A 
ATOM     32  C   UNL     1       7.201   4.317  11.875  0.00  0.00    +0.000 A 
ATOM     33  C   UNL     1       7.810   5.149  12.813  0.00  0.00    +0.000 A 
ATOM     34  C   UNL     1       7.334   5.199  14.125  0.00  0.00    +0.000 A 
ENDBRANCH  28  29
ENDBRANCH  24  27
ENDBRANCH  21  23
ENDBRANCH  19  21
ENDBRANCH   4  19
TORSDOF 8
ENDMDL
MODEL 6
REMARK VINA RESULT:      -7.9      3.674      9.905
REMARK  Name = 
REMARK  9 active torsions:
REMARK  status: ('A' for Active; 'I' for Inactive)
REMARK    1  A    between atoms: C_1  and  C_2
REMARK    2  A    between atoms: C_2  and  C_3
REMARK    3  A    between atoms: N_7  and  S_8
REMARK    4  A    between atoms: S_8  and  C_11
REMARK    5  A    between atoms: C_14  and  N_15
REMARK    6  A    between atoms: N_15  and  C_16
REMARK    7  A    between atoms: C_16  and  N_18
REMARK    8  A    between atoms: C_19  and  C_21
REMARK    9  A    between atoms: C_22  and  C_23
REMARK                            x       y       z     vdW  Elec       q    Type
REMARK                         _______ _______ _______ _____ _____    ______ ____
ROOT
ATOM      1  C   UNL     1       2.350   4.532  18.862  0.00  0.00    +0.000 A 
ATOM      2  C   UNL     1       2.572   5.720  18.165  0.00  0.00    +0.000 A 
ATOM      3  C   UNL     1       2.484   6.961  18.833  0.00  0.00    +0.000 A 
ATOM      4  C   UNL     1       2.110   7.023  20.185  0.00  0.00    +0.000 A 
ATOM      5  C   UNL     1       1.922   5.823  20.866  0.00  0.00    +0.000 A 
ATOM      6  C   UNL     1       2.003   4.591  20.214  0.00  0.00    +0.000 A 
ENDROOT
BRANCH   1   7
ATOM      7  S   UNL     1       2.461   2.929  18.076  0.00  0.00    +0.000 S 
ATOM      8  O   UNL     1       1.969   3.072  16.718  0.00  0.00    +0.000 OA
ATOM      9  O   UNL     1       1.862   1.972  18.979  0.00  0.00    +0.000 OA
BRANCH   7  14
ATOM     10  C   UNL     1       6.603   5.281  17.878  0.00  0.00    +0.000 A 
ATOM     11  N   UNL     1       6.341   5.037  19.146  0.00  0.00    +0.000 NA
ATOM     12  N   UNL     1       5.446   3.995  19.299  0.00  0.00    +0.000 NA
ATOM     13  C   UNL     1       4.990   3.574  18.145  0.00  0.00    +0.000 A 
ATOM     14  N   UNL     1       4.077   2.522  18.036  0.00  0.00    +0.000 N 
ATOM     15  S   UNL     1       5.748   4.271  16.781  0.00  0.00    +0.000 S 
ATOM     16  H   UNL     1       4.348   1.578  18.288  0.00  0.00    +0.000 HD
BRANCH  10  18
ATOM     17  C   UNL     1       8.042   7.212  18.526  0.00  0.00    +0.000 C 
ATOM     18  C   UNL     1       7.561   6.319  17.394  0.00  0.00    +0.000 C 
ENDBRANCH  10  18
ENDBRANCH   7  14
ENDBRANCH   1   7
BRANCH   4  19
ATOM     19  N   UNL     1       1.968   8.282  20.817  0.00  0.00    +0.000 N 
ATOM     20  H   UNL     1       2.845   8.724  21.101  0.00  0.00    +0.000 HD
BRANCH  19  21
ATOM     21  C   UNL     1       0.846   9.087  21.010  0.00  0.00    +0.000 C 
ATOM     22  S   UNL     1      -0.569   8.730  21.829  0.00  0.00    +0.000 S 
BRANCH  21  23
ATOM     23  N   UNL     1       0.891  10.332  20.381  0.00  0.00    +0.000 N 
ATOM     24  C   UNL     1       0.621  10.585  19.063  0.00  0.00    +0.000 C 
ATOM     25  O   UNL     1       0.371   9.659  18.275  0.00  0.00    +0.000 OA
ATOM     26  H   UNL     1       1.093  11.104  21.003  0.00  0.00    +0.000 HD
BRANCH  24  27
ATOM     27  C   UNL     1       0.628  11.985  18.583  0.00  0.00    +0.000 C 
ATOM     28  C   UNL     1       1.743  12.677  18.879  0.00  0.00    +0.000 C 
BRANCH  28  29
ATOM     29  C   UNL     1       2.021  14.093  18.619  0.00  0.00    +0.000 A 
ATOM     30  C   UNL     1       1.122  15.050  19.120  0.00  0.00    +0.000 A 
ATOM     31  C   UNL     1       1.310  16.408  18.861  0.00  0.00    +0.000 A 
ATOM     32  C   UNL     1       2.413  16.823  18.121  0.00  0.00    +0.000 A 
ATOM     33  C   UNL     1       3.330  15.884  17.651  0.00  0.00    +0.000 A 
ATOM     34  C   UNL     1       3.140  14.525  17.906  0.00  0.00    +0.000 A 
ENDBRANCH  28  29
ENDBRANCH  24  27
ENDBRANCH  21  23
ENDBRANCH  19  21
ENDBRANCH   4  19
TORSDOF 8
ENDMDL
MODEL 7
REMARK VINA RESULT:      -7.8      3.275     11.265
REMARK  Name = 
REMARK  9 active torsions:
REMARK  status: ('A' for Active; 'I' for Inactive)
REMARK    1  A    between atoms: C_1  and  C_2
REMARK    2  A    between atoms: C_2  and  C_3
REMARK    3  A    between atoms: N_7  and  S_8
REMARK    4  A    between atoms: S_8  and  C_11
REMARK    5  A    between atoms: C_14  and  N_15
REMARK    6  A    between atoms: N_15  and  C_16
REMARK    7  A    between atoms: C_16  and  N_18
REMARK    8  A    between atoms: C_19  and  C_21
REMARK    9  A    between atoms: C_22  and  C_23
REMARK                            x       y       z     vdW  Elec       q    Type
REMARK                         _______ _______ _______ _____ _____    ______ ____
ROOT
ATOM      1  C   UNL     1       2.408   4.392  18.833  0.00  0.00    +0.000 A 
ATOM      2  C   UNL     1       2.589   5.472  17.968  0.00  0.00    +0.000 A 
ATOM      3  C   UNL     1       2.389   6.792  18.430  0.00  0.00    +0.000 A 
ATOM      4  C   UNL     1       1.944   7.033  19.741  0.00  0.00    +0.000 A 
ATOM      5  C   UNL     1       1.798   5.941  20.592  0.00  0.00    +0.000 A 
ATOM      6  C   UNL     1       1.990   4.633  20.144  0.00  0.00    +0.000 A 
ENDROOT
BRANCH   1   7
ATOM      7  S   UNL     1       2.659   2.699  18.312  0.00  0.00    +0.000 S 
ATOM      8  O   UNL     1       2.251   2.603  16.922  0.00  0.00    +0.000 OA
ATOM      9  O   UNL     1       2.056   1.853  19.316  0.00  0.00    +0.000 OA
BRANCH   7  14
ATOM     10  C   UNL     1       6.651   5.306  18.351  0.00  0.00    +0.000 A 
ATOM     11  N   UNL     1       6.296   5.099  19.603  0.00  0.00    +0.000 NA
ATOM     12  N   UNL     1       5.456   4.008  19.729  0.00  0.00    +0.000 NA
ATOM     13  C   UNL     1       5.129   3.510  18.562  0.00  0.00    +0.000 A 
ATOM     14  N   UNL     1       4.294   2.397  18.427  0.00  0.00    +0.000 N 
ATOM     15  S   UNL     1       5.958   4.197  17.235  0.00  0.00    +0.000 S 
ATOM     16  H   UNL     1       4.600   1.484  18.746  0.00  0.00    +0.000 HD
BRANCH  10  18
ATOM     17  C   UNL     1       6.828   7.598  17.385  0.00  0.00    +0.000 C 
ATOM     18  C   UNL     1       7.582   6.383  17.900  0.00  0.00    +0.000 C 
ENDBRANCH  10  18
ENDBRANCH   7  14
ENDBRANCH   1   7
BRANCH   4  19
ATOM     19  N   UNL     1       1.691   8.361  20.162  0.00  0.00    +0.000 N 
ATOM     20  H   UNL     1       2.014   8.583  21.106  0.00  0.00    +0.000 HD
BRANCH  19  21
ATOM     21  C   UNL     1       1.188   9.460  19.468  0.00  0.00    +0.000 C 
ATOM     22  S   UNL     1       1.750  10.148  18.050  0.00  0.00    +0.000 S 
BRANCH  21  23
ATOM     23  N   UNL     1       0.109  10.105  20.075  0.00  0.00    +0.000 N 
ATOM     24  C   UNL     1       0.101  10.672  21.321  0.00  0.00    +0.000 C 
ATOM     25  O   UNL     1       1.088  10.584  22.068  0.00  0.00    +0.000 OA
ATOM     26  H   UNL     1      -0.709  10.190  19.485  0.00  0.00    +0.000 HD
BRANCH  24  27
ATOM     27  C   UNL     1      -1.108  11.398  21.772  0.00  0.00    +0.000 C 
ATOM     28  C   UNL     1      -0.883  12.350  22.696  0.00  0.00    +0.000 C 
BRANCH  28  29
ATOM     29  C   UNL     1      -1.870  13.178  23.396  0.00  0.00    +0.000 A 
ATOM     30  C   UNL     1      -3.166  12.665  23.569  0.00  0.00    +0.000 A 
ATOM     31  C   UNL     1      -4.159  13.429  24.184  0.00  0.00    +0.000 A 
ATOM     32  C   UNL     1      -3.856  14.703  24.655  0.00  0.00    +0.000 A 
ATOM     33  C   UNL     1      -2.563  15.206  24.521  0.00  0.00    +0.000 A 
ATOM     34  C   UNL     1      -1.570  14.444  23.901  0.00  0.00    +0.000 A 
ENDBRANCH  28  29
ENDBRANCH  24  27
ENDBRANCH  21  23
ENDBRANCH  19  21
ENDBRANCH   4  19
TORSDOF 8
ENDMDL
MODEL 8
REMARK VINA RESULT:      -7.8      4.431      5.364
REMARK  Name = 
REMARK  9 active torsions:
REMARK  status: ('A' for Active; 'I' for Inactive)
REMARK    1  A    between atoms: C_1  and  C_2
REMARK    2  A    between atoms: C_2  and  C_3
REMARK    3  A    between atoms: N_7  and  S_8
REMARK    4  A    between atoms: S_8  and  C_11
REMARK    5  A    between atoms: C_14  and  N_15
REMARK    6  A    between atoms: N_15  and  C_16
REMARK    7  A    between atoms: C_16  and  N_18
REMARK    8  A    between atoms: C_19  and  C_21
REMARK    9  A    between atoms: C_22  and  C_23
REMARK                            x       y       z     vdW  Elec       q    Type
REMARK                         _______ _______ _______ _____ _____    ______ ____
ROOT
ATOM      1  C   UNL     1       1.580   8.821  19.301  0.00  0.00    +0.000 A 
ATOM      2  C   UNL     1       2.061   8.982  18.000  0.00  0.00    +0.000 A 
ATOM      3  C   UNL     1       2.900   8.001  17.428  0.00  0.00    +0.000 A 
ATOM      4  C   UNL     1       3.315   6.887  18.176  0.00  0.00    +0.000 A 
ATOM      5  C   UNL     1       2.799   6.734  19.460  0.00  0.00    +0.000 A 
ATOM      6  C   UNL     1       1.971   7.700  20.036  0.00  0.00    +0.000 A 
ENDROOT
BRANCH   1   7
ATOM      7  S   UNL     1       0.503  10.020  20.076  0.00  0.00    +0.000 S 
ATOM      8  O   UNL     1       0.714   9.937  21.510  0.00  0.00    +0.000 OA
ATOM      9  O   UNL     1      -0.816   9.831  19.514  0.00  0.00    +0.000 OA
BRANCH   7  14
ATOM     10  C   UNL     1       0.157  14.515  21.628  0.00  0.00    +0.000 A 
ATOM     11  N   UNL     1       1.317  14.039  22.033  0.00  0.00    +0.000 NA
ATOM     12  N   UNL     1       1.723  12.953  21.280  0.00  0.00    +0.000 NA
ATOM     13  C   UNL     1       0.805  12.591  20.417  0.00  0.00    +0.000 A 
ATOM     14  N   UNL     1       0.983  11.522  19.535  0.00  0.00    +0.000 N 
ATOM     15  S   UNL     1      -0.536  13.647  20.315  0.00  0.00    +0.000 S 
ATOM     16  H   UNL     1       1.676  11.575  18.796  0.00  0.00    +0.000 HD
BRANCH  10  18
ATOM     17  C   UNL     1      -0.959  15.454  23.650  0.00  0.00    +0.000 C 
ATOM     18  C   UNL     1      -0.524  15.707  22.216  0.00  0.00    +0.000 C 
ENDBRANCH  10  18
ENDBRANCH   7  14
ENDBRANCH   1   7
BRANCH   4  19
ATOM     19  N   UNL     1       4.207   5.949  17.602  0.00  0.00    +0.000 N 
ATOM     20  H   UNL     1       4.009   4.971  17.828  0.00  0.00    +0.000 HD
BRANCH  19  21
ATOM     21  C   UNL     1       5.237   6.114  16.677  0.00  0.00    +0.000 C 
ATOM     22  S   UNL     1       5.721   5.077  15.456  0.00  0.00    +0.000 S 
BRANCH  21  23
ATOM     23  N   UNL     1       5.999   7.272  16.835  0.00  0.00    +0.000 N 
ATOM     24  C   UNL     1       7.154   7.389  17.561  0.00  0.00    +0.000 C 
ATOM     25  O   UNL     1       7.589   6.435  18.224  0.00  0.00    +0.000 OA
ATOM     26  H   UNL     1       5.664   8.065  16.303  0.00  0.00    +0.000 HD
BRANCH  24  27
ATOM     27  C   UNL     1       7.886   8.675  17.544  0.00  0.00    +0.000 C 
ATOM     28  C   UNL     1       8.536   8.970  18.685  0.00  0.00    +0.000 C 
BRANCH  28  29
ATOM     29  C   UNL     1       9.275  10.193  19.012  0.00  0.00    +0.000 A 
ATOM     30  C   UNL     1       9.803  10.953  17.955  0.00  0.00    +0.000 A 
ATOM     31  C   UNL     1      10.558  12.099  18.209  0.00  0.00    +0.000 A 
ATOM     32  C   UNL     1      10.767  12.510  19.523  0.00  0.00    +0.000 A 
ATOM     33  C   UNL     1      10.215  11.783  20.576  0.00  0.00    +0.000 A 
ATOM     34  C   UNL     1       9.464  10.633  20.323  0.00  0.00    +0.000 A 
ENDBRANCH  28  29
ENDBRANCH  24  27
ENDBRANCH  21  23
ENDBRANCH  19  21
ENDBRANCH   4  19
TORSDOF 8
ENDMDL
MODEL 9
REMARK VINA RESULT:      -7.8      2.801      3.495
REMARK  Name = 
REMARK  9 active torsions:
REMARK  status: ('A' for Active; 'I' for Inactive)
REMARK    1  A    between atoms: C_1  and  C_2
REMARK    2  A    between atoms: C_2  and  C_3
REMARK    3  A    between atoms: N_7  and  S_8
REMARK    4  A    between atoms: S_8  and  C_11
REMARK    5  A    between atoms: C_14  and  N_15
REMARK    6  A    between atoms: N_15  and  C_16
REMARK    7  A    between atoms: C_16  and  N_18
REMARK    8  A    between atoms: C_19  and  C_21
REMARK    9  A    between atoms: C_22  and  C_23
REMARK                            x       y       z     vdW  Elec       q    Type
REMARK                         _______ _______ _______ _____ _____    ______ ____
ROOT
ATOM      1  C   UNL     1       1.298   8.237  20.421  0.00  0.00    +0.000 A 
ATOM      2  C   UNL     1       1.090   7.203  21.334  0.00  0.00    +0.000 A 
ATOM      3  C   UNL     1       1.697   5.945  21.131  0.00  0.00    +0.000 A 
ATOM      4  C   UNL     1       2.463   5.695  19.980  0.00  0.00    +0.000 A 
ATOM      5  C   UNL     1       2.679   6.752  19.099  0.00  0.00    +0.000 A 
ATOM      6  C   UNL     1       2.080   7.998  19.290  0.00  0.00    +0.000 A 
ENDROOT
BRANCH   1   7
ATOM      7  S   UNL     1       0.569   9.857  20.631  0.00  0.00    +0.000 S 
ATOM      8  O   UNL     1       1.380  10.582  21.593  0.00  0.00    +0.000 OA
ATOM      9  O   UNL     1      -0.844   9.659  20.862  0.00  0.00    +0.000 OA
BRANCH   7  14
ATOM     10  C   UNL     1      -2.509  11.091  17.205  0.00  0.00    +0.000 A 
ATOM     11  N   UNL     1      -2.360  12.129  18.003  0.00  0.00    +0.000 NA
ATOM     12  N   UNL     1      -1.188  12.059  18.732  0.00  0.00    +0.000 NA
ATOM     13  C   UNL     1      -0.560  10.926  18.533  0.00  0.00    +0.000 A 
ATOM     14  N   UNL     1       0.655  10.621  19.152  0.00  0.00    +0.000 N 
ATOM     15  S   UNL     1      -1.236   9.940  17.312  0.00  0.00    +0.000 S 
ATOM     16  H   UNL     1       1.494  11.141  18.920  0.00  0.00    +0.000 HD
BRANCH  10  18
ATOM     17  C   UNL     1      -3.244  10.103  15.038  0.00  0.00    +0.000 C 
ATOM     18  C   UNL     1      -3.653  10.900  16.265  0.00  0.00    +0.000 C 
ENDBRANCH  10  18
ENDBRANCH   7  14
ENDBRANCH   1   7
BRANCH   4  19
ATOM     19  N   UNL     1       3.010   4.407  19.766  0.00  0.00    +0.000 N 
ATOM     20  H   UNL     1       3.402   3.962  20.599  0.00  0.00    +0.000 HD
BRANCH  19  21
ATOM     21  C   UNL     1       2.996   3.582  18.642  0.00  0.00    +0.000 C 
ATOM     22  S   UNL     1       2.035   2.246  18.338  0.00  0.00    +0.000 S 
BRANCH  21  23
ATOM     23  N   UNL     1       3.955   3.880  17.673  0.00  0.00    +0.000 N 
ATOM     24  C   UNL     1       5.277   4.157  17.899  0.00  0.00    +0.000 C 
ATOM     25  O   UNL     1       5.723   4.235  19.054  0.00  0.00    +0.000 OA
ATOM     26  H   UNL     1       3.615   3.823  16.721  0.00  0.00    +0.000 HD
BRANCH  24  27
ATOM     27  C   UNL     1       6.176   4.362  16.741  0.00  0.00    +0.000 C 
ATOM     28  C   UNL     1       5.579   4.268  15.539  0.00  0.00    +0.000 C 
BRANCH  28  29
ATOM     29  C   UNL     1       6.203   4.337  14.214  0.00  0.00    +0.000 A 
ATOM     30  C   UNL     1       5.659   3.556  13.181  0.00  0.00    +0.000 A 
ATOM     31  C   UNL     1       6.242   3.544  11.913  0.00  0.00    +0.000 A 
ATOM     32  C   UNL     1       7.359   4.336  11.661  0.00  0.00    +0.000 A 
ATOM     33  C   UNL     1       7.884   5.143  12.670  0.00  0.00    +0.000 A 
ATOM     34  C   UNL     1       7.304   5.150  13.939  0.00  0.00    +0.000 A 
ENDBRANCH  28  29
ENDBRANCH  24  27
ENDBRANCH  21  23
ENDBRANCH  19  21
ENDBRANCH   4  19
TORSDOF 8
ENDMDL
