MODEL 1
REMARK VINA RESULT:      -7.9      0.000      0.000
REMARK  Name = 
REMARK  5 active torsions:
REMARK  status: ('A' for Active; 'I' for Inactive)
REMARK    1  A    between atoms: C_2  and  C_3
REMARK    2  A    between atoms: N_16  and  C_17
REMARK    3  A    between atoms: C_17  and  C_18
REMARK    4  A    between atoms: C_22  and  O_23
REMARK    5  A    between atoms: O_23  and  C_24
REMARK                            x       y       z     vdW  Elec       q    Type
REMARK                         _______ _______ _______ _____ _____    ______ ____
ROOT
ATOM      1  O   UNL     1       2.320   5.790  20.741  0.00  0.00    +0.000 OA
ATOM      2  C   UNL     1       2.400   6.490  19.733  0.00  0.00    +0.000 C 
ATOM      3  N   UNL     1       1.831   7.766  19.647  0.00  0.00    +0.000 N 
ATOM      4  C   UNL     1       1.906   8.623  18.462  0.00  0.00    +0.000 C 
ATOM      5  C   UNL     1       0.612   9.355  18.196  0.00  0.00    +0.000 C 
ATOM      6  C   UNL     1       0.128  10.167  19.409  0.00  0.00    +0.000 C 
ATOM      7  C   UNL     1       1.086  11.333  19.762  0.00  0.00    +0.000 C 
ATOM      8  C   UNL     1       1.081  12.455  18.712  0.00  0.00    +0.000 C 
ATOM      9  N   UNL     1      -0.262  12.986  18.421  0.00  0.00    +0.000 NA
ATOM     10  C   UNL     1      -1.152  11.888  18.021  0.00  0.00    +0.000 C 
ATOM     11  C   UNL     1      -1.253  10.757  19.057  0.00  0.00    +0.000 C 
ATOM     12  C   UNL     1       0.011   9.180  20.599  0.00  0.00    +0.000 C 
ATOM     13  C   UNL     1       1.307   8.396  20.859  0.00  0.00    +0.000 C 
ENDROOT
BRANCH   2  14
ATOM     14  C   UNL     1       3.088   5.903  18.544  0.00  0.00    +0.000 A 
ATOM     15  C   UNL     1       4.089   6.651  17.914  0.00  0.00    +0.000 A 
ATOM     16  C   UNL     1       4.834   6.088  16.868  0.00  0.00    +0.000 A 
ATOM     17  C   UNL     1       4.591   4.771  16.475  0.00  0.00    +0.000 A 
ATOM     18 CL   UNL     1       5.557   4.046  15.251  0.00  0.00    +0.000 Cl
ATOM     19  C   UNL     1       3.568   4.036  17.069  0.00  0.00    +0.000 A 
ATOM     20  C   UNL     1       2.779   4.626  18.058  0.00  0.00    +0.000 A 
ENDBRANCH   2  14
BRANCH   9  21
ATOM     21  C   UNL     1      -0.750  13.798  19.554  0.00  0.00    +0.000 C 
BRANCH  21  22
ATOM     22  C   UNL     1      -0.283  15.236  19.569  0.00  0.00    +0.000 A 
ATOM     23  C   UNL     1      -0.903  16.206  20.362  0.00  0.00    +0.000 A 
ATOM     24  C   UNL     1      -0.437  17.523  20.352  0.00  0.00    +0.000 A 
ATOM     25  C   UNL     1       0.696  17.865  19.608  0.00  0.00    +0.000 A 
ATOM     26  C   UNL     1       1.356  16.893  18.860  0.00  0.00    +0.000 A 
ATOM     27  C   UNL     1       0.816  15.611  18.780  0.00  0.00    +0.000 A 
BRANCH  26  28
ATOM     28  O   UNL     1       2.503  17.272  18.197  0.00  0.00    +0.000 OA
BRANCH  28  29
ATOM     29  C   UNL     1       3.666  16.555  18.403  0.00  0.00    +0.000 A 
ATOM     30  C   UNL     1       4.394  16.870  19.551  0.00  0.00    +0.000 A 
ATOM     31  C   UNL     1       5.595  16.208  19.827  0.00  0.00    +0.000 A 
ATOM     32  C   UNL     1       6.071  15.231  18.954  0.00  0.00    +0.000 A 
ATOM     33  C   UNL     1       5.328  14.885  17.827  0.00  0.00    +0.000 A 
ATOM     34  C   UNL     1       4.114  15.524  17.569  0.00  0.00    +0.000 A 
ENDBRANCH  28  29
ENDBRANCH  26  28
ENDBRANCH  21  22
ENDBRANCH   9  21
TORSDOF 5
ENDMDL
MODEL 2
REMARK VINA RESULT:      -7.9      4.447      7.085
REMARK  Name = 
REMARK  5 active torsions:
REMARK  status: ('A' for Active; 'I' for Inactive)
REMARK    1  A    between atoms: C_2  and  C_3
REMARK    2  A    between atoms: N_16  and  C_17
REMARK    3  A    between atoms: C_17  and  C_18
REMARK    4  A    between atoms: C_22  and  O_23
REMARK    5  A    between atoms: O_23  and  C_24
REMARK                            x       y       z     vdW  Elec       q    Type
REMARK                         _______ _______ _______ _____ _____    ______ ____
ROOT
ATOM      1  O   UNL     1      -1.354  11.073  21.151  0.00  0.00    +0.000 OA
ATOM      2  C   UNL     1      -1.000  11.541  20.070  0.00  0.00    +0.000 C 
ATOM      3  N   UNL     1       0.024  12.488  19.953  0.00  0.00    +0.000 N 
ATOM      4  C   UNL     1       0.468  13.067  18.683  0.00  0.00    +0.000 C 
ATOM      5  C   UNL     1       0.770  14.543  18.796  0.00  0.00    +0.000 C 
ATOM      6  C   UNL     1       1.786  14.858  19.907  0.00  0.00    +0.000 C 
ATOM      7  C   UNL     1       3.188  14.267  19.614  0.00  0.00    +0.000 C 
ATOM      8  C   UNL     1       3.901  14.961  18.442  0.00  0.00    +0.000 C 
ATOM      9  N   UNL     1       3.998  16.423  18.593  0.00  0.00    +0.000 NA
ATOM     10  C   UNL     1       2.660  16.990  18.804  0.00  0.00    +0.000 C 
ATOM     11  C   UNL     1       1.911  16.392  20.005  0.00  0.00    +0.000 C 
ATOM     12  C   UNL     1       1.214  14.272  21.224  0.00  0.00    +0.000 C 
ATOM     13  C   UNL     1       0.862  12.781  21.116  0.00  0.00    +0.000 C 
ENDROOT
BRANCH   2  14
ATOM     14  C   UNL     1      -1.754  11.109  18.855  0.00  0.00    +0.000 A 
ATOM     15  C   UNL     1      -2.947  11.767  18.539  0.00  0.00    +0.000 A 
ATOM     16  C   UNL     1      -3.621  11.468  17.346  0.00  0.00    +0.000 A 
ATOM     17  C   UNL     1      -3.083  10.529  16.464  0.00  0.00    +0.000 A 
ATOM     18 CL   UNL     1      -3.859  10.218  14.961  0.00  0.00    +0.000 Cl
ATOM     19  C   UNL     1      -1.918   9.841  16.792  0.00  0.00    +0.000 A 
ATOM     20  C   UNL     1      -1.291  10.088  18.014  0.00  0.00    +0.000 A 
ENDBRANCH   2  14
BRANCH   9  21
ATOM     21  C   UNL     1       4.988  16.768  19.634  0.00  0.00    +0.000 C 
BRANCH  21  22
ATOM     22  C   UNL     1       6.406  16.328  19.350  0.00  0.00    +0.000 A 
ATOM     23  C   UNL     1       7.281  17.103  18.583  0.00  0.00    +0.000 A 
ATOM     24  C   UNL     1       8.586  16.664  18.348  0.00  0.00    +0.000 A 
ATOM     25  C   UNL     1       9.051  15.486  18.939  0.00  0.00    +0.000 A 
ATOM     26  C   UNL     1       8.206  14.735  19.753  0.00  0.00    +0.000 A 
ATOM     27  C   UNL     1       6.871  15.115  19.885  0.00  0.00    +0.000 A 
BRANCH  26  28
ATOM     28  O   UNL     1       8.736  13.617  20.360  0.00  0.00    +0.000 OA
BRANCH  28  29
ATOM     29  C   UNL     1       9.792  12.962  19.756  0.00  0.00    +0.000 A 
ATOM     30  C   UNL     1       9.501  12.272  18.578  0.00  0.00    +0.000 A 
ATOM     31  C   UNL     1      10.505  11.564  17.911  0.00  0.00    +0.000 A 
ATOM     32  C   UNL     1      11.802  11.541  18.422  0.00  0.00    +0.000 A 
ATOM     33  C   UNL     1      12.107  12.261  19.575  0.00  0.00    +0.000 A 
ATOM     34  C   UNL     1      11.110  12.994  20.224  0.00  0.00    +0.000 A 
ENDBRANCH  28  29
ENDBRANCH  26  28
ENDBRANCH  21  22
ENDBRANCH   9  21
TORSDOF 5
ENDMDL
MODEL 3
REMARK VINA RESULT:      -7.9      1.013      1.315
REMARK  Name = 
REMARK  5 active torsions:
REMARK  status: ('A' for Active; 'I' for Inactive)
REMARK    1  A    between atoms: C_2  and  C_3
REMARK    2  A    between atoms: N_16  and  C_17
REMARK    3  A    between atoms: C_17  and  C_18
REMARK    4  A    between atoms: C_22  and  O_23
REMARK    5  A    between atoms: O_23  and  C_24
REMARK                            x       y       z     vdW  Elec       q    Type
REMARK                         _______ _______ _______ _____ _____    ______ ____
ROOT
ATOM      1  O   UNL     1       2.168   5.782  20.806  0.00  0.00    +0.000 OA
ATOM      2  C   UNL     1       2.317   6.479  19.803  0.00  0.00    +0.000 C 
ATOM      3  N   UNL     1       1.817   7.783  19.704  0.00  0.00    +0.000 N 
ATOM      4  C   UNL     1       1.975   8.638  18.526  0.00  0.00    +0.000 C 
ATOM      5  C   UNL     1       0.730   9.436  18.221  0.00  0.00    +0.000 C 
ATOM      6  C   UNL     1       0.250  10.270  19.421  0.00  0.00    +0.000 C 
ATOM      7  C   UNL     1       1.255  11.384  19.809  0.00  0.00    +0.000 C 
ATOM      8  C   UNL     1       1.342  12.507  18.763  0.00  0.00    +0.000 C 
ATOM      9  N   UNL     1       0.039  13.107  18.431  0.00  0.00    +0.000 NA
ATOM     10  C   UNL     1      -0.894  12.059  17.999  0.00  0.00    +0.000 C 
ATOM     11  C   UNL     1      -1.086  10.932  19.027  0.00  0.00    +0.000 C 
ATOM     12  C   UNL     1       0.044   9.288  20.603  0.00  0.00    +0.000 C 
ATOM     13  C   UNL     1       1.288   8.437  20.901  0.00  0.00    +0.000 C 
ENDROOT
BRANCH   2  14
ATOM     14  C   UNL     1       3.011   5.860  18.635  0.00  0.00    +0.000 A 
ATOM     15  C   UNL     1       4.155   6.487  18.128  0.00  0.00    +0.000 A 
ATOM     16  C   UNL     1       4.898   5.876  17.107  0.00  0.00    +0.000 A 
ATOM     17  C   UNL     1       4.505   4.628  16.617  0.00  0.00    +0.000 A 
ATOM     18 CL   UNL     1       5.458   3.835  15.425  0.00  0.00    +0.000 Cl
ATOM     19  C   UNL     1       3.345   4.019  17.087  0.00  0.00    +0.000 A 
ATOM     20  C   UNL     1       2.568   4.666  18.050  0.00  0.00    +0.000 A 
ENDBRANCH   2  14
BRANCH   9  21
ATOM     21  C   UNL     1      -0.443  13.941  19.552  0.00  0.00    +0.000 C 
BRANCH  21  22
ATOM     22  C   UNL     1       0.586  14.868  20.158  0.00  0.00    +0.000 A 
ATOM     23  C   UNL     1       0.788  14.945  21.539  0.00  0.00    +0.000 A 
ATOM     24  C   UNL     1       1.754  15.810  22.060  0.00  0.00    +0.000 A 
ATOM     25  C   UNL     1       2.575  16.548  21.203  0.00  0.00    +0.000 A 
ATOM     26  C   UNL     1       2.422  16.435  19.824  0.00  0.00    +0.000 A 
ATOM     27  C   UNL     1       1.378  15.663  19.315  0.00  0.00    +0.000 A 
BRANCH  26  28
ATOM     28  O   UNL     1       3.300  17.137  19.027  0.00  0.00    +0.000 OA
BRANCH  28  29
ATOM     29  C   UNL     1       4.559  16.617  18.795  0.00  0.00    +0.000 A 
ATOM     30  C   UNL     1       4.613  15.426  18.068  0.00  0.00    +0.000 A 
ATOM     31  C   UNL     1       5.845  14.817  17.805  0.00  0.00    +0.000 A 
ATOM     32  C   UNL     1       7.025  15.397  18.269  0.00  0.00    +0.000 A 
ATOM     33  C   UNL     1       6.979  16.606  18.960  0.00  0.00    +0.000 A 
ATOM     34  C   UNL     1       5.751  17.229  19.196  0.00  0.00    +0.000 A 
ENDBRANCH  28  29
ENDBRANCH  26  28
ENDBRANCH  21  22
ENDBRANCH   9  21
TORSDOF 5
ENDMDL
MODEL 4
REMARK VINA RESULT:      -7.8      4.206     10.505
REMARK  Name = 
REMARK  5 active torsions:
REMARK  status: ('A' for Active; 'I' for Inactive)
REMARK    1  A    between atoms: C_2  and  C_3
REMARK    2  A    between atoms: N_16  and  C_17
REMARK    3  A    between atoms: C_17  and  C_18
REMARK    4  A    between atoms: C_22  and  O_23
REMARK    5  A    between atoms: O_23  and  C_24
REMARK                            x       y       z     vdW  Elec       q    Type
REMARK                         _______ _______ _______ _____ _____    ______ ____
ROOT
ATOM      1  O   UNL     1      -0.705  15.046  21.796  0.00  0.00    +0.000 OA
ATOM      2  C   UNL     1      -1.153  13.909  21.662  0.00  0.00    +0.000 C 
ATOM      3  N   UNL     1      -0.431  12.876  21.051  0.00  0.00    +0.000 N 
ATOM      4  C   UNL     1      -0.935  11.513  20.873  0.00  0.00    +0.000 C 
ATOM      5  C   UNL     1      -0.558  10.929  19.532  0.00  0.00    +0.000 C 
ATOM      6  C   UNL     1       0.957  10.974  19.269  0.00  0.00    +0.000 C 
ATOM      7  C   UNL     1       1.755  10.072  20.244  0.00  0.00    +0.000 C 
ATOM      8  C   UNL     1       1.520   8.572  20.006  0.00  0.00    +0.000 C 
ATOM      9  N   UNL     1       1.772   8.148  18.618  0.00  0.00    +0.000 NA
ATOM     10  C   UNL     1       0.964   8.958  17.698  0.00  0.00    +0.000 C 
ATOM     11  C   UNL     1       1.197  10.472  17.830  0.00  0.00    +0.000 C 
ATOM     12  C   UNL     1       1.398  12.453  19.411  0.00  0.00    +0.000 C 
ATOM     13  C   UNL     1       0.988  13.077  20.753  0.00  0.00    +0.000 C 
ENDROOT
BRANCH   2  14
ATOM     14  C   UNL     1      -2.552  13.663  22.123  0.00  0.00    +0.000 A 
ATOM     15  C   UNL     1      -3.602  13.896  21.228  0.00  0.00    +0.000 A 
ATOM     16  C   UNL     1      -4.917  13.568  21.586  0.00  0.00    +0.000 A 
ATOM     17  C   UNL     1      -5.172  12.984  22.829  0.00  0.00    +0.000 A 
ATOM     18 CL   UNL     1      -6.770  12.502  23.241  0.00  0.00    +0.000 Cl
ATOM     19  C   UNL     1      -4.138  12.788  23.740  0.00  0.00    +0.000 A 
ATOM     20  C   UNL     1      -2.841  13.185  23.408  0.00  0.00    +0.000 A 
ENDBRANCH   2  14
BRANCH   9  21
ATOM     21  C   UNL     1       3.222   8.150  18.335  0.00  0.00    +0.000 C 
BRANCH  21  22
ATOM     22  C   UNL     1       3.747   6.916  17.636  0.00  0.00    +0.000 A 
ATOM     23  C   UNL     1       4.732   6.990  16.647  0.00  0.00    +0.000 A 
ATOM     24  C   UNL     1       5.195   5.826  16.029  0.00  0.00    +0.000 A 
ATOM     25  C   UNL     1       4.732   4.575  16.446  0.00  0.00    +0.000 A 
ATOM     26  C   UNL     1       3.793   4.486  17.470  0.00  0.00    +0.000 A 
ATOM     27  C   UNL     1       3.247   5.655  17.998  0.00  0.00    +0.000 A 
BRANCH  26  28
ATOM     28  O   UNL     1       3.420   3.225  17.882  0.00  0.00    +0.000 OA
BRANCH  28  29
ATOM     29  C   UNL     1       2.663   3.090  19.030  0.00  0.00    +0.000 A 
ATOM     30  C   UNL     1       3.369   2.924  20.223  0.00  0.00    +0.000 A 
ATOM     31  C   UNL     1       2.683   2.759  21.430  0.00  0.00    +0.000 A 
ATOM     32  C   UNL     1       1.289   2.757  21.448  0.00  0.00    +0.000 A 
ATOM     33  C   UNL     1       0.579   2.962  20.266  0.00  0.00    +0.000 A 
ATOM     34  C   UNL     1       1.265   3.158  19.065  0.00  0.00    +0.000 A 
ENDBRANCH  28  29
ENDBRANCH  26  28
ENDBRANCH  21  22
ENDBRANCH   9  21
TORSDOF 5
ENDMDL
MODEL 5
REMARK VINA RESULT:      -7.7      0.726      1.042
REMARK  Name = 
REMARK  5 active torsions:
REMARK  status: ('A' for Active; 'I' for Inactive)
REMARK    1  A    between atoms: C_2  and  C_3
REMARK    2  A    between atoms: N_16  and  C_17
REMARK    3  A    between atoms: C_17  and  C_18
REMARK    4  A    between atoms: C_22  and  O_23
REMARK    5  A    between atoms: O_23  and  C_24
REMARK                            x       y       z     vdW  Elec       q    Type
REMARK                         _______ _______ _______ _____ _____    ______ ____
ROOT
ATOM      1  O   UNL     1       1.957   5.572  21.193  0.00  0.00    +0.000 OA
ATOM      2  C   UNL     1       2.216   6.266  20.210  0.00  0.00    +0.000 C 
ATOM      3  N   UNL     1       1.747   7.577  20.062  0.00  0.00    +0.000 N 
ATOM      4  C   UNL     1       2.035   8.428  18.906  0.00  0.00    +0.000 C 
ATOM      5  C   UNL     1       0.838   9.244  18.477  0.00  0.00    +0.000 C 
ATOM      6  C   UNL     1       0.252  10.085  19.623  0.00  0.00    +0.000 C 
ATOM      7  C   UNL     1       1.228  11.185  20.112  0.00  0.00    +0.000 C 
ATOM      8  C   UNL     1       1.435  12.306  19.081  0.00  0.00    +0.000 C 
ATOM      9  N   UNL     1       0.181  12.924  18.619  0.00  0.00    +0.000 NA
ATOM     10  C   UNL     1      -0.718  11.888  18.094  0.00  0.00    +0.000 C 
ATOM     11  C   UNL     1      -1.029  10.765  19.097  0.00  0.00    +0.000 C 
ATOM     12  C   UNL     1      -0.087   9.106  20.778  0.00  0.00    +0.000 C 
ATOM     13  C   UNL     1       1.109   8.239  21.200  0.00  0.00    +0.000 C 
ENDROOT
BRANCH   2  14
ATOM     14  C   UNL     1       3.016   5.637  19.117  0.00  0.00    +0.000 A 
ATOM     15  C   UNL     1       2.362   4.796  18.210  0.00  0.00    +0.000 A 
ATOM     16  C   UNL     1       3.055   4.279  17.105  0.00  0.00    +0.000 A 
ATOM     17  C   UNL     1       4.391   4.628  16.901  0.00  0.00    +0.000 A 
ATOM     18 CL   UNL     1       5.223   4.067  15.504  0.00  0.00    +0.000 Cl
ATOM     19  C   UNL     1       5.059   5.431  17.822  0.00  0.00    +0.000 A 
ATOM     20  C   UNL     1       4.386   5.881  18.959  0.00  0.00    +0.000 A 
ENDBRANCH   2  14
BRANCH   9  21
ATOM     21  C   UNL     1      -0.400  13.766  19.685  0.00  0.00    +0.000 C 
BRANCH  21  22
ATOM     22  C   UNL     1       0.297  15.087  19.919  0.00  0.00    +0.000 A 
ATOM     23  C   UNL     1       0.062  15.854  21.064  0.00  0.00    +0.000 A 
ATOM     24  C   UNL     1       0.731  17.067  21.245  0.00  0.00    +0.000 A 
ATOM     25  C   UNL     1       1.693  17.487  20.322  0.00  0.00    +0.000 A 
ATOM     26  C   UNL     1       1.977  16.702  19.207  0.00  0.00    +0.000 A 
ATOM     27  C   UNL     1       1.221  15.555  18.971  0.00  0.00    +0.000 A 
BRANCH  26  28
ATOM     28  O   UNL     1       2.979  17.133  18.365  0.00  0.00    +0.000 OA
BRANCH  28  29
ATOM     29  C   UNL     1       4.202  16.491  18.392  0.00  0.00    +0.000 A 
ATOM     30  C   UNL     1       5.216  17.118  19.117  0.00  0.00    +0.000 A 
ATOM     31  C   UNL     1       6.492  16.549  19.180  0.00  0.00    +0.000 A 
ATOM     32  C   UNL     1       6.757  15.352  18.517  0.00  0.00    +0.000 A 
ATOM     33  C   UNL     1       5.738  14.701  17.825  0.00  0.00    +0.000 A 
ATOM     34  C   UNL     1       4.456  15.254  17.788  0.00  0.00    +0.000 A 
ENDBRANCH  28  29
ENDBRANCH  26  28
ENDBRANCH  21  22
ENDBRANCH   9  21
TORSDOF 5
ENDMDL
MODEL 6
REMARK VINA RESULT:      -7.7      3.238      9.702
REMARK  Name = 
REMARK  5 active torsions:
REMARK  status: ('A' for Active; 'I' for Inactive)
REMARK    1  A    between atoms: C_2  and  C_3
REMARK    2  A    between atoms: N_16  and  C_17
REMARK    3  A    between atoms: C_17  and  C_18
REMARK    4  A    between atoms: C_22  and  O_23
REMARK    5  A    between atoms: O_23  and  C_24
REMARK                            x       y       z     vdW  Elec       q    Type
REMARK                         _______ _______ _______ _____ _____    ______ ____
ROOT
ATOM      1  O   UNL     1      -0.717  14.180  18.313  0.00  0.00    +0.000 OA
ATOM      2  C   UNL     1       0.264  13.727  18.901  0.00  0.00    +0.000 C 
ATOM      3  N   UNL     1       0.433  12.360  19.154  0.00  0.00    +0.000 N 
ATOM      4  C   UNL     1       1.587  11.789  19.853  0.00  0.00    +0.000 C 
ATOM      5  C   UNL     1       1.197  10.676  20.796  0.00  0.00    +0.000 C 
ATOM      6  C   UNL     1       0.392   9.564  20.103  0.00  0.00    +0.000 C 
ATOM      7  C   UNL     1       1.225   8.803  19.040  0.00  0.00    +0.000 C 
ATOM      8  C   UNL     1       2.337   7.939  19.654  0.00  0.00    +0.000 C 
ATOM      9  N   UNL     1       1.856   6.995  20.677  0.00  0.00    +0.000 NA
ATOM     10  C   UNL     1       1.124   7.726  21.719  0.00  0.00    +0.000 C 
ATOM     11  C   UNL     1      -0.051   8.561  21.188  0.00  0.00    +0.000 C 
ATOM     12  C   UNL     1      -0.841  10.238  19.447  0.00  0.00    +0.000 C 
ATOM     13  C   UNL     1      -0.467  11.400  18.515  0.00  0.00    +0.000 C 
ENDROOT
BRANCH   2  14
ATOM     14  C   UNL     1       1.271  14.705  19.409  0.00  0.00    +0.000 A 
ATOM     15  C   UNL     1       2.338  15.061  18.576  0.00  0.00    +0.000 A 
ATOM     16  C   UNL     1       3.238  16.060  18.973  0.00  0.00    +0.000 A 
ATOM     17  C   UNL     1       3.051  16.717  20.191  0.00  0.00    +0.000 A 
ATOM     18 CL   UNL     1       4.101  18.000  20.646  0.00  0.00    +0.000 Cl
ATOM     19  C   UNL     1       2.017  16.339  21.043  0.00  0.00    +0.000 A 
ATOM     20  C   UNL     1       1.168  15.292  20.677  0.00  0.00    +0.000 A 
ENDBRANCH   2  14
BRANCH   9  21
ATOM     21  C   UNL     1       1.100   5.894  20.046  0.00  0.00    +0.000 C 
BRANCH  21  22
ATOM     22  C   UNL     1       1.943   4.820  19.396  0.00  0.00    +0.000 A 
ATOM     23  C   UNL     1       1.390   3.867  18.535  0.00  0.00    +0.000 A 
ATOM     24  C   UNL     1       2.204   2.893  17.950  0.00  0.00    +0.000 A 
ATOM     25  C   UNL     1       3.586   2.911  18.160  0.00  0.00    +0.000 A 
ATOM     26  C   UNL     1       4.155   3.891  18.969  0.00  0.00    +0.000 A 
ATOM     27  C   UNL     1       3.324   4.784  19.645  0.00  0.00    +0.000 A 
BRANCH  26  28
ATOM     28  O   UNL     1       5.528   3.898  19.089  0.00  0.00    +0.000 OA
BRANCH  28  29
ATOM     29  C   UNL     1       6.240   4.975  18.600  0.00  0.00    +0.000 A 
ATOM     30  C   UNL     1       5.848   5.462  17.352  0.00  0.00    +0.000 A 
ATOM     31  C   UNL     1       6.527   6.537  16.770  0.00  0.00    +0.000 A 
ATOM     32  C   UNL     1       7.601   7.127  17.434  0.00  0.00    +0.000 A 
ATOM     33  C   UNL     1       7.971   6.671  18.697  0.00  0.00    +0.000 A 
ATOM     34  C   UNL     1       7.273   5.617  19.291  0.00  0.00    +0.000 A 
ENDBRANCH  28  29
ENDBRANCH  26  28
ENDBRANCH  21  22
ENDBRANCH   9  21
TORSDOF 5
ENDMDL
MODEL 7
REMARK VINA RESULT:      -7.6      3.090      9.838
REMARK  Name = 
REMARK  5 active torsions:
REMARK  status: ('A' for Active; 'I' for Inactive)
REMARK    1  A    between atoms: C_2  and  C_3
REMARK    2  A    between atoms: N_16  and  C_17
REMARK    3  A    between atoms: C_17  and  C_18
REMARK    4  A    between atoms: C_22  and  O_23
REMARK    5  A    between atoms: O_23  and  C_24
REMARK                            x       y       z     vdW  Elec       q    Type
REMARK                         _______ _______ _______ _____ _____    ______ ____
ROOT
ATOM      1  O   UNL     1      -0.713  14.746  18.399  0.00  0.00    +0.000 OA
ATOM      2  C   UNL     1       0.331  14.256  18.824  0.00  0.00    +0.000 C 
ATOM      3  N   UNL     1       0.476  12.888  19.086  0.00  0.00    +0.000 N 
ATOM      4  C   UNL     1       1.703  12.272  19.595  0.00  0.00    +0.000 C 
ATOM      5  C   UNL     1       1.428  11.202  20.624  0.00  0.00    +0.000 C 
ATOM      6  C   UNL     1       0.464  10.119  20.113  0.00  0.00    +0.000 C 
ATOM      7  C   UNL     1       1.064   9.293  18.947  0.00  0.00    +0.000 C 
ATOM      8  C   UNL     1       2.223   8.385  19.388  0.00  0.00    +0.000 C 
ATOM      9  N   UNL     1       1.880   7.490  20.506  0.00  0.00    +0.000 NA
ATOM     10  C   UNL     1       1.374   8.281  21.636  0.00  0.00    +0.000 C 
ATOM     11  C   UNL     1       0.166   9.165  21.287  0.00  0.00    +0.000 C 
ATOM     12  C   UNL     1      -0.830  10.842  19.657  0.00  0.00    +0.000 C 
ATOM     13  C   UNL     1      -0.566  11.963  18.639  0.00  0.00    +0.000 C 
ENDROOT
BRANCH   2  14
ATOM     14  C   UNL     1       1.457  15.191  19.123  0.00  0.00    +0.000 A 
ATOM     15  C   UNL     1       1.506  15.797  20.383  0.00  0.00    +0.000 A 
ATOM     16  C   UNL     1       2.607  16.589  20.740  0.00  0.00    +0.000 A 
ATOM     17  C   UNL     1       3.665  16.749  19.843  0.00  0.00    +0.000 A 
ATOM     18 CL   UNL     1       5.055  17.649  20.305  0.00  0.00    +0.000 Cl
ATOM     19  C   UNL     1       3.603  16.183  18.573  0.00  0.00    +0.000 A 
ATOM     20  C   UNL     1       2.472  15.458  18.195  0.00  0.00    +0.000 A 
ENDBRANCH   2  14
BRANCH   9  21
ATOM     21  C   UNL     1       0.975   6.417  20.047  0.00  0.00    +0.000 C 
BRANCH  21  22
ATOM     22  C   UNL     1       1.594   5.040  19.964  0.00  0.00    +0.000 A 
ATOM     23  C   UNL     1       1.121   3.969  20.727  0.00  0.00    +0.000 A 
ATOM     24  C   UNL     1       1.717   2.710  20.617  0.00  0.00    +0.000 A 
ATOM     25  C   UNL     1       2.739   2.493  19.689  0.00  0.00    +0.000 A 
ATOM     26  C   UNL     1       3.180   3.539  18.881  0.00  0.00    +0.000 A 
ATOM     27  C   UNL     1       2.664   4.818  19.082  0.00  0.00    +0.000 A 
BRANCH  26  28
ATOM     28  O   UNL     1       4.146   3.252  17.941  0.00  0.00    +0.000 OA
BRANCH  28  29
ATOM     29  C   UNL     1       5.045   4.237  17.581  0.00  0.00    +0.000 A 
ATOM     30  C   UNL     1       6.022   4.561  18.524  0.00  0.00    +0.000 A 
ATOM     31  C   UNL     1       6.960   5.561  18.251  0.00  0.00    +0.000 A 
ATOM     32  C   UNL     1       6.923   6.241  17.035  0.00  0.00    +0.000 A 
ATOM     33  C   UNL     1       5.976   5.895  16.074  0.00  0.00    +0.000 A 
ATOM     34  C   UNL     1       5.058   4.874  16.335  0.00  0.00    +0.000 A 
ENDBRANCH  28  29
ENDBRANCH  26  28
ENDBRANCH  21  22
ENDBRANCH   9  21
TORSDOF 5
ENDMDL
MODEL 8
REMARK VINA RESULT:      -7.6      3.135      5.678
REMARK  Name = 
REMARK  5 active torsions:
REMARK  status: ('A' for Active; 'I' for Inactive)
REMARK    1  A    between atoms: C_2  and  C_3
REMARK    2  A    between atoms: N_16  and  C_17
REMARK    3  A    between atoms: C_17  and  C_18
REMARK    4  A    between atoms: C_22  and  O_23
REMARK    5  A    between atoms: O_23  and  C_24
REMARK                            x       y       z     vdW  Elec       q    Type
REMARK                         _______ _______ _______ _____ _____    ______ ____
ROOT
ATOM      1  O   UNL     1       2.758   5.291  20.325  0.00  0.00    +0.000 OA
ATOM      2  C   UNL     1       2.794   6.204  19.502  0.00  0.00    +0.000 C 
ATOM      3  N   UNL     1       2.159   7.435  19.706  0.00  0.00    +0.000 N 
ATOM      4  C   UNL     1       2.180   8.542  18.747  0.00  0.00    +0.000 C 
ATOM      5  C   UNL     1       0.848   9.246  18.648  0.00  0.00    +0.000 C 
ATOM      6  C   UNL     1       0.333   9.736  20.012  0.00  0.00    +0.000 C 
ATOM      7  C   UNL     1       1.232  10.840  20.624  0.00  0.00    +0.000 C 
ATOM      8  C   UNL     1       1.161  12.169  19.856  0.00  0.00    +0.000 C 
ATOM      9  N   UNL     1      -0.210  12.681  19.687  0.00  0.00    +0.000 NA
ATOM     10  C   UNL     1      -1.045  11.658  19.046  0.00  0.00    +0.000 C 
ATOM     11  C   UNL     1      -1.079  10.318  19.797  0.00  0.00    +0.000 C 
ATOM     12  C   UNL     1       0.277   8.500  20.946  0.00  0.00    +0.000 C 
ATOM     13  C   UNL     1       1.613   7.746  21.027  0.00  0.00    +0.000 C 
ENDROOT
BRANCH   2  14
ATOM     14  C   UNL     1       3.501   5.940  18.214  0.00  0.00    +0.000 A 
ATOM     15  C   UNL     1       4.329   6.938  17.687  0.00  0.00    +0.000 A 
ATOM     16  C   UNL     1       5.097   6.683  16.542  0.00  0.00    +0.000 A 
ATOM     17  C   UNL     1       5.052   5.422  15.945  0.00  0.00    +0.000 A 
ATOM     18 CL   UNL     1       6.055   5.076  14.591  0.00  0.00    +0.000 Cl
ATOM     19  C   UNL     1       4.200   4.438  16.438  0.00  0.00    +0.000 A 
ATOM     20  C   UNL     1       3.381   4.721  17.533  0.00  0.00    +0.000 A 
ENDBRANCH   2  14
BRANCH   9  21
ATOM     21  C   UNL     1      -0.730  13.189  20.973  0.00  0.00    +0.000 C 
BRANCH  21  22
ATOM     22  C   UNL     1      -1.927  14.107  20.870  0.00  0.00    +0.000 A 
ATOM     23  C   UNL     1      -1.792  15.467  20.577  0.00  0.00    +0.000 A 
ATOM     24  C   UNL     1      -2.925  16.281  20.485  0.00  0.00    +0.000 A 
ATOM     25  C   UNL     1      -4.202  15.728  20.610  0.00  0.00    +0.000 A 
ATOM     26  C   UNL     1      -4.350  14.363  20.844  0.00  0.00    +0.000 A 
ATOM     27  C   UNL     1      -3.216  13.581  21.055  0.00  0.00    +0.000 A 
BRANCH  26  28
ATOM     28  O   UNL     1      -5.633  13.863  20.896  0.00  0.00    +0.000 OA
BRANCH  28  29
ATOM     29  C   UNL     1      -5.964  12.778  20.107  0.00  0.00    +0.000 A 
ATOM     30  C   UNL     1      -6.683  11.756  20.728  0.00  0.00    +0.000 A 
ATOM     31  C   UNL     1      -7.041  10.610  20.010  0.00  0.00    +0.000 A 
ATOM     32  C   UNL     1      -6.679  10.483  18.670  0.00  0.00    +0.000 A 
ATOM     33  C   UNL     1      -5.996  11.518  18.034  0.00  0.00    +0.000 A 
ATOM     34  C   UNL     1      -5.666  12.675  18.744  0.00  0.00    +0.000 A 
ENDBRANCH  28  29
ENDBRANCH  26  28
ENDBRANCH  21  22
ENDBRANCH   9  21
TORSDOF 5
ENDMDL
MODEL 9
REMARK VINA RESULT:      -7.6      4.554      7.060
REMARK  Name = 
REMARK  5 active torsions:
REMARK  status: ('A' for Active; 'I' for Inactive)
REMARK    1  A    between atoms: C_2  and  C_3
REMARK    2  A    between atoms: N_16  and  C_17
REMARK    3  A    between atoms: C_17  and  C_18
REMARK    4  A    between atoms: C_22  and  O_23
REMARK    5  A    between atoms: O_23  and  C_24
REMARK                            x       y       z     vdW  Elec       q    Type
REMARK                         _______ _______ _______ _____ _____    ______ ____
ROOT
ATOM      1  O   UNL     1      -2.153  11.775  21.058  0.00  0.00    +0.000 OA
ATOM      2  C   UNL     1      -1.537  11.976  20.013  0.00  0.00    +0.000 C 
ATOM      3  N   UNL     1      -0.407  12.800  19.945  0.00  0.00    +0.000 N 
ATOM      4  C   UNL     1       0.347  13.063  18.717  0.00  0.00    +0.000 C 
ATOM      5  C   UNL     1       0.789  14.503  18.608  0.00  0.00    +0.000 C 
ATOM      6  C   UNL     1       1.589  14.973  19.834  0.00  0.00    +0.000 C 
ATOM      7  C   UNL     1       2.944  14.235  19.977  0.00  0.00    +0.000 C 
ATOM      8  C   UNL     1       3.953  14.611  18.881  0.00  0.00    +0.000 C 
ATOM      9  N   UNL     1       4.187  16.060  18.765  0.00  0.00    +0.000 NA
ATOM     10  C   UNL     1       2.909  16.753  18.562  0.00  0.00    +0.000 C 
ATOM     11  C   UNL     1       1.869  16.480  19.660  0.00  0.00    +0.000 C 
ATOM     12  C   UNL     1       0.700  14.724  21.080  0.00  0.00    +0.000 C 
ATOM     13  C   UNL     1       0.207  13.273  21.186  0.00  0.00    +0.000 C 
ENDROOT
BRANCH   2  14
ATOM     14  C   UNL     1      -2.075  11.351  18.768  0.00  0.00    +0.000 A 
ATOM     15  C   UNL     1      -3.240  11.882  18.202  0.00  0.00    +0.000 A 
ATOM     16  C   UNL     1      -3.709  11.396  16.973  0.00  0.00    +0.000 A 
ATOM     17  C   UNL     1      -2.996  10.399  16.305  0.00  0.00    +0.000 A 
ATOM     18 CL   UNL     1      -3.519   9.858  14.759  0.00  0.00    +0.000 Cl
ATOM     19  C   UNL     1      -1.860   9.838  16.881  0.00  0.00    +0.000 A 
ATOM     20  C   UNL     1      -1.439  10.272  18.140  0.00  0.00    +0.000 A 
ENDBRANCH   2  14
BRANCH   9  21
ATOM     21  C   UNL     1       4.980  16.546  19.913  0.00  0.00    +0.000 C 
BRANCH  21  22
ATOM     22  C   UNL     1       6.210  15.731  20.242  0.00  0.00    +0.000 A 
ATOM     23  C   UNL     1       6.258  14.881  21.351  0.00  0.00    +0.000 A 
ATOM     24  C   UNL     1       7.413  14.140  21.617  0.00  0.00    +0.000 A 
ATOM     25  C   UNL     1       8.498  14.184  20.737  0.00  0.00    +0.000 A 
ATOM     26  C   UNL     1       8.438  14.983  19.598  0.00  0.00    +0.000 A 
ATOM     27  C   UNL     1       7.333  15.811  19.403  0.00  0.00    +0.000 A 
BRANCH  26  28
ATOM     28  O   UNL     1       9.511  14.940  18.734  0.00  0.00    +0.000 OA
BRANCH  28  29
ATOM     29  C   UNL     1      10.245  13.774  18.633  0.00  0.00    +0.000 A 
ATOM     30  C   UNL     1      11.443  13.731  19.348  0.00  0.00    +0.000 A 
ATOM     31  C   UNL     1      12.260  12.598  19.286  0.00  0.00    +0.000 A 
ATOM     32  C   UNL     1      11.881  11.505  18.508  0.00  0.00    +0.000 A 
ATOM     33  C   UNL     1      10.667  11.526  17.825  0.00  0.00    +0.000 A 
ATOM     34  C   UNL     1       9.837  12.646  17.912  0.00  0.00    +0.000 A 
ENDBRANCH  28  29
ENDBRANCH  26  28
ENDBRANCH  21  22
ENDBRANCH   9  21
TORSDOF 5
ENDMDL
