MODEL 1
REMARK VINA RESULT:      -9.8      0.000      0.000
REMARK  Name = 
REMARK  9 active torsions:
REMARK  status: ('A' for Active; 'I' for Inactive)
REMARK    1  A    between atoms: C_1  and  C_2
REMARK    2  A    between atoms: C_6  and  O_7
REMARK    3  A    between atoms: O_7  and  C_8
REMARK    4  A    between atoms: C_8  and  C_9
REMARK    5  A    between atoms: C_9  and  O_10
REMARK    6  A    between atoms: O_10  and  C_11
REMARK    7  A    between atoms: C_15  and  N_16
REMARK    8  A    between atoms: C_23  and  C_24
REMARK    9  A    between atoms: C_23  and  C_25
REMARK                            x       y       z     vdW  Elec       q    Type
REMARK                         _______ _______ _______ _____ _____    ______ ____
ROOT
ATOM      1  C   UNL     1       6.069   6.178  16.997  0.00  0.00    +0.000 A 
ATOM      2  C   UNL     1       6.069   5.489  15.790  0.00  0.00    +0.000 A 
ATOM      3  C   UNL     1       5.345   4.313  15.675  0.00  0.00    +0.000 A 
ATOM      4  C   UNL     1       4.570   3.868  16.750  0.00  0.00    +0.000 A 
ATOM      5  C   UNL     1       4.588   4.496  18.004  0.00  0.00    +0.000 A 
ATOM      6  C   UNL     1       5.397   5.646  18.100  0.00  0.00    +0.000 A 
ENDROOT
BRANCH   5   7
ATOM      7  N   UNL     1       3.761   4.069  19.086  0.00  0.00    +0.000 N 
ATOM      8  C   UNL     1       3.964   2.921  19.831  0.00  0.00    +0.000 C 
ATOM      9  N   UNL     1       5.086   2.176  19.627  0.00  0.00    +0.000 N 
ATOM     10  N   UNL     1       3.184   2.470  20.757  0.00  0.00    +0.000 NA
ATOM     11  C   UNL     1       2.094   3.199  21.081  0.00  0.00    +0.000 C 
ATOM     12  N   UNL     1       1.439   2.827  22.205  0.00  0.00    +0.000 N 
ATOM     13  N   UNL     1       1.639   4.176  20.402  0.00  0.00    +0.000 NA
ATOM     14  C   UNL     1       2.367   4.592  19.193  0.00  0.00    +0.000 C 
ATOM     15  C   UNL     1       1.523   4.092  18.006  0.00  0.00    +0.000 C 
ATOM     16  C   UNL     1       2.260   6.125  19.255  0.00  0.00    +0.000 C 
ATOM     17  H   UNL     1       5.926   2.711  19.462  0.00  0.00    +0.000 HD
ATOM     18  H   UNL     1       5.204   1.484  20.357  0.00  0.00    +0.000 HD
ATOM     19  H   UNL     1       1.580   1.853  22.435  0.00  0.00    +0.000 HD
ATOM     20  H   UNL     1       0.475   3.130  22.208  0.00  0.00    +0.000 HD
ENDBRANCH   5   7
BRANCH   1  21
ATOM     21  O   UNL     1       6.647   7.413  16.957  0.00  0.00    +0.000 OA
BRANCH  21  22
ATOM     22  C   UNL     1       7.808   7.642  17.758  0.00  0.00    +0.000 C 
BRANCH  22  23
ATOM     23  C   UNL     1       8.151   9.125  17.748  0.00  0.00    +0.000 C 
BRANCH  23  24
ATOM     24  O   UNL     1       8.686   9.472  19.028  0.00  0.00    +0.000 OA
BRANCH  24  30
ATOM     25  C   UNL     1      11.265  13.152  16.932  0.00  0.00    +0.000 C 
ATOM     26  C   UNL     1      10.791  12.400  18.138  0.00  0.00    +0.000 A 
ATOM     27  C   UNL     1      11.182  12.772  19.429  0.00  0.00    +0.000 A 
ATOM     28  C   UNL     1      10.729  12.054  20.536  0.00  0.00    +0.000 A 
ATOM     29  C   UNL     1       9.887  10.958  20.356  0.00  0.00    +0.000 A 
ATOM     30  C   UNL     1       9.493  10.571  19.074  0.00  0.00    +0.000 A 
ATOM     31  C   UNL     1       9.942  11.297  17.971  0.00  0.00    +0.000 A 
ENDBRANCH  24  30
ENDBRANCH  23  24
ENDBRANCH  22  23
ENDBRANCH  21  22
ENDBRANCH   1  21
TORSDOF 6
ENDMDL
MODEL 2
REMARK VINA RESULT:      -9.1      0.779      1.483
REMARK  Name = 
REMARK  9 active torsions:
REMARK  status: ('A' for Active; 'I' for Inactive)
REMARK    1  A    between atoms: C_1  and  C_2
REMARK    2  A    between atoms: C_6  and  O_7
REMARK    3  A    between atoms: O_7  and  C_8
REMARK    4  A    between atoms: C_8  and  C_9
REMARK    5  A    between atoms: C_9  and  O_10
REMARK    6  A    between atoms: O_10  and  C_11
REMARK    7  A    between atoms: C_15  and  N_16
REMARK    8  A    between atoms: C_23  and  C_24
REMARK    9  A    between atoms: C_23  and  C_25
REMARK                            x       y       z     vdW  Elec       q    Type
REMARK                         _______ _______ _______ _____ _____    ______ ____
ROOT
ATOM      1  C   UNL     1       6.851   5.925  18.026  0.00  0.00    +0.000 A 
ATOM      2  C   UNL     1       6.799   5.577  16.682  0.00  0.00    +0.000 A 
ATOM      3  C   UNL     1       5.830   4.690  16.244  0.00  0.00    +0.000 A 
ATOM      4  C   UNL     1       4.875   4.206  17.143  0.00  0.00    +0.000 A 
ATOM      5  C   UNL     1       4.926   4.480  18.517  0.00  0.00    +0.000 A 
ATOM      6  C   UNL     1       5.973   5.327  18.933  0.00  0.00    +0.000 A 
ENDROOT
BRANCH   5   7
ATOM      7  N   UNL     1       3.925   4.024  19.426  0.00  0.00    +0.000 N 
ATOM      8  C   UNL     1       3.925   2.788  20.048  0.00  0.00    +0.000 C 
ATOM      9  N   UNL     1       4.996   1.960  19.900  0.00  0.00    +0.000 N 
ATOM     10  N   UNL     1       2.990   2.320  20.806  0.00  0.00    +0.000 NA
ATOM     11  C   UNL     1       1.931   3.116  21.074  0.00  0.00    +0.000 C 
ATOM     12  N   UNL     1       1.098   2.692  22.053  0.00  0.00    +0.000 N 
ATOM     13  N   UNL     1       1.658   4.200  20.465  0.00  0.00    +0.000 NA
ATOM     14  C   UNL     1       2.579   4.668  19.417  0.00  0.00    +0.000 C 
ATOM     15  C   UNL     1       1.867   4.387  18.080  0.00  0.00    +0.000 C 
ATOM     16  C   UNL     1       2.595   6.189  19.648  0.00  0.00    +0.000 C 
ATOM     17  H   UNL     1       5.894   2.424  19.908  0.00  0.00    +0.000 HD
ATOM     18  H   UNL     1       4.954   1.186  20.550  0.00  0.00    +0.000 HD
ATOM     19  H   UNL     1       1.123   1.690  22.180  0.00  0.00    +0.000 HD
ATOM     20  H   UNL     1       0.172   3.088  21.969  0.00  0.00    +0.000 HD
ENDBRANCH   5   7
BRANCH   1  21
ATOM     21  O   UNL     1       7.708   6.944  18.327  0.00  0.00    +0.000 OA
BRANCH  21  22
ATOM     22  C   UNL     1       7.968   7.926  17.322  0.00  0.00    +0.000 C 
BRANCH  22  23
ATOM     23  C   UNL     1       7.928   9.315  17.944  0.00  0.00    +0.000 C 
BRANCH  23  24
ATOM     24  O   UNL     1       8.980   9.406  18.909  0.00  0.00    +0.000 OA
BRANCH  24  30
ATOM     25  C   UNL     1       9.790  13.418  21.709  0.00  0.00    +0.000 C 
ATOM     26  C   UNL     1       9.938  12.659  20.425  0.00  0.00    +0.000 A 
ATOM     27  C   UNL     1      10.611  13.207  19.328  0.00  0.00    +0.000 A 
ATOM     28  C   UNL     1      10.732  12.481  18.143  0.00  0.00    +0.000 A 
ATOM     29  C   UNL     1      10.177  11.207  18.048  0.00  0.00    +0.000 A 
ATOM     30  C   UNL     1       9.496  10.649  19.132  0.00  0.00    +0.000 A 
ATOM     31  C   UNL     1       9.385  11.375  20.318  0.00  0.00    +0.000 A 
ENDBRANCH  24  30
ENDBRANCH  23  24
ENDBRANCH  22  23
ENDBRANCH  21  22
ENDBRANCH   1  21
TORSDOF 6
ENDMDL
MODEL 3
REMARK VINA RESULT:      -8.9      1.222      2.054
REMARK  Name = 
REMARK  9 active torsions:
REMARK  status: ('A' for Active; 'I' for Inactive)
REMARK    1  A    between atoms: C_1  and  C_2
REMARK    2  A    between atoms: C_6  and  O_7
REMARK    3  A    between atoms: O_7  and  C_8
REMARK    4  A    between atoms: C_8  and  C_9
REMARK    5  A    between atoms: C_9  and  O_10
REMARK    6  A    between atoms: O_10  and  C_11
REMARK    7  A    between atoms: C_15  and  N_16
REMARK    8  A    between atoms: C_23  and  C_24
REMARK    9  A    between atoms: C_23  and  C_25
REMARK                            x       y       z     vdW  Elec       q    Type
REMARK                         _______ _______ _______ _____ _____    ______ ____
ROOT
ATOM      1  C   UNL     1       6.961   5.519  17.042  0.00  0.00    +0.000 A 
ATOM      2  C   UNL     1       7.051   5.126  15.712  0.00  0.00    +0.000 A 
ATOM      3  C   UNL     1       6.049   4.345  15.161  0.00  0.00    +0.000 A 
ATOM      4  C   UNL     1       4.927   4.015  15.927  0.00  0.00    +0.000 A 
ATOM      5  C   UNL     1       4.822   4.335  17.288  0.00  0.00    +0.000 A 
ATOM      6  C   UNL     1       5.899   5.066  17.828  0.00  0.00    +0.000 A 
ENDROOT
BRANCH   5   7
ATOM      7  N   UNL     1       3.656   4.039  18.056  0.00  0.00    +0.000 N 
ATOM      8  C   UNL     1       2.748   4.979  18.510  0.00  0.00    +0.000 C 
ATOM      9  N   UNL     1       2.874   6.279  18.121  0.00  0.00    +0.000 N 
ATOM     10  N   UNL     1       1.735   4.747  19.276  0.00  0.00    +0.000 NA
ATOM     11  C   UNL     1       1.489   3.468  19.635  0.00  0.00    +0.000 C 
ATOM     12  N   UNL     1       0.297   3.233  20.231  0.00  0.00    +0.000 N 
ATOM     13  N   UNL     1       2.296   2.496  19.475  0.00  0.00    +0.000 NA
ATOM     14  C   UNL     1       3.581   2.751  18.806  0.00  0.00    +0.000 C 
ATOM     15  C   UNL     1       4.643   2.726  19.922  0.00  0.00    +0.000 C 
ATOM     16  C   UNL     1       3.757   1.493  17.938  0.00  0.00    +0.000 C 
ATOM     17  H   UNL     1       3.152   6.408  17.159  0.00  0.00    +0.000 HD
ATOM     18  H   UNL     1       2.050   6.815  18.362  0.00  0.00    +0.000 HD
ATOM     19  H   UNL     1      -0.078   4.051  20.690  0.00  0.00    +0.000 HD
ATOM     20  H   UNL     1       0.306   2.394  20.794  0.00  0.00    +0.000 HD
ENDBRANCH   5   7
BRANCH   1  21
ATOM     21  O   UNL     1       7.888   6.438  17.437  0.00  0.00    +0.000 OA
BRANCH  21  22
ATOM     22  C   UNL     1       7.510   7.817  17.446  0.00  0.00    +0.000 C 
BRANCH  22  23
ATOM     23  C   UNL     1       8.442   8.595  18.364  0.00  0.00    +0.000 C 
BRANCH  23  24
ATOM     24  O   UNL     1       8.453   9.961  17.940  0.00  0.00    +0.000 OA
BRANCH  24  30
ATOM     25  C   UNL     1      12.217  13.183  17.722  0.00  0.00    +0.000 C 
ATOM     26  C   UNL     1      11.250  12.340  18.498  0.00  0.00    +0.000 A 
ATOM     27  C   UNL     1      11.277  12.302  19.896  0.00  0.00    +0.000 A 
ATOM     28  C   UNL     1      10.368  11.508  20.596  0.00  0.00    +0.000 A 
ATOM     29  C   UNL     1       9.433  10.745  19.900  0.00  0.00    +0.000 A 
ATOM     30  C   UNL     1       9.399  10.767  18.505  0.00  0.00    +0.000 A 
ATOM     31  C   UNL     1      10.304  11.569  17.810  0.00  0.00    +0.000 A 
ENDBRANCH  24  30
ENDBRANCH  23  24
ENDBRANCH  22  23
ENDBRANCH  21  22
ENDBRANCH   1  21
TORSDOF 6
ENDMDL
MODEL 4
REMARK VINA RESULT:      -8.8      1.152      1.917
REMARK  Name = 
REMARK  9 active torsions:
REMARK  status: ('A' for Active; 'I' for Inactive)
REMARK    1  A    between atoms: C_1  and  C_2
REMARK    2  A    between atoms: C_6  and  O_7
REMARK    3  A    between atoms: O_7  and  C_8
REMARK    4  A    between atoms: C_8  and  C_9
REMARK    5  A    between atoms: C_9  and  O_10
REMARK    6  A    between atoms: O_10  and  C_11
REMARK    7  A    between atoms: C_15  and  N_16
REMARK    8  A    between atoms: C_23  and  C_24
REMARK    9  A    between atoms: C_23  and  C_25
REMARK                            x       y       z     vdW  Elec       q    Type
REMARK                         _______ _______ _______ _____ _____    ______ ____
ROOT
ATOM      1  C   UNL     1       6.646   6.161  17.794  0.00  0.00    +0.000 A 
ATOM      2  C   UNL     1       6.382   6.282  16.435  0.00  0.00    +0.000 A 
ATOM      3  C   UNL     1       5.221   5.736  15.913  0.00  0.00    +0.000 A 
ATOM      4  C   UNL     1       4.297   5.127  16.767  0.00  0.00    +0.000 A 
ATOM      5  C   UNL     1       4.548   4.927  18.132  0.00  0.00    +0.000 A 
ATOM      6  C   UNL     1       5.775   5.432  18.607  0.00  0.00    +0.000 A 
ENDROOT
BRANCH   5   7
ATOM      7  N   UNL     1       3.585   4.349  19.012  0.00  0.00    +0.000 N 
ATOM      8  C   UNL     1       2.876   5.043  19.976  0.00  0.00    +0.000 C 
ATOM      9  N   UNL     1       2.990   6.398  20.049  0.00  0.00    +0.000 N 
ATOM     10  N   UNL     1       2.064   4.528  20.838  0.00  0.00    +0.000 NA
ATOM     11  C   UNL     1       1.829   3.200  20.775  0.00  0.00    +0.000 C 
ATOM     12  N   UNL     1       0.802   2.738  21.526  0.00  0.00    +0.000 N 
ATOM     13  N   UNL     1       2.508   2.368  20.090  0.00  0.00    +0.000 NA
ATOM     14  C   UNL     1       3.608   2.877  19.256  0.00  0.00    +0.000 C 
ATOM     15  C   UNL     1       4.903   2.483  19.992  0.00  0.00    +0.000 C 
ATOM     16  C   UNL     1       3.488   2.014  17.989  0.00  0.00    +0.000 C 
ATOM     17  H   UNL     1       3.037   6.869  19.156  0.00  0.00    +0.000 HD
ATOM     18  H   UNL     1       2.285   6.793  20.659  0.00  0.00    +0.000 HD
ATOM     19  H   UNL     1       0.603   3.330  22.321  0.00  0.00    +0.000 HD
ATOM     20  H   UNL     1       0.892   1.755  21.739  0.00  0.00    +0.000 HD
ENDBRANCH   5   7
BRANCH   1  21
ATOM     21  O   UNL     1       7.707   6.892  18.244  0.00  0.00    +0.000 OA
BRANCH  21  22
ATOM     22  C   UNL     1       7.904   8.200  17.703  0.00  0.00    +0.000 C 
BRANCH  22  23
ATOM     23  C   UNL     1       8.712   9.040  18.682  0.00  0.00    +0.000 C 
BRANCH  23  24
ATOM     24  O   UNL     1       8.645  10.406  18.264  0.00  0.00    +0.000 OA
BRANCH  24  30
ATOM     25  C   UNL     1      12.318  13.406  16.813  0.00  0.00    +0.000 C 
ATOM     26  C   UNL     1      11.591  12.634  17.873  0.00  0.00    +0.000 A 
ATOM     27  C   UNL     1      12.037  12.621  19.199  0.00  0.00    +0.000 A 
ATOM     28  C   UNL     1      11.344  11.893  20.166  0.00  0.00    +0.000 A 
ATOM     29  C   UNL     1      10.207  11.171  19.811  0.00  0.00    +0.000 A 
ATOM     30  C   UNL     1       9.755  11.168  18.490  0.00  0.00    +0.000 A 
ATOM     31  C   UNL     1      10.445  11.905  17.528  0.00  0.00    +0.000 A 
ENDBRANCH  24  30
ENDBRANCH  23  24
ENDBRANCH  22  23
ENDBRANCH  21  22
ENDBRANCH   1  21
TORSDOF 6
ENDMDL
MODEL 5
REMARK VINA RESULT:      -8.8      5.517      8.458
REMARK  Name = 
REMARK  9 active torsions:
REMARK  status: ('A' for Active; 'I' for Inactive)
REMARK    1  A    between atoms: C_1  and  C_2
REMARK    2  A    between atoms: C_6  and  O_7
REMARK    3  A    between atoms: O_7  and  C_8
REMARK    4  A    between atoms: C_8  and  C_9
REMARK    5  A    between atoms: C_9  and  O_10
REMARK    6  A    between atoms: O_10  and  C_11
REMARK    7  A    between atoms: C_15  and  N_16
REMARK    8  A    between atoms: C_23  and  C_24
REMARK    9  A    between atoms: C_23  and  C_25
REMARK                            x       y       z     vdW  Elec       q    Type
REMARK                         _______ _______ _______ _____ _____    ______ ____
ROOT
ATOM      1  C   UNL     1       1.368   8.399  20.085  0.00  0.00    +0.000 A 
ATOM      2  C   UNL     1       1.464   9.055  18.864  0.00  0.00    +0.000 A 
ATOM      3  C   UNL     1       2.198   8.483  17.838  0.00  0.00    +0.000 A 
ATOM      4  C   UNL     1       2.778   7.224  18.018  0.00  0.00    +0.000 A 
ATOM      5  C   UNL     1       2.760   6.555  19.250  0.00  0.00    +0.000 A 
ATOM      6  C   UNL     1       2.066   7.207  20.289  0.00  0.00    +0.000 A 
ENDROOT
BRANCH   5   7
ATOM      7  N   UNL     1       3.311   5.249  19.420  0.00  0.00    +0.000 N 
ATOM      8  C   UNL     1       4.644   4.925  19.242  0.00  0.00    +0.000 C 
ATOM      9  N   UNL     1       5.550   5.912  18.998  0.00  0.00    +0.000 N 
ATOM     10  N   UNL     1       5.151   3.739  19.307  0.00  0.00    +0.000 NA
ATOM     11  C   UNL     1       4.332   2.715  19.631  0.00  0.00    +0.000 C 
ATOM     12  N   UNL     1       4.934   1.538  19.924  0.00  0.00    +0.000 N 
ATOM     13  N   UNL     1       3.061   2.774  19.656  0.00  0.00    +0.000 NA
ATOM     14  C   UNL     1       2.411   4.061  19.359  0.00  0.00    +0.000 C 
ATOM     15  C   UNL     1       1.824   3.914  17.943  0.00  0.00    +0.000 C 
ATOM     16  C   UNL     1       1.250   4.084  20.367  0.00  0.00    +0.000 C 
ATOM     17  H   UNL     1       5.402   6.762  19.523  0.00  0.00    +0.000 HD
ATOM     18  H   UNL     1       6.499   5.567  19.079  0.00  0.00    +0.000 HD
ATOM     19  H   UNL     1       5.842   1.446  19.491  0.00  0.00    +0.000 HD
ATOM     20  H   UNL     1       4.318   0.748  19.796  0.00  0.00    +0.000 HD
ENDBRANCH   5   7
BRANCH   1  21
ATOM     21  O   UNL     1       0.473   8.939  20.963  0.00  0.00    +0.000 OA
BRANCH  21  22
ATOM     22  C   UNL     1       0.903   9.176  22.305  0.00  0.00    +0.000 C 
BRANCH  22  23
ATOM     23  C   UNL     1      -0.261   9.714  23.125  0.00  0.00    +0.000 C 
BRANCH  23  24
ATOM     24  O   UNL     1      -0.259  11.141  23.027  0.00  0.00    +0.000 OA
BRANCH  24  30
ATOM     25  C   UNL     1      -4.843  12.930  23.641  0.00  0.00    +0.000 C 
ATOM     26  C   UNL     1      -3.659  12.614  22.778  0.00  0.00    +0.000 A 
ATOM     27  C   UNL     1      -3.670  12.877  21.404  0.00  0.00    +0.000 A 
ATOM     28  C   UNL     1      -2.556  12.571  20.621  0.00  0.00    +0.000 A 
ATOM     29  C   UNL     1      -1.431  11.997  21.207  0.00  0.00    +0.000 A 
ATOM     30  C   UNL     1      -1.409  11.722  22.576  0.00  0.00    +0.000 A 
ATOM     31  C   UNL     1      -2.520  12.038  23.356  0.00  0.00    +0.000 A 
ENDBRANCH  24  30
ENDBRANCH  23  24
ENDBRANCH  22  23
ENDBRANCH  21  22
ENDBRANCH   1  21
TORSDOF 6
ENDMDL
MODEL 6
REMARK VINA RESULT:      -8.7      5.440      8.357
REMARK  Name = 
REMARK  9 active torsions:
REMARK  status: ('A' for Active; 'I' for Inactive)
REMARK    1  A    between atoms: C_1  and  C_2
REMARK    2  A    between atoms: C_6  and  O_7
REMARK    3  A    between atoms: O_7  and  C_8
REMARK    4  A    between atoms: C_8  and  C_9
REMARK    5  A    between atoms: C_9  and  O_10
REMARK    6  A    between atoms: O_10  and  C_11
REMARK    7  A    between atoms: C_15  and  N_16
REMARK    8  A    between atoms: C_23  and  C_24
REMARK    9  A    between atoms: C_23  and  C_25
REMARK                            x       y       z     vdW  Elec       q    Type
REMARK                         _______ _______ _______ _____ _____    ______ ____
ROOT
ATOM      1  C   UNL     1       1.569   8.344  19.864  0.00  0.00    +0.000 A 
ATOM      2  C   UNL     1       1.737   8.955  18.628  0.00  0.00    +0.000 A 
ATOM      3  C   UNL     1       2.500   8.331  17.655  0.00  0.00    +0.000 A 
ATOM      4  C   UNL     1       3.039   7.065  17.902  0.00  0.00    +0.000 A 
ATOM      5  C   UNL     1       2.948   6.438  19.154  0.00  0.00    +0.000 A 
ATOM      6  C   UNL     1       2.226   7.142  20.139  0.00  0.00    +0.000 A 
ENDROOT
BRANCH   5   7
ATOM      7  N   UNL     1       3.457   5.126  19.391  0.00  0.00    +0.000 N 
ATOM      8  C   UNL     1       4.789   4.765  19.293  0.00  0.00    +0.000 C 
ATOM      9  N   UNL     1       5.731   5.723  19.069  0.00  0.00    +0.000 N 
ATOM     10  N   UNL     1       5.262   3.570  19.420  0.00  0.00    +0.000 NA
ATOM     11  C   UNL     1       4.402   2.576  19.731  0.00  0.00    +0.000 C 
ATOM     12  N   UNL     1       4.958   1.395  20.089  0.00  0.00    +0.000 N 
ATOM     13  N   UNL     1       3.133   2.666  19.686  0.00  0.00    +0.000 NA
ATOM     14  C   UNL     1       2.532   3.958  19.318  0.00  0.00    +0.000 C 
ATOM     15  C   UNL     1       2.016   3.781  17.877  0.00  0.00    +0.000 C 
ATOM     16  C   UNL     1       1.320   4.039  20.262  0.00  0.00    +0.000 C 
ATOM     17  H   UNL     1       5.578   6.592  19.560  0.00  0.00    +0.000 HD
ATOM     18  H   UNL     1       6.665   5.358  19.209  0.00  0.00    +0.000 HD
ATOM     19  H   UNL     1       5.885   1.268  19.707  0.00  0.00    +0.000 HD
ATOM     20  H   UNL     1       4.330   0.616  19.952  0.00  0.00    +0.000 HD
ENDBRANCH   5   7
BRANCH   1  21
ATOM     21  O   UNL     1       0.651   8.935  20.682  0.00  0.00    +0.000 OA
BRANCH  21  22
ATOM     22  C   UNL     1       0.469  10.349  20.583  0.00  0.00    +0.000 C 
BRANCH  22  23
ATOM     23  C   UNL     1      -0.916  10.647  20.027  0.00  0.00    +0.000 C 
BRANCH  23  24
ATOM     24  O   UNL     1      -0.794  10.889  18.622  0.00  0.00    +0.000 OA
BRANCH  24  30
ATOM     25  C   UNL     1      -3.531  10.121  14.559  0.00  0.00    +0.000 C 
ATOM     26  C   UNL     1      -3.375  10.616  15.965  0.00  0.00    +0.000 A 
ATOM     27  C   UNL     1      -4.439  11.214  16.648  0.00  0.00    +0.000 A 
ATOM     28  C   UNL     1      -4.267  11.669  17.956  0.00  0.00    +0.000 A 
ATOM     29  C   UNL     1      -3.030  11.533  18.583  0.00  0.00    +0.000 A 
ATOM     30  C   UNL     1      -1.958  10.945  17.910  0.00  0.00    +0.000 A 
ATOM     31  C   UNL     1      -2.136  10.483  16.606  0.00  0.00    +0.000 A 
ENDBRANCH  24  30
ENDBRANCH  23  24
ENDBRANCH  22  23
ENDBRANCH  21  22
ENDBRANCH   1  21
TORSDOF 6
ENDMDL
MODEL 7
REMARK VINA RESULT:      -8.7      5.447      8.357
REMARK  Name = 
REMARK  9 active torsions:
REMARK  status: ('A' for Active; 'I' for Inactive)
REMARK    1  A    between atoms: C_1  and  C_2
REMARK    2  A    between atoms: C_6  and  O_7
REMARK    3  A    between atoms: O_7  and  C_8
REMARK    4  A    between atoms: C_8  and  C_9
REMARK    5  A    between atoms: C_9  and  O_10
REMARK    6  A    between atoms: O_10  and  C_11
REMARK    7  A    between atoms: C_15  and  N_16
REMARK    8  A    between atoms: C_23  and  C_24
REMARK    9  A    between atoms: C_23  and  C_25
REMARK                            x       y       z     vdW  Elec       q    Type
REMARK                         _______ _______ _______ _____ _____    ______ ____
ROOT
ATOM      1  C   UNL     1       1.478   8.427  19.877  0.00  0.00    +0.000 A 
ATOM      2  C   UNL     1       1.649   9.055  18.649  0.00  0.00    +0.000 A 
ATOM      3  C   UNL     1       2.422   8.448  17.673  0.00  0.00    +0.000 A 
ATOM      4  C   UNL     1       2.967   7.182  17.908  0.00  0.00    +0.000 A 
ATOM      5  C   UNL     1       2.874   6.540  19.151  0.00  0.00    +0.000 A 
ATOM      6  C   UNL     1       2.142   7.227  20.140  0.00  0.00    +0.000 A 
ENDROOT
BRANCH   5   7
ATOM      7  N   UNL     1       3.391   5.228  19.376  0.00  0.00    +0.000 N 
ATOM      8  C   UNL     1       4.721   4.870  19.252  0.00  0.00    +0.000 C 
ATOM      9  N   UNL     1       5.657   5.831  19.012  0.00  0.00    +0.000 N 
ATOM     10  N   UNL     1       5.199   3.676  19.366  0.00  0.00    +0.000 NA
ATOM     11  C   UNL     1       4.348   2.679  19.691  0.00  0.00    +0.000 C 
ATOM     12  N   UNL     1       4.913   1.499  20.036  0.00  0.00    +0.000 N 
ATOM     13  N   UNL     1       3.077   2.766  19.670  0.00  0.00    +0.000 NA
ATOM     14  C   UNL     1       2.467   4.058  19.317  0.00  0.00    +0.000 C 
ATOM     15  C   UNL     1       1.924   3.883  17.886  0.00  0.00    +0.000 C 
ATOM     16  C   UNL     1       1.273   4.134  20.283  0.00  0.00    +0.000 C 
ATOM     17  H   UNL     1       5.510   6.699  19.508  0.00  0.00    +0.000 HD
ATOM     18  H   UNL     1       6.594   5.469  19.134  0.00  0.00    +0.000 HD
ATOM     19  H   UNL     1       5.833   1.375  19.636  0.00  0.00    +0.000 HD
ATOM     20  H   UNL     1       4.284   0.719  19.908  0.00  0.00    +0.000 HD
ENDBRANCH   5   7
BRANCH   1  21
ATOM     21  O   UNL     1       0.552   9.002  20.697  0.00  0.00    +0.000 OA
BRANCH  21  22
ATOM     22  C   UNL     1       0.773  10.347  21.127  0.00  0.00    +0.000 C 
BRANCH  22  23
ATOM     23  C   UNL     1      -0.444  11.197  20.790  0.00  0.00    +0.000 C 
BRANCH  23  24
ATOM     24  O   UNL     1      -0.489  11.375  19.372  0.00  0.00    +0.000 OA
BRANCH  24  30
ATOM     25  C   UNL     1      -5.327  12.308  18.803  0.00  0.00    +0.000 C 
ATOM     26  C   UNL     1      -4.075  11.574  18.425  0.00  0.00    +0.000 A 
ATOM     27  C   UNL     1      -4.078  10.600  17.421  0.00  0.00    +0.000 A 
ATOM     28  C   UNL     1      -2.900   9.929  17.090  0.00  0.00    +0.000 A 
ATOM     29  C   UNL     1      -1.718  10.225  17.764  0.00  0.00    +0.000 A 
ATOM     30  C   UNL     1      -1.702  11.190  18.773  0.00  0.00    +0.000 A 
ATOM     31  C   UNL     1      -2.879  11.865  19.095  0.00  0.00    +0.000 A 
ENDBRANCH  24  30
ENDBRANCH  23  24
ENDBRANCH  22  23
ENDBRANCH  21  22
ENDBRANCH   1  21
TORSDOF 6
ENDMDL
MODEL 8
REMARK VINA RESULT:      -8.5      1.192      2.432
REMARK  Name = 
REMARK  9 active torsions:
REMARK  status: ('A' for Active; 'I' for Inactive)
REMARK    1  A    between atoms: C_1  and  C_2
REMARK    2  A    between atoms: C_6  and  O_7
REMARK    3  A    between atoms: O_7  and  C_8
REMARK    4  A    between atoms: C_8  and  C_9
REMARK    5  A    between atoms: C_9  and  O_10
REMARK    6  A    between atoms: O_10  and  C_11
REMARK    7  A    between atoms: C_15  and  N_16
REMARK    8  A    between atoms: C_23  and  C_24
REMARK    9  A    between atoms: C_23  and  C_25
REMARK                            x       y       z     vdW  Elec       q    Type
REMARK                         _______ _______ _______ _____ _____    ______ ____
ROOT
ATOM      1  C   UNL     1       6.787   5.713  16.637  0.00  0.00    +0.000 A 
ATOM      2  C   UNL     1       6.901   5.130  15.381  0.00  0.00    +0.000 A 
ATOM      3  C   UNL     1       5.974   4.183  14.980  0.00  0.00    +0.000 A 
ATOM      4  C   UNL     1       4.895   3.873  15.814  0.00  0.00    +0.000 A 
ATOM      5  C   UNL     1       4.772   4.388  17.112  0.00  0.00    +0.000 A 
ATOM      6  C   UNL     1       5.780   5.291  17.509  0.00  0.00    +0.000 A 
ENDROOT
BRANCH   5   7
ATOM      7  N   UNL     1       3.648   4.107  17.944  0.00  0.00    +0.000 N 
ATOM      8  C   UNL     1       2.759   5.055  18.419  0.00  0.00    +0.000 C 
ATOM      9  N   UNL     1       2.860   6.345  17.993  0.00  0.00    +0.000 N 
ATOM     10  N   UNL     1       1.786   4.838  19.240  0.00  0.00    +0.000 NA
ATOM     11  C   UNL     1       1.564   3.568  19.641  0.00  0.00    +0.000 C 
ATOM     12  N   UNL     1       0.404   3.343  20.301  0.00  0.00    +0.000 N 
ATOM     13  N   UNL     1       2.366   2.594  19.466  0.00  0.00    +0.000 NA
ATOM     14  C   UNL     1       3.616   2.838  18.728  0.00  0.00    +0.000 C 
ATOM     15  C   UNL     1       4.732   2.844  19.790  0.00  0.00    +0.000 C 
ATOM     16  C   UNL     1       3.755   1.560  17.884  0.00  0.00    +0.000 C 
ATOM     17  H   UNL     1       3.089   6.452  17.016  0.00  0.00    +0.000 HD
ATOM     18  H   UNL     1       2.046   6.884  18.261  0.00  0.00    +0.000 HD
ATOM     19  H   UNL     1       0.049   4.171  20.759  0.00  0.00    +0.000 HD
ATOM     20  H   UNL     1       0.445   2.518  20.884  0.00  0.00    +0.000 HD
ENDBRANCH   5   7
BRANCH   1  21
ATOM     21  O   UNL     1       7.625   6.765  16.866  0.00  0.00    +0.000 OA
BRANCH  21  22
ATOM     22  C   UNL     1       7.176   7.811  17.731  0.00  0.00    +0.000 C 
BRANCH  22  23
ATOM     23  C   UNL     1       8.098   9.014  17.597  0.00  0.00    +0.000 C 
BRANCH  23  24
ATOM     24  O   UNL     1       8.878   9.119  18.792  0.00  0.00    +0.000 OA
BRANCH  24  30
ATOM     25  C   UNL     1       9.644  12.909  21.897  0.00  0.00    +0.000 C 
ATOM     26  C   UNL     1       9.768  12.268  20.548  0.00  0.00    +0.000 A 
ATOM     27  C   UNL     1      10.374  12.936  19.478  0.00  0.00    +0.000 A 
ATOM     28  C   UNL     1      10.475  12.319  18.230  0.00  0.00    +0.000 A 
ATOM     29  C   UNL     1       9.967  11.035  18.047  0.00  0.00    +0.000 A 
ATOM     30  C   UNL     1       9.354  10.359  19.103  0.00  0.00    +0.000 A 
ATOM     31  C   UNL     1       9.263  10.976  20.350  0.00  0.00    +0.000 A 
ENDBRANCH  24  30
ENDBRANCH  23  24
ENDBRANCH  22  23
ENDBRANCH  21  22
ENDBRANCH   1  21
TORSDOF 6
ENDMDL
MODEL 9
REMARK VINA RESULT:      -8.4      5.571      7.334
REMARK  Name = 
REMARK  9 active torsions:
REMARK  status: ('A' for Active; 'I' for Inactive)
REMARK    1  A    between atoms: C_1  and  C_2
REMARK    2  A    between atoms: C_6  and  O_7
REMARK    3  A    between atoms: O_7  and  C_8
REMARK    4  A    between atoms: C_8  and  C_9
REMARK    5  A    between atoms: C_9  and  O_10
REMARK    6  A    between atoms: O_10  and  C_11
REMARK    7  A    between atoms: C_15  and  N_16
REMARK    8  A    between atoms: C_23  and  C_24
REMARK    9  A    between atoms: C_23  and  C_25
REMARK                            x       y       z     vdW  Elec       q    Type
REMARK                         _______ _______ _______ _____ _____    ______ ____
ROOT
ATOM      1  C   UNL     1       1.294   8.184  20.324  0.00  0.00    +0.000 A 
ATOM      2  C   UNL     1       1.422   8.935  19.163  0.00  0.00    +0.000 A 
ATOM      3  C   UNL     1       2.195   8.453  18.119  0.00  0.00    +0.000 A 
ATOM      4  C   UNL     1       2.783   7.189  18.218  0.00  0.00    +0.000 A 
ATOM      5  C   UNL     1       2.732   6.423  19.392  0.00  0.00    +0.000 A 
ATOM      6  C   UNL     1       1.998   6.985  20.456  0.00  0.00    +0.000 A 
ENDROOT
BRANCH   5   7
ATOM      7  N   UNL     1       3.292   5.113  19.476  0.00  0.00    +0.000 N 
ATOM      8  C   UNL     1       4.635   4.816  19.329  0.00  0.00    +0.000 C 
ATOM      9  N   UNL     1       5.538   5.828  19.207  0.00  0.00    +0.000 N 
ATOM     10  N   UNL     1       5.153   3.633  19.316  0.00  0.00    +0.000 NA
ATOM     11  C   UNL     1       4.334   2.578  19.519  0.00  0.00    +0.000 C 
ATOM     12  N   UNL     1       4.937   1.387  19.739  0.00  0.00    +0.000 N 
ATOM     13  N   UNL     1       3.062   2.625  19.494  0.00  0.00    +0.000 NA
ATOM     14  C   UNL     1       2.410   3.926  19.278  0.00  0.00    +0.000 C 
ATOM     15  C   UNL     1       1.884   3.893  17.830  0.00  0.00    +0.000 C 
ATOM     16  C   UNL     1       1.206   3.855  20.233  0.00  0.00    +0.000 C 
ATOM     17  H   UNL     1       5.358   6.630  19.795  0.00  0.00    +0.000 HD
ATOM     18  H   UNL     1       6.487   5.486  19.300  0.00  0.00    +0.000 HD
ATOM     19  H   UNL     1       5.864   1.339  19.338  0.00  0.00    +0.000 HD
ATOM     20  H   UNL     1       4.336   0.605  19.518  0.00  0.00    +0.000 HD
ENDBRANCH   5   7
BRANCH   1  21
ATOM     21  O   UNL     1       0.365   8.645  21.212  0.00  0.00    +0.000 OA
BRANCH  21  22
ATOM     22  C   UNL     1       0.804   9.513  22.258  0.00  0.00    +0.000 C 
BRANCH  22  23
ATOM     23  C   UNL     1      -0.358  10.379  22.723  0.00  0.00    +0.000 C 
BRANCH  23  24
ATOM     24  O   UNL     1      -0.089  11.733  22.345  0.00  0.00    +0.000 OA
BRANCH  24  30
ATOM     25  C   UNL     1      -2.554  11.587  18.044  0.00  0.00    +0.000 C 
ATOM     26  C   UNL     1      -1.384  12.019  18.876  0.00  0.00    +0.000 A 
ATOM     27  C   UNL     1      -0.337  12.767  18.326  0.00  0.00    +0.000 A 
ATOM     28  C   UNL     1       0.742  13.155  19.121  0.00  0.00    +0.000 A 
ATOM     29  C   UNL     1       0.781  12.793  20.465  0.00  0.00    +0.000 A 
ATOM     30  C   UNL     1      -0.253  12.042  21.026  0.00  0.00    +0.000 A 
ATOM     31  C   UNL     1      -1.335  11.663  20.230  0.00  0.00    +0.000 A 
ENDBRANCH  24  30
ENDBRANCH  23  24
ENDBRANCH  22  23
ENDBRANCH  21  22
ENDBRANCH   1  21
TORSDOF 6
ENDMDL
