MODEL 1
REMARK VINA RESULT:      -6.2      0.000      0.000
REMARK  Name = 
REMARK  16 active torsions:
REMARK  status: ('A' for Active; 'I' for Inactive)
REMARK    1  A    between atoms: C_2  and  O_3
REMARK    2  A    between atoms: C_2  and  C_4
REMARK    3  A    between atoms: C_4  and  C_5
REMARK    4  A    between atoms: C_5  and  O_6
REMARK    5  A    between atoms: C_5  and  C_7
REMARK    6  A    between atoms: C_5  and  C_24
REMARK    7  A    between atoms: C_7  and  S_8
REMARK    8  A    between atoms: S_8  and  C_9
REMARK    9  A    between atoms: C_9  and  C_10
REMARK   10  A    between atoms: C_10  and  C_11
REMARK   11  A    between atoms: C_11  and  C_12
REMARK   12  A    between atoms: C_12  and  C_13
REMARK   13  A    between atoms: C_13  and  C_14
REMARK   14  A    between atoms: C_14  and  C_15
REMARK   15  A    between atoms: C_15  and  C_16
REMARK   16  A    between atoms: C_24  and  O_26
REMARK                            x       y       z     vdW  Elec       q    Type
REMARK                         _______ _______ _______ _____ _____    ______ ____
ROOT
ATOM      1  C   UNL     1       4.325   2.389  19.195  0.00  0.00    +0.000 C 
ENDROOT
BRANCH   1   2
ATOM      2  S   UNL     1       4.218   3.400  17.687  0.00  0.00    +0.000 S 
BRANCH   2   3
ATOM      3  C   UNL     1       5.203   4.848  18.205  0.00  0.00    +0.000 C 
BRANCH   3   4
ATOM      4  C   UNL     1       6.077   5.350  17.035  0.00  0.00    +0.000 C 
BRANCH   4   5
ATOM      5  C   UNL     1       7.101   6.378  17.558  0.00  0.00    +0.000 C 
ATOM      6  O   UNL     1       7.586   7.302  16.920  0.00  0.00    +0.000 OA
BRANCH   5   7
ATOM      7  O   UNL     1       7.419   6.152  18.860  0.00  0.00    +0.000 OA
ATOM      8  H   UNL     1       8.348   6.453  18.996  0.00  0.00    +0.000 HD
ENDBRANCH   5   7
ENDBRANCH   4   5
BRANCH   4   9
ATOM      9  O   UNL     1       5.220   6.153  16.160  0.00  0.00    +0.000 OA
ATOM     10  H   UNL     1       5.732   6.948  15.909  0.00  0.00    +0.000 HD
ENDBRANCH   4   9
BRANCH   4  11
ATOM     11  C   UNL     1       6.786   4.275  16.193  0.00  0.00    +0.000 C 
BRANCH  11  13
ATOM     12  O   UNL     1       6.100   4.002  13.894  0.00  0.00    +0.000 OA
ATOM     13  C   UNL     1       6.838   4.533  14.709  0.00  0.00    +0.000 C 
BRANCH  13  14
ATOM     14  O   UNL     1       7.711   5.486  14.354  0.00  0.00    +0.000 OA
ATOM     15  H   UNL     1       8.601   5.166  14.625  0.00  0.00    +0.000 HD
ENDBRANCH  13  14
ENDBRANCH  11  13
ENDBRANCH   4  11
ENDBRANCH   3   4
ENDBRANCH   2   3
ENDBRANCH   1   2
BRANCH   1  16
ATOM     16  C   UNL     1       2.907   2.277  19.742  0.00  0.00    +0.000 C 
BRANCH  16  17
ATOM     17  C   UNL     1       2.813   2.726  21.197  0.00  0.00    +0.000 C 
BRANCH  17  18
ATOM     18  C   UNL     1       2.196   4.122  21.264  0.00  0.00    +0.000 C 
BRANCH  18  19
ATOM     19  C   UNL     1       1.119   4.323  20.201  0.00  0.00    +0.000 C 
BRANCH  19  20
ATOM     20  C   UNL     1       1.534   5.440  19.237  0.00  0.00    +0.000 C 
BRANCH  20  21
ATOM     21  C   UNL     1       2.394   6.496  19.932  0.00  0.00    +0.000 C 
BRANCH  21  22
ATOM     22  C   UNL     1       1.660   7.799  20.138  0.00  0.00    +0.000 A 
ATOM     23  C   UNL     1       1.040   8.026  21.379  0.00  0.00    +0.000 A 
ATOM     24  C   UNL     1       0.391   9.225  21.651  0.00  0.00    +0.000 A 
ATOM     25  C   UNL     1       0.345  10.223  20.683  0.00  0.00    +0.000 A 
ATOM     26 CL   UNL     1      -0.437  11.716  21.031  0.00  0.00    +0.000 Cl
ATOM     27  C   UNL     1       0.932  10.020  19.437  0.00  0.00    +0.000 A 
ATOM     28  C   UNL     1       1.580   8.817  19.158  0.00  0.00    +0.000 A 
ATOM     29 CL   UNL     1       2.269   8.621  17.588  0.00  0.00    +0.000 Cl
ENDBRANCH  21  22
ENDBRANCH  20  21
ENDBRANCH  19  20
ENDBRANCH  18  19
ENDBRANCH  17  18
ENDBRANCH  16  17
ENDBRANCH   1  16
TORSDOF 16
ENDMDL
MODEL 2
REMARK VINA RESULT:      -6.2      1.148      2.384
REMARK  Name = 
REMARK  16 active torsions:
REMARK  status: ('A' for Active; 'I' for Inactive)
REMARK    1  A    between atoms: C_2  and  O_3
REMARK    2  A    between atoms: C_2  and  C_4
REMARK    3  A    between atoms: C_4  and  C_5
REMARK    4  A    between atoms: C_5  and  O_6
REMARK    5  A    between atoms: C_5  and  C_7
REMARK    6  A    between atoms: C_5  and  C_24
REMARK    7  A    between atoms: C_7  and  S_8
REMARK    8  A    between atoms: S_8  and  C_9
REMARK    9  A    between atoms: C_9  and  C_10
REMARK   10  A    between atoms: C_10  and  C_11
REMARK   11  A    between atoms: C_11  and  C_12
REMARK   12  A    between atoms: C_12  and  C_13
REMARK   13  A    between atoms: C_13  and  C_14
REMARK   14  A    between atoms: C_14  and  C_15
REMARK   15  A    between atoms: C_15  and  C_16
REMARK   16  A    between atoms: C_24  and  O_26
REMARK                            x       y       z     vdW  Elec       q    Type
REMARK                         _______ _______ _______ _____ _____    ______ ____
ROOT
ATOM      1  C   UNL     1       3.323   3.017  17.769  0.00  0.00    +0.000 C 
ENDROOT
BRANCH   1   2
ATOM      2  S   UNL     1       4.685   3.721  18.748  0.00  0.00    +0.000 S 
BRANCH   2   3
ATOM      3  C   UNL     1       5.183   5.098  17.655  0.00  0.00    +0.000 C 
BRANCH   3   4
ATOM      4  C   UNL     1       6.526   4.777  16.965  0.00  0.00    +0.000 C 
BRANCH   4   5
ATOM      5  C   UNL     1       6.752   5.754  15.793  0.00  0.00    +0.000 C 
ATOM      6  O   UNL     1       7.624   5.668  14.940  0.00  0.00    +0.000 OA
BRANCH   5   7
ATOM      7  O   UNL     1       5.838   6.759  15.795  0.00  0.00    +0.000 OA
ATOM      8  H   UNL     1       5.231   6.612  15.031  0.00  0.00    +0.000 HD
ENDBRANCH   5   7
ENDBRANCH   4   5
BRANCH   4   9
ATOM      9  O   UNL     1       6.376   3.484  16.293  0.00  0.00    +0.000 OA
ATOM     10  H   UNL     1       5.426   3.253  16.325  0.00  0.00    +0.000 HD
ENDBRANCH   4   9
BRANCH   4  11
ATOM     11  C   UNL     1       7.772   4.731  17.867  0.00  0.00    +0.000 C 
BRANCH  11  13
ATOM     12  O   UNL     1       8.045   7.010  18.615  0.00  0.00    +0.000 OA
ATOM     13  C   UNL     1       7.881   5.832  18.890  0.00  0.00    +0.000 C 
BRANCH  13  14
ATOM     14  O   UNL     1       7.682   5.424  20.151  0.00  0.00    +0.000 OA
ATOM     15  H   UNL     1       7.603   4.443  20.118  0.00  0.00    +0.000 HD
ENDBRANCH  13  14
ENDBRANCH  11  13
ENDBRANCH   4  11
ENDBRANCH   3   4
ENDBRANCH   2   3
ENDBRANCH   1   2
BRANCH   1  16
ATOM     16  C   UNL     1       2.901   1.735  18.475  0.00  0.00    +0.000 C 
BRANCH  16  17
ATOM     17  C   UNL     1       1.816   1.982  19.519  0.00  0.00    +0.000 C 
BRANCH  17  18
ATOM     18  C   UNL     1       2.431   2.646  20.751  0.00  0.00    +0.000 C 
BRANCH  18  19
ATOM     19  C   UNL     1       1.484   3.660  21.386  0.00  0.00    +0.000 C 
BRANCH  19  20
ATOM     20  C   UNL     1       1.151   4.770  20.384  0.00  0.00    +0.000 C 
BRANCH  20  21
ATOM     21  C   UNL     1       2.257   5.824  20.321  0.00  0.00    +0.000 C 
BRANCH  21  22
ATOM     22  C   UNL     1       1.715   7.230  20.241  0.00  0.00    +0.000 A 
ATOM     23  C   UNL     1       0.979   7.724  21.334  0.00  0.00    +0.000 A 
ATOM     24  C   UNL     1       0.495   9.027  21.346  0.00  0.00    +0.000 A 
ATOM     25  C   UNL     1       0.734   9.865  20.260  0.00  0.00    +0.000 A 
ATOM     26 CL   UNL     1       0.156  11.485  20.289  0.00  0.00    +0.000 Cl
ATOM     27  C   UNL     1       1.441   9.399  19.156  0.00  0.00    +0.000 A 
ATOM     28  C   UNL     1       1.924   8.091  19.137  0.00  0.00    +0.000 A 
ATOM     29 CL   UNL     1       2.775   7.567  17.729  0.00  0.00    +0.000 Cl
ENDBRANCH  21  22
ENDBRANCH  20  21
ENDBRANCH  19  20
ENDBRANCH  18  19
ENDBRANCH  17  18
ENDBRANCH  16  17
ENDBRANCH   1  16
TORSDOF 16
ENDMDL
MODEL 3
REMARK VINA RESULT:      -6.0      5.316      7.589
REMARK  Name = 
REMARK  16 active torsions:
REMARK  status: ('A' for Active; 'I' for Inactive)
REMARK    1  A    between atoms: C_2  and  O_3
REMARK    2  A    between atoms: C_2  and  C_4
REMARK    3  A    between atoms: C_4  and  C_5
REMARK    4  A    between atoms: C_5  and  O_6
REMARK    5  A    between atoms: C_5  and  C_7
REMARK    6  A    between atoms: C_5  and  C_24
REMARK    7  A    between atoms: C_7  and  S_8
REMARK    8  A    between atoms: S_8  and  C_9
REMARK    9  A    between atoms: C_9  and  C_10
REMARK   10  A    between atoms: C_10  and  C_11
REMARK   11  A    between atoms: C_11  and  C_12
REMARK   12  A    between atoms: C_12  and  C_13
REMARK   13  A    between atoms: C_13  and  C_14
REMARK   14  A    between atoms: C_14  and  C_15
REMARK   15  A    between atoms: C_15  and  C_16
REMARK   16  A    between atoms: C_24  and  O_26
REMARK                            x       y       z     vdW  Elec       q    Type
REMARK                         _______ _______ _______ _____ _____    ______ ____
ROOT
ATOM      1  C   UNL     1       5.368   6.012  17.110  0.00  0.00    +0.000 C 
ENDROOT
BRANCH   1   2
ATOM      2  S   UNL     1       3.829   5.803  18.058  0.00  0.00    +0.000 S 
BRANCH   2   3
ATOM      3  C   UNL     1       3.385   4.099  17.569  0.00  0.00    +0.000 C 
BRANCH   3   4
ATOM      4  C   UNL     1       3.000   3.267  18.812  0.00  0.00    +0.000 C 
BRANCH   4   5
ATOM      5  C   UNL     1       4.142   2.288  19.153  0.00  0.00    +0.000 C 
ATOM      6  O   UNL     1       4.991   2.443  20.020  0.00  0.00    +0.000 OA
BRANCH   5   7
ATOM      7  O   UNL     1       4.104   1.180  18.367  0.00  0.00    +0.000 OA
ATOM      8  H   UNL     1       4.663   0.490  18.798  0.00  0.00    +0.000 HD
ENDBRANCH   5   7
ENDBRANCH   4   5
BRANCH   4   9
ATOM      9  O   UNL     1       1.906   2.376  18.421  0.00  0.00    +0.000 OA
ATOM     10  H   UNL     1       1.194   2.488  19.083  0.00  0.00    +0.000 HD
ENDBRANCH   4   9
BRANCH   4  11
ATOM     11  C   UNL     1       2.582   4.054  20.066  0.00  0.00    +0.000 C 
BRANCH  11  13
ATOM     12  O   UNL     1       2.162   2.991  22.194  0.00  0.00    +0.000 OA
ATOM     13  C   UNL     1       1.767   3.289  21.078  0.00  0.00    +0.000 C 
BRANCH  13  14
ATOM     14  O   UNL     1       0.509   3.041  20.686  0.00  0.00    +0.000 OA
ATOM     15  H   UNL     1       0.551   2.261  20.087  0.00  0.00    +0.000 HD
ENDBRANCH  13  14
ENDBRANCH  11  13
ENDBRANCH   4  11
ENDBRANCH   3   4
ENDBRANCH   2   3
ENDBRANCH   1   2
BRANCH   1  16
ATOM     16  C   UNL     1       6.367   5.015  17.684  0.00  0.00    +0.000 C 
BRANCH  16  17
ATOM     17  C   UNL     1       7.711   5.664  18.001  0.00  0.00    +0.000 C 
BRANCH  17  18
ATOM     18  C   UNL     1       7.491   7.106  18.455  0.00  0.00    +0.000 C 
BRANCH  18  19
ATOM     19  C   UNL     1       7.985   8.114  17.421  0.00  0.00    +0.000 C 
BRANCH  19  20
ATOM     20  C   UNL     1       8.170   9.489  18.073  0.00  0.00    +0.000 C 
BRANCH  20  21
ATOM     21  C   UNL     1       9.268   9.466  19.137  0.00  0.00    +0.000 C 
BRANCH  21  22
ATOM     22  C   UNL     1       9.535  10.831  19.724  0.00  0.00    +0.000 A 
ATOM     23  C   UNL     1       9.047  11.110  21.012  0.00  0.00    +0.000 A 
ATOM     24  C   UNL     1       9.302  12.330  21.630  0.00  0.00    +0.000 A 
ATOM     25  C   UNL     1      10.050  13.299  20.968  0.00  0.00    +0.000 A 
ATOM     26 CL   UNL     1      10.385  14.797  21.745  0.00  0.00    +0.000 Cl
ATOM     27  C   UNL     1      10.529  13.060  19.683  0.00  0.00    +0.000 A 
ATOM     28  C   UNL     1      10.272  11.840  19.058  0.00  0.00    +0.000 A 
ATOM     29 CL   UNL     1      10.877  11.613  17.457  0.00  0.00    +0.000 Cl
ENDBRANCH  21  22
ENDBRANCH  20  21
ENDBRANCH  19  20
ENDBRANCH  18  19
ENDBRANCH  17  18
ENDBRANCH  16  17
ENDBRANCH   1  16
TORSDOF 16
ENDMDL
MODEL 4
REMARK VINA RESULT:      -6.0      1.213      2.672
REMARK  Name = 
REMARK  16 active torsions:
REMARK  status: ('A' for Active; 'I' for Inactive)
REMARK    1  A    between atoms: C_2  and  O_3
REMARK    2  A    between atoms: C_2  and  C_4
REMARK    3  A    between atoms: C_4  and  C_5
REMARK    4  A    between atoms: C_5  and  O_6
REMARK    5  A    between atoms: C_5  and  C_7
REMARK    6  A    between atoms: C_5  and  C_24
REMARK    7  A    between atoms: C_7  and  S_8
REMARK    8  A    between atoms: S_8  and  C_9
REMARK    9  A    between atoms: C_9  and  C_10
REMARK   10  A    between atoms: C_10  and  C_11
REMARK   11  A    between atoms: C_11  and  C_12
REMARK   12  A    between atoms: C_12  and  C_13
REMARK   13  A    between atoms: C_13  and  C_14
REMARK   14  A    between atoms: C_14  and  C_15
REMARK   15  A    between atoms: C_15  and  C_16
REMARK   16  A    between atoms: C_24  and  O_26
REMARK                            x       y       z     vdW  Elec       q    Type
REMARK                         _______ _______ _______ _____ _____    ______ ____
ROOT
ATOM      1  C   UNL     1       3.151   3.656  16.691  0.00  0.00    +0.000 C 
ENDROOT
BRANCH   1   2
ATOM      2  S   UNL     1       4.271   4.922  17.362  0.00  0.00    +0.000 S 
BRANCH   2   3
ATOM      3  C   UNL     1       5.815   3.952  17.473  0.00  0.00    +0.000 C 
BRANCH   3   4
ATOM      4  C   UNL     1       6.985   4.728  16.829  0.00  0.00    +0.000 C 
BRANCH   4   5
ATOM      5  C   UNL     1       6.936   4.559  15.297  0.00  0.00    +0.000 C 
ATOM      6  O   UNL     1       6.260   3.747  14.681  0.00  0.00    +0.000 OA
BRANCH   5   7
ATOM      7  O   UNL     1       7.747   5.450  14.668  0.00  0.00    +0.000 OA
ATOM      8  H   UNL     1       8.678   5.223  14.905  0.00  0.00    +0.000 HD
ENDBRANCH   5   7
ENDBRANCH   4   5
BRANCH   4   9
ATOM      9  O   UNL     1       8.223   4.040  17.198  0.00  0.00    +0.000 OA
ATOM     10  H   UNL     1       8.061   3.596  18.055  0.00  0.00    +0.000 HD
ENDBRANCH   4   9
BRANCH   4  11
ATOM     11  C   UNL     1       7.110   6.217  17.196  0.00  0.00    +0.000 C 
BRANCH  11  13
ATOM     12  O   UNL     1       8.422   7.567  18.706  0.00  0.00    +0.000 OA
ATOM     13  C   UNL     1       7.844   6.517  18.477  0.00  0.00    +0.000 C 
BRANCH  13  14
ATOM     14  O   UNL     1       7.728   5.558  19.407  0.00  0.00    +0.000 OA
ATOM     15  H   UNL     1       7.702   6.015  20.278  0.00  0.00    +0.000 HD
ENDBRANCH  13  14
ENDBRANCH  11  13
ENDBRANCH   4  11
ENDBRANCH   3   4
ENDBRANCH   2   3
ENDBRANCH   1   2
BRANCH   1  16
ATOM     16  C   UNL     1       2.922   2.645  17.809  0.00  0.00    +0.000 C 
BRANCH  16  17
ATOM     17  C   UNL     1       2.731   3.319  19.165  0.00  0.00    +0.000 C 
BRANCH  17  18
ATOM     18  C   UNL     1       1.349   3.967  19.226  0.00  0.00    +0.000 C 
BRANCH  18  19
ATOM     19  C   UNL     1       1.100   4.659  20.563  0.00  0.00    +0.000 C 
BRANCH  19  20
ATOM     20  C   UNL     1       2.149   5.753  20.792  0.00  0.00    +0.000 C 
BRANCH  20  21
ATOM     21  C   UNL     1       2.104   6.817  19.695  0.00  0.00    +0.000 C 
BRANCH  21  22
ATOM     22  C   UNL     1       1.497   8.115  20.170  0.00  0.00    +0.000 A 
ATOM     23  C   UNL     1       1.102   8.213  21.515  0.00  0.00    +0.000 A 
ATOM     24  C   UNL     1       0.583   9.396  22.029  0.00  0.00    +0.000 A 
ATOM     25  C   UNL     1       0.445  10.508  21.203  0.00  0.00    +0.000 A 
ATOM     26 CL   UNL     1      -0.174  11.979  21.848  0.00  0.00    +0.000 Cl
ATOM     27  C   UNL     1       0.808  10.435  19.862  0.00  0.00    +0.000 A 
ATOM     28  C   UNL     1       1.325   9.249  19.341  0.00  0.00    +0.000 A 
ATOM     29 CL   UNL     1       1.737   9.219  17.665  0.00  0.00    +0.000 Cl
ENDBRANCH  21  22
ENDBRANCH  20  21
ENDBRANCH  19  20
ENDBRANCH  18  19
ENDBRANCH  17  18
ENDBRANCH  16  17
ENDBRANCH   1  16
TORSDOF 16
ENDMDL
MODEL 5
REMARK VINA RESULT:      -6.0      2.111      3.427
REMARK  Name = 
REMARK  16 active torsions:
REMARK  status: ('A' for Active; 'I' for Inactive)
REMARK    1  A    between atoms: C_2  and  O_3
REMARK    2  A    between atoms: C_2  and  C_4
REMARK    3  A    between atoms: C_4  and  C_5
REMARK    4  A    between atoms: C_5  and  O_6
REMARK    5  A    between atoms: C_5  and  C_7
REMARK    6  A    between atoms: C_5  and  C_24
REMARK    7  A    between atoms: C_7  and  S_8
REMARK    8  A    between atoms: S_8  and  C_9
REMARK    9  A    between atoms: C_9  and  C_10
REMARK   10  A    between atoms: C_10  and  C_11
REMARK   11  A    between atoms: C_11  and  C_12
REMARK   12  A    between atoms: C_12  and  C_13
REMARK   13  A    between atoms: C_13  and  C_14
REMARK   14  A    between atoms: C_14  and  C_15
REMARK   15  A    between atoms: C_15  and  C_16
REMARK   16  A    between atoms: C_24  and  O_26
REMARK                            x       y       z     vdW  Elec       q    Type
REMARK                         _______ _______ _______ _____ _____    ______ ____
ROOT
ATOM      1  C   UNL     1       2.927   5.337  17.966  0.00  0.00    +0.000 C 
ENDROOT
BRANCH   1   2
ATOM      2  S   UNL     1       4.227   4.225  18.583  0.00  0.00    +0.000 S 
BRANCH   2   3
ATOM      3  C   UNL     1       5.435   5.455  19.188  0.00  0.00    +0.000 C 
BRANCH   3   4
ATOM      4  C   UNL     1       6.545   5.680  18.138  0.00  0.00    +0.000 C 
BRANCH   4   5
ATOM      5  C   UNL     1       7.802   6.248  18.828  0.00  0.00    +0.000 C 
ATOM      6  O   UNL     1       8.328   7.328  18.595  0.00  0.00    +0.000 OA
BRANCH   5   7
ATOM      7  O   UNL     1       8.284   5.397  19.771  0.00  0.00    +0.000 OA
ATOM      8  H   UNL     1       7.664   4.631  19.826  0.00  0.00    +0.000 HD
ENDBRANCH   5   7
ENDBRANCH   4   5
BRANCH   4   9
ATOM      9  O   UNL     1       6.115   6.782  17.275  0.00  0.00    +0.000 OA
ATOM     10  H   UNL     1       6.420   7.612  17.695  0.00  0.00    +0.000 HD
ENDBRANCH   4   9
BRANCH   4  11
ATOM     11  C   UNL     1       6.919   4.473  17.261  0.00  0.00    +0.000 C 
BRANCH  11  13
ATOM     12  O   UNL     1       7.643   5.618  15.263  0.00  0.00    +0.000 OA
ATOM     13  C   UNL     1       6.978   4.734  15.778  0.00  0.00    +0.000 C 
BRANCH  13  14
ATOM     14  O   UNL     1       6.307   3.837  15.041  0.00  0.00    +0.000 OA
ATOM     15  H   UNL     1       6.980   3.334  14.529  0.00  0.00    +0.000 HD
ENDBRANCH  13  14
ENDBRANCH  11  13
ENDBRANCH   4  11
ENDBRANCH   3   4
ENDBRANCH   2   3
ENDBRANCH   1   2
BRANCH   1  16
ATOM     16  C   UNL     1       2.152   5.816  19.188  0.00  0.00    +0.000 C 
BRANCH  16  17
ATOM     17  C   UNL     1       2.368   7.302  19.461  0.00  0.00    +0.000 C 
BRANCH  17  18
ATOM     18  C   UNL     1       2.617   8.035  18.144  0.00  0.00    +0.000 C 
BRANCH  18  19
ATOM     19  C   UNL     1       1.566   9.110  17.881  0.00  0.00    +0.000 C 
BRANCH  19  20
ATOM     20  C   UNL     1       0.728   9.347  19.142  0.00  0.00    +0.000 C 
BRANCH  20  21
ATOM     21  C   UNL     1       1.021  10.711  19.768  0.00  0.00    +0.000 C 
BRANCH  21  22
ATOM     22  C   UNL     1       0.005  11.099  20.815  0.00  0.00    +0.000 A 
ATOM     23  C   UNL     1      -0.932  12.098  20.496  0.00  0.00    +0.000 A 
ATOM     24  C   UNL     1      -1.925  12.466  21.397  0.00  0.00    +0.000 A 
ATOM     25  C   UNL     1      -1.999  11.845  22.640  0.00  0.00    +0.000 A 
ATOM     26 CL   UNL     1      -3.245  12.285  23.742  0.00  0.00    +0.000 Cl
ATOM     27  C   UNL     1      -1.073  10.867  22.991  0.00  0.00    +0.000 A 
ATOM     28  C   UNL     1      -0.072  10.497  22.093  0.00  0.00    +0.000 A 
ATOM     29 CL   UNL     1       1.057   9.294  22.598  0.00  0.00    +0.000 Cl
ENDBRANCH  21  22
ENDBRANCH  20  21
ENDBRANCH  19  20
ENDBRANCH  18  19
ENDBRANCH  17  18
ENDBRANCH  16  17
ENDBRANCH   1  16
TORSDOF 16
ENDMDL
MODEL 6
REMARK VINA RESULT:      -6.0      2.037      3.330
REMARK  Name = 
REMARK  16 active torsions:
REMARK  status: ('A' for Active; 'I' for Inactive)
REMARK    1  A    between atoms: C_2  and  O_3
REMARK    2  A    between atoms: C_2  and  C_4
REMARK    3  A    between atoms: C_4  and  C_5
REMARK    4  A    between atoms: C_5  and  O_6
REMARK    5  A    between atoms: C_5  and  C_7
REMARK    6  A    between atoms: C_5  and  C_24
REMARK    7  A    between atoms: C_7  and  S_8
REMARK    8  A    between atoms: S_8  and  C_9
REMARK    9  A    between atoms: C_9  and  C_10
REMARK   10  A    between atoms: C_10  and  C_11
REMARK   11  A    between atoms: C_11  and  C_12
REMARK   12  A    between atoms: C_12  and  C_13
REMARK   13  A    between atoms: C_13  and  C_14
REMARK   14  A    between atoms: C_14  and  C_15
REMARK   15  A    between atoms: C_15  and  C_16
REMARK   16  A    between atoms: C_24  and  O_26
REMARK                            x       y       z     vdW  Elec       q    Type
REMARK                         _______ _______ _______ _____ _____    ______ ____
ROOT
ATOM      1  C   UNL     1       2.536   5.098  18.130  0.00  0.00    +0.000 C 
ENDROOT
BRANCH   1   2
ATOM      2  S   UNL     1       4.013   4.444  17.294  0.00  0.00    +0.000 S 
BRANCH   2   3
ATOM      3  C   UNL     1       5.305   5.458  18.093  0.00  0.00    +0.000 C 
BRANCH   3   4
ATOM      4  C   UNL     1       6.418   5.806  17.080  0.00  0.00    +0.000 C 
BRANCH   4   5
ATOM      5  C   UNL     1       7.472   6.706  17.758  0.00  0.00    +0.000 C 
ATOM      6  O   UNL     1       8.037   6.482  18.820  0.00  0.00    +0.000 OA
BRANCH   5   7
ATOM      7  O   UNL     1       7.730   7.817  17.020  0.00  0.00    +0.000 OA
ATOM      8  H   UNL     1       6.971   8.437  17.139  0.00  0.00    +0.000 HD
ENDBRANCH   5   7
ENDBRANCH   4   5
BRANCH   4   9
ATOM      9  O   UNL     1       5.831   6.687  16.069  0.00  0.00    +0.000 OA
ATOM     10  H   UNL     1       6.522   6.853  15.397  0.00  0.00    +0.000 HD
ENDBRANCH   4   9
BRANCH   4  11
ATOM     11  C   UNL     1       7.104   4.622  16.376  0.00  0.00    +0.000 C 
BRANCH  11  13
ATOM     12  O   UNL     1       7.634   5.466  14.178  0.00  0.00    +0.000 OA
ATOM     13  C   UNL     1       7.061   4.641  14.870  0.00  0.00    +0.000 C 
BRANCH  13  14
ATOM     14  O   UNL     1       6.410   3.600  14.333  0.00  0.00    +0.000 OA
ATOM     15  H   UNL     1       6.064   3.905  13.463  0.00  0.00    +0.000 HD
ENDBRANCH  13  14
ENDBRANCH  11  13
ENDBRANCH   4  11
ENDBRANCH   3   4
ENDBRANCH   2   3
ENDBRANCH   1   2
BRANCH   1  16
ATOM     16  C   UNL     1       3.021   5.742  19.424  0.00  0.00    +0.000 C 
BRANCH  16  17
ATOM     17  C   UNL     1       2.097   5.440  20.600  0.00  0.00    +0.000 C 
BRANCH  17  18
ATOM     18  C   UNL     1       1.181   6.636  20.853  0.00  0.00    +0.000 C 
BRANCH  18  19
ATOM     19  C   UNL     1       1.762   7.931  20.291  0.00  0.00    +0.000 C 
BRANCH  19  20
ATOM     20  C   UNL     1       0.798   9.094  20.545  0.00  0.00    +0.000 C 
BRANCH  20  21
ATOM     21  C   UNL     1       0.918  10.174  19.468  0.00  0.00    +0.000 C 
BRANCH  21  22
ATOM     22  C   UNL     1      -0.418  10.556  18.879  0.00  0.00    +0.000 A 
ATOM     23  C   UNL     1      -0.826   9.927  17.689  0.00  0.00    +0.000 A 
ATOM     24  C   UNL     1      -2.067  10.197  17.122  0.00  0.00    +0.000 A 
ATOM     25  C   UNL     1      -2.924  11.107  17.732  0.00  0.00    +0.000 A 
ATOM     26 CL   UNL     1      -4.469  11.420  17.041  0.00  0.00    +0.000 Cl
ATOM     27  C   UNL     1      -2.540  11.761  18.898  0.00  0.00    +0.000 A 
ATOM     28  C   UNL     1      -1.295  11.497  19.469  0.00  0.00    +0.000 A 
ATOM     29 CL   UNL     1      -0.870  12.356  20.905  0.00  0.00    +0.000 Cl
ENDBRANCH  21  22
ENDBRANCH  20  21
ENDBRANCH  19  20
ENDBRANCH  18  19
ENDBRANCH  17  18
ENDBRANCH  16  17
ENDBRANCH   1  16
TORSDOF 16
ENDMDL
MODEL 7
REMARK VINA RESULT:      -6.0      5.358      7.971
REMARK  Name = 
REMARK  16 active torsions:
REMARK  status: ('A' for Active; 'I' for Inactive)
REMARK    1  A    between atoms: C_2  and  O_3
REMARK    2  A    between atoms: C_2  and  C_4
REMARK    3  A    between atoms: C_4  and  C_5
REMARK    4  A    between atoms: C_5  and  O_6
REMARK    5  A    between atoms: C_5  and  C_7
REMARK    6  A    between atoms: C_5  and  C_24
REMARK    7  A    between atoms: C_7  and  S_8
REMARK    8  A    between atoms: S_8  and  C_9
REMARK    9  A    between atoms: C_9  and  C_10
REMARK   10  A    between atoms: C_10  and  C_11
REMARK   11  A    between atoms: C_11  and  C_12
REMARK   12  A    between atoms: C_12  and  C_13
REMARK   13  A    between atoms: C_13  and  C_14
REMARK   14  A    between atoms: C_14  and  C_15
REMARK   15  A    between atoms: C_15  and  C_16
REMARK   16  A    between atoms: C_24  and  O_26
REMARK                            x       y       z     vdW  Elec       q    Type
REMARK                         _______ _______ _______ _____ _____    ______ ____
ROOT
ATOM      1  C   UNL     1       6.100   4.453  16.396  0.00  0.00    +0.000 C 
ENDROOT
BRANCH   1   2
ATOM      2  S   UNL     1       4.353   4.555  16.892  0.00  0.00    +0.000 S 
BRANCH   2   3
ATOM      3  C   UNL     1       4.101   2.857  17.516  0.00  0.00    +0.000 C 
BRANCH   3   4
ATOM      4  C   UNL     1       3.110   2.861  18.701  0.00  0.00    +0.000 C 
BRANCH   4   5
ATOM      5  C   UNL     1       3.886   2.704  20.024  0.00  0.00    +0.000 C 
ATOM      6  O   UNL     1       5.101   2.750  20.159  0.00  0.00    +0.000 OA
BRANCH   5   7
ATOM      7  O   UNL     1       3.048   2.511  21.077  0.00  0.00    +0.000 OA
ATOM      8  H   UNL     1       3.112   3.306  21.658  0.00  0.00    +0.000 HD
ENDBRANCH   5   7
ENDBRANCH   4   5
BRANCH   4   9
ATOM      9  O   UNL     1       2.331   1.624  18.625  0.00  0.00    +0.000 OA
ATOM     10  H   UNL     1       2.440   1.163  19.481  0.00  0.00    +0.000 HD
ENDBRANCH   4   9
BRANCH   4  11
ATOM     11  C   UNL     1       2.145   4.056  18.789  0.00  0.00    +0.000 C 
BRANCH  11  13
ATOM     12  O   UNL     1       1.129   4.930  20.797  0.00  0.00    +0.000 OA
ATOM     13  C   UNL     1       1.194   4.046  19.958  0.00  0.00    +0.000 C 
BRANCH  13  14
ATOM     14  O   UNL     1       0.337   3.015  19.951  0.00  0.00    +0.000 OA
ATOM     15  H   UNL     1       0.882   2.197  19.993  0.00  0.00    +0.000 HD
ENDBRANCH  13  14
ENDBRANCH  11  13
ENDBRANCH   4  11
ENDBRANCH   3   4
ENDBRANCH   2   3
ENDBRANCH   1   2
BRANCH   1  16
ATOM     16  C   UNL     1       6.737   5.782  16.784  0.00  0.00    +0.000 C 
BRANCH  16  17
ATOM     17  C   UNL     1       7.281   5.766  18.210  0.00  0.00    +0.000 C 
BRANCH  17  18
ATOM     18  C   UNL     1       8.117   7.022  18.455  0.00  0.00    +0.000 C 
BRANCH  18  19
ATOM     19  C   UNL     1       7.517   8.250  17.776  0.00  0.00    +0.000 C 
BRANCH  19  20
ATOM     20  C   UNL     1       8.552   9.378  17.721  0.00  0.00    +0.000 C 
BRANCH  20  21
ATOM     21  C   UNL     1       8.933   9.865  19.120  0.00  0.00    +0.000 C 
BRANCH  21  22
ATOM     22  C   UNL     1       9.802  11.098  19.089  0.00  0.00    +0.000 A 
ATOM     23  C   UNL     1      10.487  11.401  17.899  0.00  0.00    +0.000 A 
ATOM     24  C   UNL     1      11.264  12.549  17.788  0.00  0.00    +0.000 A 
ATOM     25  C   UNL     1      11.375  13.417  18.870  0.00  0.00    +0.000 A 
ATOM     26 CL   UNL     1      12.317  14.850  18.721  0.00  0.00    +0.000 Cl
ATOM     27  C   UNL     1      10.726  13.134  20.067  0.00  0.00    +0.000 A 
ATOM     28  C   UNL     1       9.949  11.981  20.185  0.00  0.00    +0.000 A 
ATOM     29 CL   UNL     1       9.186  11.677  21.703  0.00  0.00    +0.000 Cl
ENDBRANCH  21  22
ENDBRANCH  20  21
ENDBRANCH  19  20
ENDBRANCH  18  19
ENDBRANCH  17  18
ENDBRANCH  16  17
ENDBRANCH   1  16
TORSDOF 16
ENDMDL
MODEL 8
REMARK VINA RESULT:      -5.9      6.024      8.490
REMARK  Name = 
REMARK  16 active torsions:
REMARK  status: ('A' for Active; 'I' for Inactive)
REMARK    1  A    between atoms: C_2  and  O_3
REMARK    2  A    between atoms: C_2  and  C_4
REMARK    3  A    between atoms: C_4  and  C_5
REMARK    4  A    between atoms: C_5  and  O_6
REMARK    5  A    between atoms: C_5  and  C_7
REMARK    6  A    between atoms: C_5  and  C_24
REMARK    7  A    between atoms: C_7  and  S_8
REMARK    8  A    between atoms: S_8  and  C_9
REMARK    9  A    between atoms: C_9  and  C_10
REMARK   10  A    between atoms: C_10  and  C_11
REMARK   11  A    between atoms: C_11  and  C_12
REMARK   12  A    between atoms: C_12  and  C_13
REMARK   13  A    between atoms: C_13  and  C_14
REMARK   14  A    between atoms: C_14  and  C_15
REMARK   15  A    between atoms: C_15  and  C_16
REMARK   16  A    between atoms: C_24  and  O_26
REMARK                            x       y       z     vdW  Elec       q    Type
REMARK                         _______ _______ _______ _____ _____    ______ ____
ROOT
ATOM      1  C   UNL     1       5.720   5.884  17.086  0.00  0.00    +0.000 C 
ENDROOT
BRANCH   1   2
ATOM      2  S   UNL     1       5.580   4.139  17.578  0.00  0.00    +0.000 S 
BRANCH   2   3
ATOM      3  C   UNL     1       4.585   4.317  19.099  0.00  0.00    +0.000 C 
BRANCH   3   4
ATOM      4  C   UNL     1       3.687   3.077  19.303  0.00  0.00    +0.000 C 
BRANCH   4   5
ATOM      5  C   UNL     1       4.255   2.210  20.445  0.00  0.00    +0.000 C 
ATOM      6  O   UNL     1       3.820   2.146  21.587  0.00  0.00    +0.000 OA
BRANCH   5   7
ATOM      7  O   UNL     1       5.327   1.482  20.037  0.00  0.00    +0.000 OA
ATOM      8  H   UNL     1       6.120   2.068  20.086  0.00  0.00    +0.000 HD
ENDBRANCH   5   7
ENDBRANCH   4   5
BRANCH   4   9
ATOM      9  O   UNL     1       3.850   2.220  18.126  0.00  0.00    +0.000 OA
ATOM     10  H   UNL     1       4.733   1.804  18.194  0.00  0.00    +0.000 HD
ENDBRANCH   4   9
BRANCH   4  11
ATOM     11  C   UNL     1       2.188   3.339  19.528  0.00  0.00    +0.000 C 
BRANCH  11  13
ATOM     12  O   UNL     1       0.306   2.291  18.440  0.00  0.00    +0.000 OA
ATOM     13  C   UNL     1       1.284   3.017  18.367  0.00  0.00    +0.000 C 
BRANCH  13  14
ATOM     14  O   UNL     1       1.585   3.683  17.243  0.00  0.00    +0.000 OA
ATOM     15  H   UNL     1       0.821   4.273  17.054  0.00  0.00    +0.000 HD
ENDBRANCH  13  14
ENDBRANCH  11  13
ENDBRANCH   4  11
ENDBRANCH   3   4
ENDBRANCH   2   3
ENDBRANCH   1   2
BRANCH   1  16
ATOM     16  C   UNL     1       6.449   6.596  18.219  0.00  0.00    +0.000 C 
BRANCH  16  17
ATOM     17  C   UNL     1       7.804   7.142  17.779  0.00  0.00    +0.000 C 
BRANCH  17  18
ATOM     18  C   UNL     1       7.729   8.663  17.656  0.00  0.00    +0.000 C 
BRANCH  18  19
ATOM     19  C   UNL     1       8.682   9.363  18.621  0.00  0.00    +0.000 C 
BRANCH  19  20
ATOM     20  C   UNL     1       8.921  10.808  18.169  0.00  0.00    +0.000 C 
BRANCH  20  21
ATOM     21  C   UNL     1      10.393  11.060  17.839  0.00  0.00    +0.000 C 
BRANCH  21  22
ATOM     22  C   UNL     1      10.808  12.489  18.093  0.00  0.00    +0.000 A 
ATOM     23  C   UNL     1      11.048  13.320  16.984  0.00  0.00    +0.000 A 
ATOM     24  C   UNL     1      11.384  14.660  17.148  0.00  0.00    +0.000 A 
ATOM     25  C   UNL     1      11.490  15.195  18.428  0.00  0.00    +0.000 A 
ATOM     26 CL   UNL     1      11.881  16.859  18.628  0.00  0.00    +0.000 Cl
ATOM     27  C   UNL     1      11.278  14.393  19.545  0.00  0.00    +0.000 A 
ATOM     28  C   UNL     1      10.946  13.047  19.386  0.00  0.00    +0.000 A 
ATOM     29 CL   UNL     1      10.716  12.101  20.811  0.00  0.00    +0.000 Cl
ENDBRANCH  21  22
ENDBRANCH  20  21
ENDBRANCH  19  20
ENDBRANCH  18  19
ENDBRANCH  17  18
ENDBRANCH  16  17
ENDBRANCH   1  16
TORSDOF 16
ENDMDL
MODEL 9
REMARK VINA RESULT:      -5.9      1.494      2.708
REMARK  Name = 
REMARK  16 active torsions:
REMARK  status: ('A' for Active; 'I' for Inactive)
REMARK    1  A    between atoms: C_2  and  O_3
REMARK    2  A    between atoms: C_2  and  C_4
REMARK    3  A    between atoms: C_4  and  C_5
REMARK    4  A    between atoms: C_5  and  O_6
REMARK    5  A    between atoms: C_5  and  C_7
REMARK    6  A    between atoms: C_5  and  C_24
REMARK    7  A    between atoms: C_7  and  S_8
REMARK    8  A    between atoms: S_8  and  C_9
REMARK    9  A    between atoms: C_9  and  C_10
REMARK   10  A    between atoms: C_10  and  C_11
REMARK   11  A    between atoms: C_11  and  C_12
REMARK   12  A    between atoms: C_12  and  C_13
REMARK   13  A    between atoms: C_13  and  C_14
REMARK   14  A    between atoms: C_14  and  C_15
REMARK   15  A    between atoms: C_15  and  C_16
REMARK   16  A    between atoms: C_24  and  O_26
REMARK                            x       y       z     vdW  Elec       q    Type
REMARK                         _______ _______ _______ _____ _____    ______ ____
ROOT
ATOM      1  C   UNL     1       4.029   3.035  17.549  0.00  0.00    +0.000 C 
ENDROOT
BRANCH   1   2
ATOM      2  S   UNL     1       4.887   3.798  16.138  0.00  0.00    +0.000 S 
BRANCH   2   3
ATOM      3  C   UNL     1       6.472   4.238  16.931  0.00  0.00    +0.000 C 
BRANCH   3   4
ATOM      4  C   UNL     1       6.706   5.763  16.856  0.00  0.00    +0.000 C 
BRANCH   4   5
ATOM      5  C   UNL     1       5.365   6.480  16.599  0.00  0.00    +0.000 C 
ATOM      6  O   UNL     1       4.518   6.748  17.439  0.00  0.00    +0.000 OA
BRANCH   5   7
ATOM      7  O   UNL     1       5.215   6.808  15.289  0.00  0.00    +0.000 OA
ATOM      8  H   UNL     1       5.174   7.793  15.232  0.00  0.00    +0.000 HD
ENDBRANCH   5   7
ENDBRANCH   4   5
BRANCH   4   9
ATOM      9  O   UNL     1       7.464   6.030  15.632  0.00  0.00    +0.000 OA
ATOM     10  H   UNL     1       8.367   5.681  15.771  0.00  0.00    +0.000 HD
ENDBRANCH   4   9
BRANCH   4  11
ATOM     11  C   UNL     1       7.435   6.409  18.047  0.00  0.00    +0.000 C 
BRANCH  11  13
ATOM     12  O   UNL     1       8.343   5.316  19.999  0.00  0.00    +0.000 OA
ATOM     13  C   UNL     1       7.366   5.650  19.347  0.00  0.00    +0.000 C 
BRANCH  13  14
ATOM     14  O   UNL     1       6.118   5.450  19.794  0.00  0.00    +0.000 OA
ATOM     15  H   UNL     1       5.568   6.178  19.425  0.00  0.00    +0.000 HD
ENDBRANCH  13  14
ENDBRANCH  11  13
ENDBRANCH   4  11
ENDBRANCH   3   4
ENDBRANCH   2   3
ENDBRANCH   1   2
BRANCH   1  16
ATOM     16  C   UNL     1       2.639   3.659  17.598  0.00  0.00    +0.000 C 
BRANCH  16  17
ATOM     17  C   UNL     1       1.687   2.875  18.497  0.00  0.00    +0.000 C 
BRANCH  17  18
ATOM     18  C   UNL     1       1.153   3.788  19.599  0.00  0.00    +0.000 C 
BRANCH  18  19
ATOM     19  C   UNL     1       2.143   4.893  19.957  0.00  0.00    +0.000 C 
BRANCH  19  20
ATOM     20  C   UNL     1       1.405   6.072  20.601  0.00  0.00    +0.000 C 
BRANCH  20  21
ATOM     21  C   UNL     1       2.074   7.406  20.269  0.00  0.00    +0.000 C 
BRANCH  21  22
ATOM     22  C   UNL     1       1.211   8.593  20.623  0.00  0.00    +0.000 A 
ATOM     23  C   UNL     1       0.891   8.804  21.975  0.00  0.00    +0.000 A 
ATOM     24  C   UNL     1       0.143   9.906  22.374  0.00  0.00    +0.000 A 
ATOM     25  C   UNL     1      -0.307  10.819  21.425  0.00  0.00    +0.000 A 
ATOM     26 CL   UNL     1      -1.212  12.195  21.925  0.00  0.00    +0.000 Cl
ATOM     27  C   UNL     1      -0.024  10.625  20.076  0.00  0.00    +0.000 A 
ATOM     28  C   UNL     1       0.722   9.519  19.670  0.00  0.00    +0.000 A 
ATOM     29 CL   UNL     1       1.021   9.326  17.982  0.00  0.00    +0.000 Cl
ENDBRANCH  21  22
ENDBRANCH  20  21
ENDBRANCH  19  20
ENDBRANCH  18  19
ENDBRANCH  17  18
ENDBRANCH  16  17
ENDBRANCH   1  16
TORSDOF 16
ENDMDL
