MODEL 1
REMARK VINA RESULT:      -7.9      0.000      0.000
REMARK  Name = 
REMARK  7 active torsions:
REMARK  status: ('A' for Active; 'I' for Inactive)
REMARK    1  A    between atoms: C_1  and  C_2
REMARK    2  A    between atoms: C_7  and  N_8
REMARK    3  A    between atoms: C_14  and  C_15
REMARK    4  A    between atoms: C_15  and  S_16
REMARK    5  A    between atoms: S_16  and  C_17
REMARK    6  A    between atoms: C_20  and  C_21
REMARK    7  A    between atoms: N_22  and  C_23
REMARK                            x       y       z     vdW  Elec       q    Type
REMARK                         _______ _______ _______ _____ _____    ______ ____
ROOT
ATOM      1  N   UNL     1       2.658   7.113  20.395  0.00  0.00    +0.000 N 
ATOM      2  C   UNL     1       2.554   5.746  20.110  0.00  0.00    +0.000 A 
ATOM      3  N   UNL     1       1.364   5.163  20.237  0.00  0.00    +0.000 NA
ATOM      4  C   UNL     1       1.292   3.890  19.907  0.00  0.00    +0.000 A 
ATOM      5  N   UNL     1       0.046   3.303  19.962  0.00  0.00    +0.000 N 
ATOM      6  N   UNL     1       2.316   3.156  19.520  0.00  0.00    +0.000 NA
ATOM      7  C   UNL     1       3.478   3.809  19.406  0.00  0.00    +0.000 A 
ATOM      8  N   UNL     1       3.649   5.105  19.706  0.00  0.00    +0.000 NA
ATOM      9  H   UNL     1       3.589   7.441  20.172  0.00  0.00    +0.000 HD
ATOM     10  H   UNL     1      -0.555   3.824  20.587  0.00  0.00    +0.000 HD
ATOM     11  H   UNL     1       0.120   2.307  20.097  0.00  0.00    +0.000 HD
ENDROOT
BRANCH   1  18
ATOM     12  C   UNL     1       2.463   8.420  17.787  0.00  0.00    +0.000 C 
ATOM     13  C   UNL     1       1.528   8.724  18.925  0.00  0.00    +0.000 A 
ATOM     14  C   UNL     1       0.558   9.730  18.758  0.00  0.00    +0.000 A 
ATOM     15  C   UNL     1      -0.323  10.056  19.790  0.00  0.00    +0.000 A 
ATOM     16  C   UNL     1      -0.260   9.368  20.993  0.00  0.00    +0.000 A 
ATOM     17  C   UNL     1       0.709   8.383  21.175  0.00  0.00    +0.000 A 
ATOM     18  C   UNL     1       1.640   8.073  20.170  0.00  0.00    +0.000 A 
ENDBRANCH   1  18
BRANCH   7  19
ATOM     19  C   UNL     1       4.644   3.046  18.808  0.00  0.00    +0.000 C 
BRANCH  19  20
ATOM     20  S   UNL     1       5.107   3.768  17.197  0.00  0.00    +0.000 S 
BRANCH  20  21
ATOM     21  C   UNL     1       6.320   4.913  17.629  0.00  0.00    +0.000 A 
ATOM     22  N   UNL     1       7.333   4.744  18.445  0.00  0.00    +0.000 NA
ATOM     23  N   UNL     1       7.997   5.950  18.534  0.00  0.00    +0.000 NA
ATOM     24  C   UNL     1       7.370   6.827  17.773  0.00  0.00    +0.000 A 
ATOM     25  C   UNL     1       7.702   8.263  17.615  0.00  0.00    +0.000 C 
ATOM     26  N   UNL     1       6.321   6.195  17.151  0.00  0.00    +0.000 N 
ATOM     27  C   UNL     1       5.407   6.761  16.192  0.00  0.00    +0.000 C 
ENDBRANCH  20  21
ENDBRANCH  19  20
ENDBRANCH   7  19
TORSDOF 4
ENDMDL
MODEL 2
REMARK VINA RESULT:      -7.8      3.270      6.067
REMARK  Name = 
REMARK  7 active torsions:
REMARK  status: ('A' for Active; 'I' for Inactive)
REMARK    1  A    between atoms: C_1  and  C_2
REMARK    2  A    between atoms: C_7  and  N_8
REMARK    3  A    between atoms: C_14  and  C_15
REMARK    4  A    between atoms: C_15  and  S_16
REMARK    5  A    between atoms: S_16  and  C_17
REMARK    6  A    between atoms: C_20  and  C_21
REMARK    7  A    between atoms: N_22  and  C_23
REMARK                            x       y       z     vdW  Elec       q    Type
REMARK                         _______ _______ _______ _____ _____    ______ ____
ROOT
ATOM      1  N   UNL     1       5.296   4.122  19.173  0.00  0.00    +0.000 N 
ATOM      2  C   UNL     1       6.066   4.936  18.331  0.00  0.00    +0.000 A 
ATOM      3  N   UNL     1       5.918   4.801  17.015  0.00  0.00    +0.000 NA
ATOM      4  C   UNL     1       6.616   5.620  16.257  0.00  0.00    +0.000 A 
ATOM      5  N   UNL     1       6.407   5.539  14.897  0.00  0.00    +0.000 N 
ATOM      6  N   UNL     1       7.478   6.510  16.708  0.00  0.00    +0.000 NA
ATOM      7  C   UNL     1       7.568   6.596  18.039  0.00  0.00    +0.000 A 
ATOM      8  N   UNL     1       6.890   5.816  18.894  0.00  0.00    +0.000 NA
ATOM      9  H   UNL     1       5.442   4.390  20.137  0.00  0.00    +0.000 HD
ATOM     10  H   UNL     1       6.030   4.631  14.659  0.00  0.00    +0.000 HD
ATOM     11  H   UNL     1       7.212   5.867  14.386  0.00  0.00    +0.000 HD
ENDROOT
BRANCH   1  18
ATOM     12  C   UNL     1       3.042   5.952  19.514  0.00  0.00    +0.000 C 
ATOM     13  C   UNL     1       2.877   4.529  19.056  0.00  0.00    +0.000 A 
ATOM     14  C   UNL     1       1.578   4.028  18.847  0.00  0.00    +0.000 A 
ATOM     15  C   UNL     1       1.375   2.711  18.434  0.00  0.00    +0.000 A 
ATOM     16  C   UNL     1       2.465   1.884  18.205  0.00  0.00    +0.000 A 
ATOM     17  C   UNL     1       3.755   2.365  18.428  0.00  0.00    +0.000 A 
ATOM     18  C   UNL     1       3.982   3.670  18.893  0.00  0.00    +0.000 A 
ENDBRANCH   1  18
BRANCH   7  19
ATOM     19  C   UNL     1       8.421   7.715  18.604  0.00  0.00    +0.000 C 
BRANCH  19  20
ATOM     20  S   UNL     1       8.028   9.289  17.767  0.00  0.00    +0.000 S 
BRANCH  20  21
ATOM     21  C   UNL     1       8.916  10.442  18.689  0.00  0.00    +0.000 A 
ATOM     22  N   UNL     1       9.663  10.225  19.746  0.00  0.00    +0.000 NA
ATOM     23  N   UNL     1      10.121  11.450  20.186  0.00  0.00    +0.000 NA
ATOM     24  C   UNL     1       9.637  12.385  19.389  0.00  0.00    +0.000 A 
ATOM     25  C   UNL     1       9.822  13.849  19.526  0.00  0.00    +0.000 C 
ATOM     26  N   UNL     1       8.898  11.780  18.403  0.00  0.00    +0.000 N 
ATOM     27  C   UNL     1       8.236  12.418  17.294  0.00  0.00    +0.000 C 
ENDBRANCH  20  21
ENDBRANCH  19  20
ENDBRANCH   7  19
TORSDOF 4
ENDMDL
MODEL 3
REMARK VINA RESULT:      -7.5      1.227      1.447
REMARK  Name = 
REMARK  7 active torsions:
REMARK  status: ('A' for Active; 'I' for Inactive)
REMARK    1  A    between atoms: C_1  and  C_2
REMARK    2  A    between atoms: C_7  and  N_8
REMARK    3  A    between atoms: C_14  and  C_15
REMARK    4  A    between atoms: C_15  and  S_16
REMARK    5  A    between atoms: S_16  and  C_17
REMARK    6  A    between atoms: C_20  and  C_21
REMARK    7  A    between atoms: N_22  and  C_23
REMARK                            x       y       z     vdW  Elec       q    Type
REMARK                         _______ _______ _______ _____ _____    ______ ____
ROOT
ATOM      1  N   UNL     1       2.409   7.869  19.948  0.00  0.00    +0.000 N 
ATOM      2  C   UNL     1       2.327   6.509  19.621  0.00  0.00    +0.000 A 
ATOM      3  N   UNL     1       1.613   5.711  20.410  0.00  0.00    +0.000 NA
ATOM      4  C   UNL     1       1.513   4.451  20.041  0.00  0.00    +0.000 A 
ATOM      5  N   UNL     1       0.709   3.638  20.812  0.00  0.00    +0.000 N 
ATOM      6  N   UNL     1       2.110   3.927  18.988  0.00  0.00    +0.000 NA
ATOM      7  C   UNL     1       2.803   4.790  18.237  0.00  0.00    +0.000 A 
ATOM      8  N   UNL     1       2.953   6.091  18.523  0.00  0.00    +0.000 NA
ATOM      9  H   UNL     1       2.903   8.368  19.222  0.00  0.00    +0.000 HD
ATOM     10  H   UNL     1       0.610   4.030  21.739  0.00  0.00    +0.000 HD
ATOM     11  H   UNL     1       0.987   2.672  20.732  0.00  0.00    +0.000 HD
ENDROOT
BRANCH   1  18
ATOM     12  C   UNL     1       0.771   9.671  18.332  0.00  0.00    +0.000 C 
ATOM     13  C   UNL     1       0.581   9.504  19.814  0.00  0.00    +0.000 A 
ATOM     14  C   UNL     1      -0.379  10.296  20.471  0.00  0.00    +0.000 A 
ATOM     15  C   UNL     1      -0.582  10.185  21.846  0.00  0.00    +0.000 A 
ATOM     16  C   UNL     1       0.155   9.267  22.581  0.00  0.00    +0.000 A 
ATOM     17  C   UNL     1       1.122   8.490  21.943  0.00  0.00    +0.000 A 
ATOM     18  C   UNL     1       1.380   8.621  20.569  0.00  0.00    +0.000 A 
ENDBRANCH   1  18
BRANCH   7  19
ATOM     19  C   UNL     1       3.369   4.267  16.930  0.00  0.00    +0.000 C 
BRANCH  19  20
ATOM     20  S   UNL     1       4.846   3.242  17.250  0.00  0.00    +0.000 S 
BRANCH  20  21
ATOM     21  C   UNL     1       5.870   4.316  18.127  0.00  0.00    +0.000 A 
ATOM     22  N   UNL     1       6.063   4.365  19.424  0.00  0.00    +0.000 NA
ATOM     23  N   UNL     1       6.913   5.422  19.675  0.00  0.00    +0.000 NA
ATOM     24  C   UNL     1       7.213   5.996  18.525  0.00  0.00    +0.000 A 
ATOM     25  C   UNL     1       8.047   7.205  18.328  0.00  0.00    +0.000 C 
ATOM     26  N   UNL     1       6.600   5.297  17.514  0.00  0.00    +0.000 N 
ATOM     27  C   UNL     1       6.700   5.543  16.099  0.00  0.00    +0.000 C 
ENDBRANCH  20  21
ENDBRANCH  19  20
ENDBRANCH   7  19
TORSDOF 4
ENDMDL
MODEL 4
REMARK VINA RESULT:      -7.5      3.777      6.276
REMARK  Name = 
REMARK  7 active torsions:
REMARK  status: ('A' for Active; 'I' for Inactive)
REMARK    1  A    between atoms: C_1  and  C_2
REMARK    2  A    between atoms: C_7  and  N_8
REMARK    3  A    between atoms: C_14  and  C_15
REMARK    4  A    between atoms: C_15  and  S_16
REMARK    5  A    between atoms: S_16  and  C_17
REMARK    6  A    between atoms: C_20  and  C_21
REMARK    7  A    between atoms: N_22  and  C_23
REMARK                            x       y       z     vdW  Elec       q    Type
REMARK                         _______ _______ _______ _____ _____    ______ ____
ROOT
ATOM      1  N   UNL     1       5.374   4.235  19.208  0.00  0.00    +0.000 N 
ATOM      2  C   UNL     1       6.137   5.046  18.358  0.00  0.00    +0.000 A 
ATOM      3  N   UNL     1       5.978   4.906  17.043  0.00  0.00    +0.000 NA
ATOM      4  C   UNL     1       6.670   5.723  16.276  0.00  0.00    +0.000 A 
ATOM      5  N   UNL     1       6.452   5.637  14.918  0.00  0.00    +0.000 N 
ATOM      6  N   UNL     1       7.536   6.615  16.717  0.00  0.00    +0.000 NA
ATOM      7  C   UNL     1       7.636   6.705  18.048  0.00  0.00    +0.000 A 
ATOM      8  N   UNL     1       6.966   5.928  18.911  0.00  0.00    +0.000 NA
ATOM      9  H   UNL     1       5.527   4.506  20.170  0.00  0.00    +0.000 HD
ATOM     10  H   UNL     1       6.073   4.728  14.686  0.00  0.00    +0.000 HD
ATOM     11  H   UNL     1       7.252   5.963  14.400  0.00  0.00    +0.000 HD
ENDROOT
BRANCH   1  18
ATOM     12  C   UNL     1       4.521   1.621  20.202  0.00  0.00    +0.000 C 
ATOM     13  C   UNL     1       3.624   2.522  19.400  0.00  0.00    +0.000 A 
ATOM     14  C   UNL     1       2.340   2.065  19.049  0.00  0.00    +0.000 A 
ATOM     15  C   UNL     1       1.476   2.861  18.296  0.00  0.00    +0.000 A 
ATOM     16  C   UNL     1       1.875   4.129  17.900  0.00  0.00    +0.000 A 
ATOM     17  C   UNL     1       3.152   4.584  18.227  0.00  0.00    +0.000 A 
ATOM     18  C   UNL     1       4.058   3.782  18.940  0.00  0.00    +0.000 A 
ENDBRANCH   1  18
BRANCH   7  19
ATOM     19  C   UNL     1       8.494   7.827  18.602  0.00  0.00    +0.000 C 
BRANCH  19  20
ATOM     20  S   UNL     1       8.097   9.396  17.759  0.00  0.00    +0.000 S 
BRANCH  20  21
ATOM     21  C   UNL     1       8.976  10.556  18.682  0.00  0.00    +0.000 A 
ATOM     22  N   UNL     1       9.751  10.340  19.719  0.00  0.00    +0.000 NA
ATOM     23  N   UNL     1      10.189  11.569  20.170  0.00  0.00    +0.000 NA
ATOM     24  C   UNL     1       9.665  12.504  19.400  0.00  0.00    +0.000 A 
ATOM     25  C   UNL     1       9.817  13.970  19.558  0.00  0.00    +0.000 C 
ATOM     26  N   UNL     1       8.919  11.897  18.420  0.00  0.00    +0.000 N 
ATOM     27  C   UNL     1       8.218  12.537  17.336  0.00  0.00    +0.000 C 
ENDBRANCH  20  21
ENDBRANCH  19  20
ENDBRANCH   7  19
TORSDOF 4
ENDMDL
MODEL 5
REMARK VINA RESULT:      -7.4      4.434      8.726
REMARK  Name = 
REMARK  7 active torsions:
REMARK  status: ('A' for Active; 'I' for Inactive)
REMARK    1  A    between atoms: C_1  and  C_2
REMARK    2  A    between atoms: C_7  and  N_8
REMARK    3  A    between atoms: C_14  and  C_15
REMARK    4  A    between atoms: C_15  and  S_16
REMARK    5  A    between atoms: S_16  and  C_17
REMARK    6  A    between atoms: C_20  and  C_21
REMARK    7  A    between atoms: N_22  and  C_23
REMARK                            x       y       z     vdW  Elec       q    Type
REMARK                         _______ _______ _______ _____ _____    ______ ____
ROOT
ATOM      1  N   UNL     1       2.457   6.446  20.348  0.00  0.00    +0.000 N 
ATOM      2  C   UNL     1       1.803   7.678  20.213  0.00  0.00    +0.000 A 
ATOM      3  N   UNL     1       1.916   8.330  19.059  0.00  0.00    +0.000 NA
ATOM      4  C   UNL     1       1.244   9.456  18.949  0.00  0.00    +0.000 A 
ATOM      5  N   UNL     1       1.294  10.095  17.728  0.00  0.00    +0.000 N 
ATOM      6  N   UNL     1       0.522   9.997  19.911  0.00  0.00    +0.000 NA
ATOM      7  C   UNL     1       0.446   9.283  21.039  0.00  0.00    +0.000 A 
ATOM      8  N   UNL     1       1.084   8.121  21.242  0.00  0.00    +0.000 NA
ATOM      9  H   UNL     1       2.214   6.023  21.234  0.00  0.00    +0.000 HD
ATOM     10  H   UNL     1       2.120   9.805  17.221  0.00  0.00    +0.000 HD
ATOM     11  H   UNL     1       1.122  11.083  17.828  0.00  0.00    +0.000 HD
ENDROOT
BRANCH   1  18
ATOM     12  C   UNL     1       0.840   4.013  20.250  0.00  0.00    +0.000 C 
ATOM     13  C   UNL     1       1.903   4.328  19.234  0.00  0.00    +0.000 A 
ATOM     14  C   UNL     1       2.186   3.384  18.230  0.00  0.00    +0.000 A 
ATOM     15  C   UNL     1       3.172   3.627  17.273  0.00  0.00    +0.000 A 
ATOM     16  C   UNL     1       3.874   4.824  17.295  0.00  0.00    +0.000 A 
ATOM     17  C   UNL     1       3.615   5.758  18.298  0.00  0.00    +0.000 A 
ATOM     18  C   UNL     1       2.663   5.513  19.301  0.00  0.00    +0.000 A 
ENDBRANCH   1  18
BRANCH   7  19
ATOM     19  C   UNL     1      -0.503   9.783  22.111  0.00  0.00    +0.000 C 
BRANCH  19  20
ATOM     20  S   UNL     1      -0.463  11.607  22.183  0.00  0.00    +0.000 S 
BRANCH  20  21
ATOM     21  C   UNL     1      -2.122  12.013  22.414  0.00  0.00    +0.000 A 
ATOM     22  N   UNL     1      -2.850  11.849  23.493  0.00  0.00    +0.000 NA
ATOM     23  N   UNL     1      -4.133  12.258  23.192  0.00  0.00    +0.000 NA
ATOM     24  C   UNL     1      -4.157  12.658  21.935  0.00  0.00    +0.000 A 
ATOM     25  C   UNL     1      -5.342  13.121  21.174  0.00  0.00    +0.000 C 
ATOM     26  N   UNL     1      -2.889  12.554  21.418  0.00  0.00    +0.000 N 
ATOM     27  C   UNL     1      -2.452  12.932  20.099  0.00  0.00    +0.000 C 
ENDBRANCH  20  21
ENDBRANCH  19  20
ENDBRANCH   7  19
TORSDOF 4
ENDMDL
MODEL 6
REMARK VINA RESULT:      -7.4      0.699      1.293
REMARK  Name = 
REMARK  7 active torsions:
REMARK  status: ('A' for Active; 'I' for Inactive)
REMARK    1  A    between atoms: C_1  and  C_2
REMARK    2  A    between atoms: C_7  and  N_8
REMARK    3  A    between atoms: C_14  and  C_15
REMARK    4  A    between atoms: C_15  and  S_16
REMARK    5  A    between atoms: S_16  and  C_17
REMARK    6  A    between atoms: C_20  and  C_21
REMARK    7  A    between atoms: N_22  and  C_23
REMARK                            x       y       z     vdW  Elec       q    Type
REMARK                         _______ _______ _______ _____ _____    ______ ____
ROOT
ATOM      1  N   UNL     1       2.655   7.239  20.375  0.00  0.00    +0.000 N 
ATOM      2  C   UNL     1       2.597   5.871  20.080  0.00  0.00    +0.000 A 
ATOM      3  N   UNL     1       1.441   5.235  20.260  0.00  0.00    +0.000 NA
ATOM      4  C   UNL     1       1.408   3.963  19.920  0.00  0.00    +0.000 A 
ATOM      5  N   UNL     1       0.194   3.321  20.029  0.00  0.00    +0.000 N 
ATOM      6  N   UNL     1       2.443   3.278  19.475  0.00  0.00    +0.000 NA
ATOM      7  C   UNL     1       3.568   3.983  19.311  0.00  0.00    +0.000 A 
ATOM      8  N   UNL     1       3.697   5.283  19.616  0.00  0.00    +0.000 NA
ATOM      9  H   UNL     1       3.558   7.609  20.110  0.00  0.00    +0.000 HD
ATOM     10  H   UNL     1      -0.397   3.810  20.689  0.00  0.00    +0.000 HD
ATOM     11  H   UNL     1       0.318   2.328  20.150  0.00  0.00    +0.000 HD
ENDROOT
BRANCH   1  18
ATOM     12  C   UNL     1       2.310   8.605  17.814  0.00  0.00    +0.000 C 
ATOM     13  C   UNL     1       1.401   8.833  18.989  0.00  0.00    +0.000 A 
ATOM     14  C   UNL     1       0.380   9.795  18.883  0.00  0.00    +0.000 A 
ATOM     15  C   UNL     1      -0.480  10.051  19.952  0.00  0.00    +0.000 A 
ATOM     16  C   UNL     1      -0.344   9.335  21.133  0.00  0.00    +0.000 A 
ATOM     17  C   UNL     1       0.677   8.392  21.255  0.00  0.00    +0.000 A 
ATOM     18  C   UNL     1       1.586   8.155  20.212  0.00  0.00    +0.000 A 
ENDBRANCH   1  18
BRANCH   7  19
ATOM     19  C   UNL     1       4.735   3.278  18.647  0.00  0.00    +0.000 C 
BRANCH  19  20
ATOM     20  S   UNL     1       4.828   3.739  16.884  0.00  0.00    +0.000 S 
BRANCH  20  21
ATOM     21  C   UNL     1       5.384   5.369  16.947  0.00  0.00    +0.000 A 
ATOM     22  N   UNL     1       4.772   6.446  16.515  0.00  0.00    +0.000 NA
ATOM     23  N   UNL     1       5.622   7.514  16.717  0.00  0.00    +0.000 NA
ATOM     24  C   UNL     1       6.735   7.061  17.264  0.00  0.00    +0.000 A 
ATOM     25  C   UNL     1       7.945   7.849  17.596  0.00  0.00    +0.000 C 
ATOM     26  N   UNL     1       6.606   5.708  17.461  0.00  0.00    +0.000 N 
ATOM     27  C   UNL     1       7.559   4.822  18.079  0.00  0.00    +0.000 C 
ENDBRANCH  20  21
ENDBRANCH  19  20
ENDBRANCH   7  19
TORSDOF 4
ENDMDL
MODEL 7
REMARK VINA RESULT:      -7.4      0.509      1.418
REMARK  Name = 
REMARK  7 active torsions:
REMARK  status: ('A' for Active; 'I' for Inactive)
REMARK    1  A    between atoms: C_1  and  C_2
REMARK    2  A    between atoms: C_7  and  N_8
REMARK    3  A    between atoms: C_14  and  C_15
REMARK    4  A    between atoms: C_15  and  S_16
REMARK    5  A    between atoms: S_16  and  C_17
REMARK    6  A    between atoms: C_20  and  C_21
REMARK    7  A    between atoms: N_22  and  C_23
REMARK                            x       y       z     vdW  Elec       q    Type
REMARK                         _______ _______ _______ _____ _____    ______ ____
ROOT
ATOM      1  N   UNL     1       2.787   7.423  19.999  0.00  0.00    +0.000 N 
ATOM      2  C   UNL     1       2.675   6.028  19.924  0.00  0.00    +0.000 A 
ATOM      3  N   UNL     1       1.478   5.479  20.114  0.00  0.00    +0.000 NA
ATOM      4  C   UNL     1       1.400   4.172  19.981  0.00  0.00    +0.000 A 
ATOM      5  N   UNL     1       0.148   3.607  20.098  0.00  0.00    +0.000 N 
ATOM      6  N   UNL     1       2.425   3.380  19.733  0.00  0.00    +0.000 NA
ATOM      7  C   UNL     1       3.595   4.001  19.545  0.00  0.00    +0.000 A 
ATOM      8  N   UNL     1       3.772   5.327  19.647  0.00  0.00    +0.000 NA
ATOM      9  H   UNL     1       3.724   7.707  19.748  0.00  0.00    +0.000 HD
ATOM     10  H   UNL     1      -0.460   4.221  20.623  0.00  0.00    +0.000 HD
ATOM     11  H   UNL     1       0.210   2.643  20.386  0.00  0.00    +0.000 HD
ENDROOT
BRANCH   1  18
ATOM     12  C   UNL     1       1.143   8.711  22.044  0.00  0.00    +0.000 C 
ATOM     13  C   UNL     1       0.970   8.973  20.574  0.00  0.00    +0.000 A 
ATOM     14  C   UNL     1      -0.071   9.820  20.152  0.00  0.00    +0.000 A 
ATOM     15  C   UNL     1      -0.279  10.082  18.797  0.00  0.00    +0.000 A 
ATOM     16  C   UNL     1       0.563   9.519  17.849  0.00  0.00    +0.000 A 
ATOM     17  C   UNL     1       1.586   8.663  18.256  0.00  0.00    +0.000 A 
ATOM     18  C   UNL     1       1.782   8.343  19.609  0.00  0.00    +0.000 A 
ENDBRANCH   1  18
BRANCH   7  19
ATOM     19  C   UNL     1       4.766   3.148  19.095  0.00  0.00    +0.000 C 
BRANCH  19  20
ATOM     20  S   UNL     1       5.337   3.684  17.447  0.00  0.00    +0.000 S 
BRANCH  20  21
ATOM     21  C   UNL     1       6.483   4.915  17.824  0.00  0.00    +0.000 A 
ATOM     22  N   UNL     1       7.493   4.847  18.660  0.00  0.00    +0.000 NA
ATOM     23  N   UNL     1       8.092   6.089  18.686  0.00  0.00    +0.000 NA
ATOM     24  C   UNL     1       7.430   6.887  17.868  0.00  0.00    +0.000 A 
ATOM     25  C   UNL     1       7.689   8.326  17.631  0.00  0.00    +0.000 C 
ATOM     26  N   UNL     1       6.425   6.165  17.273  0.00  0.00    +0.000 N 
ATOM     27  C   UNL     1       5.495   6.626  16.273  0.00  0.00    +0.000 C 
ENDBRANCH  20  21
ENDBRANCH  19  20
ENDBRANCH   7  19
TORSDOF 4
ENDMDL
MODEL 8
REMARK VINA RESULT:      -7.4      1.739      2.012
REMARK  Name = 
REMARK  7 active torsions:
REMARK  status: ('A' for Active; 'I' for Inactive)
REMARK    1  A    between atoms: C_1  and  C_2
REMARK    2  A    between atoms: C_7  and  N_8
REMARK    3  A    between atoms: C_14  and  C_15
REMARK    4  A    between atoms: C_15  and  S_16
REMARK    5  A    between atoms: S_16  and  C_17
REMARK    6  A    between atoms: C_20  and  C_21
REMARK    7  A    between atoms: N_22  and  C_23
REMARK                            x       y       z     vdW  Elec       q    Type
REMARK                         _______ _______ _______ _____ _____    ______ ____
ROOT
ATOM      1  N   UNL     1       2.724   7.480  20.129  0.00  0.00    +0.000 N 
ATOM      2  C   UNL     1       2.703   6.097  19.908  0.00  0.00    +0.000 A 
ATOM      3  N   UNL     1       1.663   5.401  20.364  0.00  0.00    +0.000 NA
ATOM      4  C   UNL     1       1.650   4.113  20.091  0.00  0.00    +0.000 A 
ATOM      5  N   UNL     1       0.539   3.403  20.492  0.00  0.00    +0.000 N 
ATOM      6  N   UNL     1       2.610   3.471  19.454  0.00  0.00    +0.000 NA
ATOM      7  C   UNL     1       3.617   4.235  19.018  0.00  0.00    +0.000 A 
ATOM      8  N   UNL     1       3.715   5.554  19.235  0.00  0.00    +0.000 NA
ATOM      9  H   UNL     1       3.518   7.891  19.656  0.00  0.00    +0.000 HD
ATOM     10  H   UNL     1       0.072   3.889  21.246  0.00  0.00    +0.000 HD
ATOM     11  H   UNL     1       0.758   2.427  20.620  0.00  0.00    +0.000 HD
ENDROOT
BRANCH   1  18
ATOM     12  C   UNL     1       2.007   9.054  17.772  0.00  0.00    +0.000 C 
ATOM     13  C   UNL     1       1.217   9.093  19.051  0.00  0.00    +0.000 A 
ATOM     14  C   UNL     1       0.125   9.974  19.149  0.00  0.00    +0.000 A 
ATOM     15  C   UNL     1      -0.630  10.054  20.320  0.00  0.00    +0.000 A 
ATOM     16  C   UNL     1      -0.316   9.241  21.400  0.00  0.00    +0.000 A 
ATOM     17  C   UNL     1       0.776   8.378  21.319  0.00  0.00    +0.000 A 
ATOM     18  C   UNL     1       1.581   8.317  20.170  0.00  0.00    +0.000 A 
ENDBRANCH   1  18
BRANCH   7  19
ATOM     19  C   UNL     1       4.659   3.568  18.140  0.00  0.00    +0.000 C 
BRANCH  19  20
ATOM     20  S   UNL     1       4.264   3.838  16.379  0.00  0.00    +0.000 S 
BRANCH  20  21
ATOM     21  C   UNL     1       5.724   4.515  15.761  0.00  0.00    +0.000 A 
ATOM     22  N   UNL     1       6.620   5.221  16.408  0.00  0.00    +0.000 NA
ATOM     23  N   UNL     1       7.582   5.603  15.494  0.00  0.00    +0.000 NA
ATOM     24  C   UNL     1       7.245   5.123  14.312  0.00  0.00    +0.000 A 
ATOM     25  C   UNL     1       7.959   5.339  13.031  0.00  0.00    +0.000 C 
ATOM     26  N   UNL     1       6.090   4.393  14.449  0.00  0.00    +0.000 N 
ATOM     27  C   UNL     1       5.401   3.651  13.424  0.00  0.00    +0.000 C 
ENDBRANCH  20  21
ENDBRANCH  19  20
ENDBRANCH   7  19
TORSDOF 4
ENDMDL
MODEL 9
REMARK VINA RESULT:      -7.4      2.949      4.493
REMARK  Name = 
REMARK  7 active torsions:
REMARK  status: ('A' for Active; 'I' for Inactive)
REMARK    1  A    between atoms: C_1  and  C_2
REMARK    2  A    between atoms: C_7  and  N_8
REMARK    3  A    between atoms: C_14  and  C_15
REMARK    4  A    between atoms: C_15  and  S_16
REMARK    5  A    between atoms: S_16  and  C_17
REMARK    6  A    between atoms: C_20  and  C_21
REMARK    7  A    between atoms: N_22  and  C_23
REMARK                            x       y       z     vdW  Elec       q    Type
REMARK                         _______ _______ _______ _____ _____    ______ ____
ROOT
ATOM      1  N   UNL     1      -0.530  11.069  17.913  0.00  0.00    +0.000 N 
ATOM      2  C   UNL     1       0.263  10.136  18.594  0.00  0.00    +0.000 A 
ATOM      3  N   UNL     1      -0.022   9.877  19.869  0.00  0.00    +0.000 NA
ATOM      4  C   UNL     1       0.708   8.955  20.461  0.00  0.00    +0.000 A 
ATOM      5  N   UNL     1       0.368   8.627  21.755  0.00  0.00    +0.000 N 
ATOM      6  N   UNL     1       1.720   8.324  19.899  0.00  0.00    +0.000 NA
ATOM      7  C   UNL     1       1.942   8.627  18.615  0.00  0.00    +0.000 A 
ATOM      8  N   UNL     1       1.247   9.542  17.924  0.00  0.00    +0.000 NA
ATOM      9  H   UNL     1      -0.262  11.101  16.938  0.00  0.00    +0.000 HD
ATOM     10  H   UNL     1      -0.149   9.387  22.179  0.00  0.00    +0.000 HD
ATOM     11  H   UNL     1       1.159   8.254  22.256  0.00  0.00    +0.000 HD
ENDROOT
BRANCH   1  18
ATOM     12  C   UNL     1      -2.487   9.793  16.157  0.00  0.00    +0.000 C 
ATOM     13  C   UNL     1      -2.877  10.687  17.301  0.00  0.00    +0.000 A 
ATOM     14  C   UNL     1      -4.239  10.982  17.500  0.00  0.00    +0.000 A 
ATOM     15  C   UNL     1      -4.648  11.817  18.541  0.00  0.00    +0.000 A 
ATOM     16  C   UNL     1      -3.705  12.350  19.408  0.00  0.00    +0.000 A 
ATOM     17  C   UNL     1      -2.352  12.078  19.209  0.00  0.00    +0.000 A 
ATOM     18  C   UNL     1      -1.912  11.284  18.137  0.00  0.00    +0.000 A 
ENDBRANCH   1  18
BRANCH   7  19
ATOM     19  C   UNL     1       2.987   7.808  17.882  0.00  0.00    +0.000 C 
BRANCH  19  20
ATOM     20  S   UNL     1       2.746   6.031  18.223  0.00  0.00    +0.000 S 
BRANCH  20  21
ATOM     21  C   UNL     1       4.345   5.491  18.570  0.00  0.00    +0.000 A 
ATOM     22  N   UNL     1       4.903   5.327  19.746  0.00  0.00    +0.000 NA
ATOM     23  N   UNL     1       6.211   4.943  19.533  0.00  0.00    +0.000 NA
ATOM     24  C   UNL     1       6.420   4.887  18.231  0.00  0.00    +0.000 A 
ATOM     25  C   UNL     1       7.700   4.576  17.552  0.00  0.00    +0.000 C 
ATOM     26  N   UNL     1       5.247   5.190  17.586  0.00  0.00    +0.000 N 
ATOM     27  C   UNL     1       5.009   5.194  16.165  0.00  0.00    +0.000 C 
ENDBRANCH  20  21
ENDBRANCH  19  20
ENDBRANCH   7  19
TORSDOF 4
ENDMDL
