MODEL 1
REMARK VINA RESULT:      -6.7      0.000      0.000
REMARK  Name = 
REMARK  6 active torsions:
REMARK  status: ('A' for Active; 'I' for Inactive)
REMARK    1  A    between atoms: N_1  and  C_2
REMARK    2  A    between atoms: C_2  and  C_3
REMARK    3  A    between atoms: C_6  and  C_7
REMARK    4  A    between atoms: C_7  and  O_9
REMARK    5  A    between atoms: O_9  and  C_10
REMARK    6  A    between atoms: C_10  and  C_11
REMARK                            x       y       z     vdW  Elec       q    Type
REMARK                         _______ _______ _______ _____ _____    ______ ____
ROOT
ATOM      1  C   UNL     1       7.154   5.656  16.759  0.00  0.00    +0.000 C 
ATOM      2  O   UNL     1       7.608   6.792  16.792  0.00  0.00    +0.000 OA
ENDROOT
BRANCH   1   6
ATOM      3  C   UNL     1       5.854   3.735  13.136  0.00  0.00    +0.000 A 
ATOM      4  C   UNL     1       5.122   3.628  14.326  0.00  0.00    +0.000 A 
ATOM      5  C   UNL     1       5.564   4.257  15.490  0.00  0.00    +0.000 A 
ATOM      6  C   UNL     1       6.754   4.996  15.490  0.00  0.00    +0.000 A 
ATOM      7  C   UNL     1       7.502   5.093  14.310  0.00  0.00    +0.000 A 
ATOM      8  C   UNL     1       7.052   4.465  13.140  0.00  0.00    +0.000 A 
BRANCH   3   9
ATOM      9  C   UNL     1       5.334   3.093  11.874  0.00  0.00    +0.000 C 
BRANCH   9  10
ATOM     10  N   UNL     1       5.972   1.800  11.653  0.00  0.00    +0.000 NA
ATOM     11  H   UNL     1       5.635   1.399  10.781  0.00  0.00    +0.000 HD
ATOM     12  H   UNL     1       5.690   1.163  12.398  0.00  0.00    +0.000 HD
ENDBRANCH   9  10
ENDBRANCH   3   9
ENDBRANCH   1   6
BRANCH   1  13
ATOM     13  O   UNL     1       6.957   4.852  17.830  0.00  0.00    +0.000 OA
BRANCH  13  14
ATOM     14  C   UNL     1       6.323   5.478  18.953  0.00  0.00    +0.000 C 
BRANCH  14  15
ATOM     15  C   UNL     1       4.943   4.898  19.136  0.00  0.00    +0.000 A 
ATOM     16  C   UNL     1       3.837   5.736  19.333  0.00  0.00    +0.000 A 
ATOM     17  C   UNL     1       2.561   5.196  19.512  0.00  0.00    +0.000 A 
ATOM     18  C   UNL     1       2.387   3.815  19.501  0.00  0.00    +0.000 A 
ATOM     19 CL   UNL     1       0.816   3.151  19.738  0.00  0.00    +0.000 Cl
ATOM     20  C   UNL     1       3.475   2.968  19.304  0.00  0.00    +0.000 A 
ATOM     21  C   UNL     1       4.751   3.507  19.126  0.00  0.00    +0.000 A 
ENDBRANCH  14  15
ENDBRANCH  13  14
ENDBRANCH   1  13
TORSDOF 6
ENDMDL
MODEL 2
REMARK VINA RESULT:      -6.6      0.678      1.221
REMARK  Name = 
REMARK  6 active torsions:
REMARK  status: ('A' for Active; 'I' for Inactive)
REMARK    1  A    between atoms: N_1  and  C_2
REMARK    2  A    between atoms: C_2  and  C_3
REMARK    3  A    between atoms: C_6  and  C_7
REMARK    4  A    between atoms: C_7  and  O_9
REMARK    5  A    between atoms: O_9  and  C_10
REMARK    6  A    between atoms: C_10  and  C_11
REMARK                            x       y       z     vdW  Elec       q    Type
REMARK                         _______ _______ _______ _____ _____    ______ ____
ROOT
ATOM      1  C   UNL     1       7.057   5.755  16.569  0.00  0.00    +0.000 C 
ATOM      2  O   UNL     1       7.627   6.838  16.566  0.00  0.00    +0.000 OA
ENDROOT
BRANCH   1   6
ATOM      3  C   UNL     1       5.849   3.697  12.990  0.00  0.00    +0.000 A 
ATOM      4  C   UNL     1       5.074   3.656  14.157  0.00  0.00    +0.000 A 
ATOM      5  C   UNL     1       5.485   4.329  15.306  0.00  0.00    +0.000 A 
ATOM      6  C   UNL     1       6.689   5.046  15.317  0.00  0.00    +0.000 A 
ATOM      7  C   UNL     1       7.480   5.077  14.161  0.00  0.00    +0.000 A 
ATOM      8  C   UNL     1       7.060   4.405  13.005  0.00  0.00    +0.000 A 
BRANCH   3   9
ATOM      9  C   UNL     1       5.362   3.008  11.740  0.00  0.00    +0.000 C 
BRANCH   9  10
ATOM     10  N   UNL     1       6.004   1.707  11.585  0.00  0.00    +0.000 NA
ATOM     11  H   UNL     1       5.318   0.970  11.731  0.00  0.00    +0.000 HD
ATOM     12  H   UNL     1       6.709   1.600  12.313  0.00  0.00    +0.000 HD
ENDBRANCH   9  10
ENDBRANCH   3   9
ENDBRANCH   1   6
BRANCH   1  13
ATOM     13  O   UNL     1       6.688   5.060  17.670  0.00  0.00    +0.000 OA
BRANCH  13  14
ATOM     14  C   UNL     1       5.735   5.717  18.515  0.00  0.00    +0.000 C 
BRANCH  14  15
ATOM     15  C   UNL     1       4.473   4.893  18.581  0.00  0.00    +0.000 A 
ATOM     16  C   UNL     1       4.490   3.606  19.136  0.00  0.00    +0.000 A 
ATOM     17  C   UNL     1       3.323   2.841  19.188  0.00  0.00    +0.000 A 
ATOM     18  C   UNL     1       2.134   3.357  18.680  0.00  0.00    +0.000 A 
ATOM     19 CL   UNL     1       0.700   2.407  18.730  0.00  0.00    +0.000 Cl
ATOM     20  C   UNL     1       2.099   4.636  18.127  0.00  0.00    +0.000 A 
ATOM     21  C   UNL     1       3.266   5.401  18.074  0.00  0.00    +0.000 A 
ENDBRANCH  14  15
ENDBRANCH  13  14
ENDBRANCH   1  13
TORSDOF 6
ENDMDL
MODEL 3
REMARK VINA RESULT:      -6.5      2.805      3.902
REMARK  Name = 
REMARK  6 active torsions:
REMARK  status: ('A' for Active; 'I' for Inactive)
REMARK    1  A    between atoms: N_1  and  C_2
REMARK    2  A    between atoms: C_2  and  C_3
REMARK    3  A    between atoms: C_6  and  C_7
REMARK    4  A    between atoms: C_7  and  O_9
REMARK    5  A    between atoms: O_9  and  C_10
REMARK    6  A    between atoms: C_10  and  C_11
REMARK                            x       y       z     vdW  Elec       q    Type
REMARK                         _______ _______ _______ _____ _____    ______ ____
ROOT
ATOM      1  C   UNL     1       5.226   4.448  18.878  0.00  0.00    +0.000 C 
ATOM      2  O   UNL     1       5.437   3.481  19.598  0.00  0.00    +0.000 OA
ENDROOT
BRANCH   1   6
ATOM      3  C   UNL     1       6.396   4.468  14.739  0.00  0.00    +0.000 A 
ATOM      4  C   UNL     1       7.299   4.801  15.758  0.00  0.00    +0.000 A 
ATOM      5  C   UNL     1       6.897   4.790  17.093  0.00  0.00    +0.000 A 
ATOM      6  C   UNL     1       5.580   4.458  17.436  0.00  0.00    +0.000 A 
ATOM      7  C   UNL     1       4.666   4.142  16.422  0.00  0.00    +0.000 A 
ATOM      8  C   UNL     1       5.074   4.147  15.082  0.00  0.00    +0.000 A 
BRANCH   3   9
ATOM      9  C   UNL     1       6.862   4.432  13.305  0.00  0.00    +0.000 C 
BRANCH   9  10
ATOM     10  N   UNL     1       6.375   3.231  12.634  0.00  0.00    +0.000 NA
ATOM     11  H   UNL     1       6.882   3.099  11.763  0.00  0.00    +0.000 HD
ATOM     12  H   UNL     1       5.395   3.368  12.385  0.00  0.00    +0.000 HD
ENDBRANCH   9  10
ENDBRANCH   3   9
ENDBRANCH   1   6
BRANCH   1  13
ATOM     13  O   UNL     1       4.655   5.613  19.267  0.00  0.00    +0.000 OA
BRANCH  13  14
ATOM     14  C   UNL     1       3.275   5.520  19.641  0.00  0.00    +0.000 C 
BRANCH  14  15
ATOM     15  C   UNL     1       2.593   6.838  19.371  0.00  0.00    +0.000 A 
ATOM     16  C   UNL     1       2.658   7.427  18.101  0.00  0.00    +0.000 A 
ATOM     17  C   UNL     1       2.034   8.653  17.856  0.00  0.00    +0.000 A 
ATOM     18  C   UNL     1       1.348   9.297  18.882  0.00  0.00    +0.000 A 
ATOM     19 CL   UNL     1       0.594  10.815  18.582  0.00  0.00    +0.000 Cl
ATOM     20  C   UNL     1       1.272   8.724  20.149  0.00  0.00    +0.000 A 
ATOM     21  C   UNL     1       1.896   7.499  20.395  0.00  0.00    +0.000 A 
ENDBRANCH  14  15
ENDBRANCH  13  14
ENDBRANCH   1  13
TORSDOF 6
ENDMDL
MODEL 4
REMARK VINA RESULT:      -6.5      0.542      1.233
REMARK  Name = 
REMARK  6 active torsions:
REMARK  status: ('A' for Active; 'I' for Inactive)
REMARK    1  A    between atoms: N_1  and  C_2
REMARK    2  A    between atoms: C_2  and  C_3
REMARK    3  A    between atoms: C_6  and  C_7
REMARK    4  A    between atoms: C_7  and  O_9
REMARK    5  A    between atoms: O_9  and  C_10
REMARK    6  A    between atoms: C_10  and  C_11
REMARK                            x       y       z     vdW  Elec       q    Type
REMARK                         _______ _______ _______ _____ _____    ______ ____
ROOT
ATOM      1  C   UNL     1       7.111   5.732  16.844  0.00  0.00    +0.000 C 
ATOM      2  O   UNL     1       7.605   6.852  16.839  0.00  0.00    +0.000 OA
ENDROOT
BRANCH   1   6
ATOM      3  C   UNL     1       5.983   3.762  13.191  0.00  0.00    +0.000 A 
ATOM      4  C   UNL     1       7.168   4.504  13.288  0.00  0.00    +0.000 A 
ATOM      5  C   UNL     1       7.513   5.136  14.482  0.00  0.00    +0.000 A 
ATOM      6  C   UNL     1       6.673   5.050  15.600  0.00  0.00    +0.000 A 
ATOM      7  C   UNL     1       5.477   4.327  15.506  0.00  0.00    +0.000 A 
ATOM      8  C   UNL     1       5.136   3.687  14.307  0.00  0.00    +0.000 A 
BRANCH   3   9
ATOM      9  C   UNL     1       5.652   3.040  11.909  0.00  0.00    +0.000 C 
BRANCH   9  10
ATOM     10  N   UNL     1       4.269   3.293  11.517  0.00  0.00    +0.000 NA
ATOM     11  H   UNL     1       3.953   4.166  11.932  0.00  0.00    +0.000 HD
ATOM     12  H   UNL     1       3.679   2.555  11.900  0.00  0.00    +0.000 HD
ENDBRANCH   9  10
ENDBRANCH   3   9
ENDBRANCH   1   6
BRANCH   1  13
ATOM     13  O   UNL     1       6.899   4.967  17.941  0.00  0.00    +0.000 OA
BRANCH  13  14
ATOM     14  C   UNL     1       6.177   5.609  19.000  0.00  0.00    +0.000 C 
BRANCH  14  15
ATOM     15  C   UNL     1       4.828   4.951  19.156  0.00  0.00    +0.000 A 
ATOM     16  C   UNL     1       3.678   5.723  19.371  0.00  0.00    +0.000 A 
ATOM     17  C   UNL     1       2.432   5.111  19.525  0.00  0.00    +0.000 A 
ATOM     18  C   UNL     1       2.331   3.723  19.471  0.00  0.00    +0.000 A 
ATOM     19 CL   UNL     1       0.797   2.971  19.678  0.00  0.00    +0.000 Cl
ATOM     20  C   UNL     1       3.464   2.942  19.257  0.00  0.00    +0.000 A 
ATOM     21  C   UNL     1       4.711   3.553  19.103  0.00  0.00    +0.000 A 
ENDBRANCH  14  15
ENDBRANCH  13  14
ENDBRANCH   1  13
TORSDOF 6
ENDMDL
MODEL 5
REMARK VINA RESULT:      -6.5      3.013      6.031
REMARK  Name = 
REMARK  6 active torsions:
REMARK  status: ('A' for Active; 'I' for Inactive)
REMARK    1  A    between atoms: N_1  and  C_2
REMARK    2  A    between atoms: C_2  and  C_3
REMARK    3  A    between atoms: C_6  and  C_7
REMARK    4  A    between atoms: C_7  and  O_9
REMARK    5  A    between atoms: O_9  and  C_10
REMARK    6  A    between atoms: C_10  and  C_11
REMARK                            x       y       z     vdW  Elec       q    Type
REMARK                         _______ _______ _______ _____ _____    ______ ____
ROOT
ATOM      1  C   UNL     1       6.102   5.367  19.150  0.00  0.00    +0.000 C 
ATOM      2  O   UNL     1       6.924   5.354  20.056  0.00  0.00    +0.000 OA
ENDROOT
BRANCH   1   6
ATOM      3  C   UNL     1       2.242   3.528  19.627  0.00  0.00    +0.000 A 
ATOM      4  C   UNL     1       3.412   2.763  19.527  0.00  0.00    +0.000 A 
ATOM      5  C   UNL     1       4.653   3.380  19.371  0.00  0.00    +0.000 A 
ATOM      6  C   UNL     1       4.747   4.776  19.298  0.00  0.00    +0.000 A 
ATOM      7  C   UNL     1       3.581   5.548  19.377  0.00  0.00    +0.000 A 
ATOM      8  C   UNL     1       2.337   4.925  19.541  0.00  0.00    +0.000 A 
BRANCH   3   9
ATOM      9  C   UNL     1       0.915   2.847  19.850  0.00  0.00    +0.000 C 
BRANCH   9  10
ATOM     10  N   UNL     1       0.357   2.379  18.586  0.00  0.00    +0.000 NA
ATOM     11  H   UNL     1      -0.476   1.825  18.767  0.00  0.00    +0.000 HD
ATOM     12  H   UNL     1       1.031   1.757  18.139  0.00  0.00    +0.000 HD
ENDBRANCH   9  10
ENDBRANCH   3   9
ENDBRANCH   1   6
BRANCH   1  13
ATOM     13  O   UNL     1       6.287   5.903  17.921  0.00  0.00    +0.000 OA
BRANCH  13  14
ATOM     14  C   UNL     1       7.355   5.325  17.159  0.00  0.00    +0.000 C 
BRANCH  14  15
ATOM     15  C   UNL     1       6.816   4.820  15.844  0.00  0.00    +0.000 A 
ATOM     16  C   UNL     1       5.635   4.065  15.800  0.00  0.00    +0.000 A 
ATOM     17  C   UNL     1       5.143   3.591  14.582  0.00  0.00    +0.000 A 
ATOM     18  C   UNL     1       5.832   3.865  13.403  0.00  0.00    +0.000 A 
ATOM     19 CL   UNL     1       5.232   3.266  11.905  0.00  0.00    +0.000 Cl
ATOM     20  C   UNL     1       7.005   4.615  13.429  0.00  0.00    +0.000 A 
ATOM     21  C   UNL     1       7.499   5.089  14.647  0.00  0.00    +0.000 A 
ENDBRANCH  14  15
ENDBRANCH  13  14
ENDBRANCH   1  13
TORSDOF 6
ENDMDL
MODEL 6
REMARK VINA RESULT:      -6.5      4.224      6.799
REMARK  Name = 
REMARK  6 active torsions:
REMARK  status: ('A' for Active; 'I' for Inactive)
REMARK    1  A    between atoms: N_1  and  C_2
REMARK    2  A    between atoms: C_2  and  C_3
REMARK    3  A    between atoms: C_6  and  C_7
REMARK    4  A    between atoms: C_7  and  O_9
REMARK    5  A    between atoms: O_9  and  C_10
REMARK    6  A    between atoms: C_10  and  C_11
REMARK                            x       y       z     vdW  Elec       q    Type
REMARK                         _______ _______ _______ _____ _____    ______ ____
ROOT
ATOM      1  C   UNL     1       2.592   4.850  20.261  0.00  0.00    +0.000 C 
ATOM      2  O   UNL     1       2.399   4.470  21.408  0.00  0.00    +0.000 OA
ENDROOT
BRANCH   1   6
ATOM      3  C   UNL     1       1.656   8.890  19.118  0.00  0.00    +0.000 A 
ATOM      4  C   UNL     1       1.336   8.395  20.389  0.00  0.00    +0.000 A 
ATOM      5  C   UNL     1       1.647   7.081  20.738  0.00  0.00    +0.000 A 
ATOM      6  C   UNL     1       2.273   6.231  19.816  0.00  0.00    +0.000 A 
ATOM      7  C   UNL     1       2.578   6.712  18.537  0.00  0.00    +0.000 A 
ATOM      8  C   UNL     1       2.271   8.034  18.192  0.00  0.00    +0.000 A 
BRANCH   3   9
ATOM      9  C   UNL     1       1.361  10.330  18.776  0.00  0.00    +0.000 C 
BRANCH   9  10
ATOM     10  N   UNL     1       2.049  10.719  17.550  0.00  0.00    +0.000 NA
ATOM     11  H   UNL     1       3.051  10.756  17.719  0.00  0.00    +0.000 HD
ATOM     12  H   UNL     1       1.759  11.663  17.296  0.00  0.00    +0.000 HD
ENDBRANCH   9  10
ENDBRANCH   3   9
ENDBRANCH   1   6
BRANCH   1  13
ATOM     13  O   UNL     1       3.110   4.104  19.257  0.00  0.00    +0.000 OA
BRANCH  13  14
ATOM     14  C   UNL     1       4.503   3.794  19.385  0.00  0.00    +0.000 C 
BRANCH  14  15
ATOM     15  C   UNL     1       5.204   4.092  18.082  0.00  0.00    +0.000 A 
ATOM     16  C   UNL     1       6.481   4.671  18.076  0.00  0.00    +0.000 A 
ATOM     17  C   UNL     1       7.124   4.955  16.869  0.00  0.00    +0.000 A 
ATOM     18  C   UNL     1       6.490   4.667  15.663  0.00  0.00    +0.000 A 
ATOM     19 CL   UNL     1       7.277   5.034  14.176  0.00  0.00    +0.000 Cl
ATOM     20  C   UNL     1       5.222   4.091  15.652  0.00  0.00    +0.000 A 
ATOM     21  C   UNL     1       4.578   3.806  16.859  0.00  0.00    +0.000 A 
ENDBRANCH  14  15
ENDBRANCH  13  14
ENDBRANCH   1  13
TORSDOF 6
ENDMDL
MODEL 7
REMARK VINA RESULT:      -6.4      4.638      6.966
REMARK  Name = 
REMARK  6 active torsions:
REMARK  status: ('A' for Active; 'I' for Inactive)
REMARK    1  A    between atoms: N_1  and  C_2
REMARK    2  A    between atoms: C_2  and  C_3
REMARK    3  A    between atoms: C_6  and  C_7
REMARK    4  A    between atoms: C_7  and  O_9
REMARK    5  A    between atoms: O_9  and  C_10
REMARK    6  A    between atoms: C_10  and  C_11
REMARK                            x       y       z     vdW  Elec       q    Type
REMARK                         _______ _______ _______ _____ _____    ______ ____
ROOT
ATOM      1  C   UNL     1       2.702   3.901  18.013  0.00  0.00    +0.000 C 
ATOM      2  O   UNL     1       1.892   3.268  17.348  0.00  0.00    +0.000 OA
ENDROOT
BRANCH   1   6
ATOM      3  C   UNL     1       1.689   7.509  20.124  0.00  0.00    +0.000 A 
ATOM      4  C   UNL     1       1.537   6.247  20.714  0.00  0.00    +0.000 A 
ATOM      5  C   UNL     1       1.870   5.090  20.011  0.00  0.00    +0.000 A 
ATOM      6  C   UNL     1       2.349   5.171  18.697  0.00  0.00    +0.000 A 
ATOM      7  C   UNL     1       2.485   6.428  18.092  0.00  0.00    +0.000 A 
ATOM      8  C   UNL     1       2.157   7.589  18.804  0.00  0.00    +0.000 A 
BRANCH   3   9
ATOM      9  C   UNL     1       1.375   8.753  20.919  0.00  0.00    +0.000 C 
BRANCH   9  10
ATOM     10  N   UNL     1       1.916   8.651  22.270  0.00  0.00    +0.000 NA
ATOM     11  H   UNL     1       1.530   7.830  22.729  0.00  0.00    +0.000 HD
ATOM     12  H   UNL     1       1.609   9.460  22.809  0.00  0.00    +0.000 HD
ENDBRANCH   9  10
ENDBRANCH   3   9
ENDBRANCH   1   6
BRANCH   1  13
ATOM     13  O   UNL     1       3.994   3.556  18.224  0.00  0.00    +0.000 OA
BRANCH  13  14
ATOM     14  C   UNL     1       4.867   3.753  17.105  0.00  0.00    +0.000 C 
BRANCH  14  15
ATOM     15  C   UNL     1       5.770   4.931  17.375  0.00  0.00    +0.000 A 
ATOM     16  C   UNL     1       6.770   4.852  18.355  0.00  0.00    +0.000 A 
ATOM     17  C   UNL     1       7.598   5.948  18.610  0.00  0.00    +0.000 A 
ATOM     18  C   UNL     1       7.427   7.128  17.891  0.00  0.00    +0.000 A 
ATOM     19 CL   UNL     1       8.438   8.481  18.219  0.00  0.00    +0.000 Cl
ATOM     20  C   UNL     1       6.439   7.221  16.913  0.00  0.00    +0.000 A 
ATOM     21  C   UNL     1       5.610   6.126  16.657  0.00  0.00    +0.000 A 
ENDBRANCH  14  15
ENDBRANCH  13  14
ENDBRANCH   1  13
TORSDOF 6
ENDMDL
MODEL 8
REMARK VINA RESULT:      -6.4      4.866      6.574
REMARK  Name = 
REMARK  6 active torsions:
REMARK  status: ('A' for Active; 'I' for Inactive)
REMARK    1  A    between atoms: N_1  and  C_2
REMARK    2  A    between atoms: C_2  and  C_3
REMARK    3  A    between atoms: C_6  and  C_7
REMARK    4  A    between atoms: C_7  and  O_9
REMARK    5  A    between atoms: O_9  and  C_10
REMARK    6  A    between atoms: C_10  and  C_11
REMARK                            x       y       z     vdW  Elec       q    Type
REMARK                         _______ _______ _______ _____ _____    ______ ____
ROOT
ATOM      1  C   UNL     1       3.703   6.876  17.600  0.00  0.00    +0.000 C 
ATOM      2  O   UNL     1       4.427   6.727  16.625  0.00  0.00    +0.000 OA
ENDROOT
BRANCH   1   6
ATOM      3  C   UNL     1       2.009   3.607  19.824  0.00  0.00    +0.000 A 
ATOM      4  C   UNL     1       3.082   4.357  20.325  0.00  0.00    +0.000 A 
ATOM      5  C   UNL     1       3.617   5.411  19.586  0.00  0.00    +0.000 A 
ATOM      6  C   UNL     1       3.098   5.729  18.324  0.00  0.00    +0.000 A 
ATOM      7  C   UNL     1       2.038   4.973  17.807  0.00  0.00    +0.000 A 
ATOM      8  C   UNL     1       1.498   3.919  18.555  0.00  0.00    +0.000 A 
BRANCH   3   9
ATOM      9  C   UNL     1       1.408   2.505  20.660  0.00  0.00    +0.000 C 
BRANCH   9  10
ATOM     10  N   UNL     1       1.708   2.707  22.073  0.00  0.00    +0.000 NA
ATOM     11  H   UNL     1       0.840   2.795  22.596  0.00  0.00    +0.000 HD
ATOM     12  H   UNL     1       2.206   3.590  22.180  0.00  0.00    +0.000 HD
ENDBRANCH   9  10
ENDBRANCH   3   9
ENDBRANCH   1   6
BRANCH   1  13
ATOM     13  O   UNL     1       3.355   8.062  18.153  0.00  0.00    +0.000 OA
BRANCH  13  14
ATOM     14  C   UNL     1       2.021   8.500  17.864  0.00  0.00    +0.000 C 
BRANCH  14  15
ATOM     15  C   UNL     1       1.344   8.919  19.146  0.00  0.00    +0.000 A 
ATOM     16  C   UNL     1       0.447   9.997  19.159  0.00  0.00    +0.000 A 
ATOM     17  C   UNL     1      -0.171  10.389  20.348  0.00  0.00    +0.000 A 
ATOM     18  C   UNL     1       0.108   9.708  21.531  0.00  0.00    +0.000 A 
ATOM     19 CL   UNL     1      -0.643  10.203  22.998  0.00  0.00    +0.000 Cl
ATOM     20  C   UNL     1       0.994   8.634  21.534  0.00  0.00    +0.000 A 
ATOM     21  C   UNL     1       1.614   8.241  20.345  0.00  0.00    +0.000 A 
ENDBRANCH  14  15
ENDBRANCH  13  14
ENDBRANCH   1  13
TORSDOF 6
ENDMDL
MODEL 9
REMARK VINA RESULT:      -6.4      4.566      7.026
REMARK  Name = 
REMARK  6 active torsions:
REMARK  status: ('A' for Active; 'I' for Inactive)
REMARK    1  A    between atoms: N_1  and  C_2
REMARK    2  A    between atoms: C_2  and  C_3
REMARK    3  A    between atoms: C_6  and  C_7
REMARK    4  A    between atoms: C_7  and  O_9
REMARK    5  A    between atoms: O_9  and  C_10
REMARK    6  A    between atoms: C_10  and  C_11
REMARK                            x       y       z     vdW  Elec       q    Type
REMARK                         _______ _______ _______ _____ _____    ______ ____
ROOT
ATOM      1  C   UNL     1       2.195   3.935  18.135  0.00  0.00    +0.000 C 
ATOM      2  O   UNL     1       1.381   3.600  17.284  0.00  0.00    +0.000 OA
ENDROOT
BRANCH   1   6
ATOM      3  C   UNL     1       1.808   7.663  20.247  0.00  0.00    +0.000 A 
ATOM      4  C   UNL     1       2.253   7.615  18.919  0.00  0.00    +0.000 A 
ATOM      5  C   UNL     1       2.373   6.395  18.254  0.00  0.00    +0.000 A 
ATOM      6  C   UNL     1       2.063   5.196  18.909  0.00  0.00    +0.000 A 
ATOM      7  C   UNL     1       1.636   5.233  20.242  0.00  0.00    +0.000 A 
ATOM      8  C   UNL     1       1.510   6.460  20.905  0.00  0.00    +0.000 A 
BRANCH   3   9
ATOM      9  C   UNL     1       1.633   8.994  20.933  0.00  0.00    +0.000 C 
BRANCH   9  10
ATOM     10  N   UNL     1       1.699   8.840  22.383  0.00  0.00    +0.000 NA
ATOM     11  H   UNL     1       1.681   7.851  22.620  0.00  0.00    +0.000 HD
ATOM     12  H   UNL     1       0.865   9.256  22.796  0.00  0.00    +0.000 HD
ENDBRANCH   9  10
ENDBRANCH   3   9
ENDBRANCH   1   6
BRANCH   1  13
ATOM     13  O   UNL     1       3.298   3.237  18.492  0.00  0.00    +0.000 OA
BRANCH  13  14
ATOM     14  C   UNL     1       4.302   3.123  17.476  0.00  0.00    +0.000 C 
BRANCH  14  15
ATOM     15  C   UNL     1       5.180   4.350  17.500  0.00  0.00    +0.000 A 
ATOM     16  C   UNL     1       5.328   5.144  16.354  0.00  0.00    +0.000 A 
ATOM     17  C   UNL     1       6.148   6.274  16.377  0.00  0.00    +0.000 A 
ATOM     18  C   UNL     1       6.830   6.612  17.544  0.00  0.00    +0.000 A 
ATOM     19 CL   UNL     1       7.853   7.996  17.564  0.00  0.00    +0.000 Cl
ATOM     20  C   UNL     1       6.692   5.835  18.691  0.00  0.00    +0.000 A 
ATOM     21  C   UNL     1       5.872   4.704  18.670  0.00  0.00    +0.000 A 
ENDBRANCH  14  15
ENDBRANCH  13  14
ENDBRANCH   1  13
TORSDOF 6
ENDMDL
