MODEL 1
REMARK VINA RESULT:      -6.2      0.000      0.000
REMARK  Name = 
REMARK  12 active torsions:
REMARK  status: ('A' for Active; 'I' for Inactive)
REMARK    1  A    between atoms: C_1  and  O_2
REMARK    2  A    between atoms: O_2  and  C_3
REMARK    3  A    between atoms: C_3  and  C_4
REMARK    4  A    between atoms: C_4  and  N_5
REMARK    5  A    between atoms: N_5  and  C_17
REMARK    6  A    between atoms: C_6  and  S_7
REMARK    7  A    between atoms: N_8  and  C_9
REMARK    8  A    between atoms: C_12  and  O_13
REMARK    9  A    between atoms: O_13  and  C_14
REMARK   10  A    between atoms: N_20  and  C_21
REMARK   11  A    between atoms: C_21  and  C_22
REMARK   12  A    between atoms: C_21  and  C_23
REMARK                            x       y       z     vdW  Elec       q    Type
REMARK                         _______ _______ _______ _____ _____    ______ ____
ROOT
ATOM      1  N   UNL     1       2.720   6.370  19.897  0.00  0.00    +0.000 N 
ATOM      2  C   UNL     1       2.017   7.571  20.040  0.00  0.00    +0.000 C 
ATOM      3  N   UNL     1       1.673   8.038  21.207  0.00  0.00    +0.000 NA
ENDROOT
BRANCH   3   4
ATOM      4  C   UNL     1       0.872   9.168  21.466  0.00  0.00    +0.000 A 
ATOM      5  C   UNL     1       0.596  10.172  20.532  0.00  0.00    +0.000 A 
ATOM      6  C   UNL     1      -0.260  11.235  20.837  0.00  0.00    +0.000 A 
ATOM      7  C   UNL     1      -0.952  11.263  22.045  0.00  0.00    +0.000 A 
ATOM      8  C   UNL     1      -0.732  10.251  22.974  0.00  0.00    +0.000 A 
ATOM      9  C   UNL     1       0.177   9.217  22.683  0.00  0.00    +0.000 A 
BRANCH   7  10
ATOM     10  O   UNL     1      -1.781  12.340  22.230  0.00  0.00    +0.000 OA
ATOM     11  C   UNL     1      -2.720  12.192  23.290  0.00  0.00    +0.000 C 
ENDBRANCH   7  10
ENDBRANCH   3   4
BRANCH   1  12
ATOM     12  C   UNL     1       3.903   6.257  18.984  0.00  0.00    +0.000 C 
ATOM     13  C   UNL     1       3.616   5.917  17.523  0.00  0.00    +0.000 C 
ATOM     14  C   UNL     1       3.387   4.431  17.231  0.00  0.00    +0.000 C 
ATOM     15  N   UNL     1       4.273   3.469  17.913  0.00  0.00    +0.000 NA
ATOM     16  C   UNL     1       4.606   3.843  19.296  0.00  0.00    +0.000 C 
ATOM     17  C   UNL     1       4.969   5.305  19.510  0.00  0.00    +0.000 C 
BRANCH  15  18
ATOM     18  C   UNL     1       3.696   2.089  17.852  0.00  0.00    +0.000 C 
ATOM     19  C   UNL     1       4.050   1.252  19.092  0.00  0.00    +0.000 C 
ATOM     20  C   UNL     1       2.167   2.062  17.688  0.00  0.00    +0.000 C 
ENDBRANCH  15  18
ENDBRANCH   1  12
BRANCH   2  21
ATOM     21  S   UNL     1       1.571   8.337  18.514  0.00  0.00    +0.000 S 
ATOM     22  H   UNL     1       1.768   9.576  18.988  0.00  0.00    +0.000 HD
ENDBRANCH   2  21
BRANCH   1  23
ATOM     23  C   UNL     1       2.270   5.150  20.606  0.00  0.00    +0.000 C 
BRANCH  23  24
ATOM     24  C   UNL     1       0.968   4.482  20.140  0.00  0.00    +0.000 C 
BRANCH  24  26
ATOM     25  C   UNL     1       1.875   2.905  21.627  0.00  0.00    +0.000 C 
ATOM     26  O   UNL     1       0.841   3.164  20.685  0.00  0.00    +0.000 OA
ENDBRANCH  24  26
ENDBRANCH  23  24
ENDBRANCH   1  23
TORSDOF 8
ENDMDL
MODEL 2
REMARK VINA RESULT:      -6.2      4.608      8.734
REMARK  Name = 
REMARK  12 active torsions:
REMARK  status: ('A' for Active; 'I' for Inactive)
REMARK    1  A    between atoms: C_1  and  O_2
REMARK    2  A    between atoms: O_2  and  C_3
REMARK    3  A    between atoms: C_3  and  C_4
REMARK    4  A    between atoms: C_4  and  N_5
REMARK    5  A    between atoms: N_5  and  C_17
REMARK    6  A    between atoms: C_6  and  S_7
REMARK    7  A    between atoms: N_8  and  C_9
REMARK    8  A    between atoms: C_12  and  O_13
REMARK    9  A    between atoms: O_13  and  C_14
REMARK   10  A    between atoms: N_20  and  C_21
REMARK   11  A    between atoms: C_21  and  C_22
REMARK   12  A    between atoms: C_21  and  C_23
REMARK                            x       y       z     vdW  Elec       q    Type
REMARK                         _______ _______ _______ _____ _____    ______ ____
ROOT
ATOM      1  N   UNL     1       4.484   5.514  18.169  0.00  0.00    +0.000 N 
ATOM      2  C   UNL     1       4.868   5.484  16.825  0.00  0.00    +0.000 C 
ATOM      3  N   UNL     1       5.277   4.391  16.245  0.00  0.00    +0.000 NA
ENDROOT
BRANCH   3   4
ATOM      4  C   UNL     1       5.792   4.266  14.939  0.00  0.00    +0.000 A 
ATOM      5  C   UNL     1       7.081   4.653  14.557  0.00  0.00    +0.000 A 
ATOM      6  C   UNL     1       7.549   4.442  13.256  0.00  0.00    +0.000 A 
ATOM      7  C   UNL     1       6.783   3.734  12.334  0.00  0.00    +0.000 A 
ATOM      8  C   UNL     1       5.515   3.295  12.703  0.00  0.00    +0.000 A 
ATOM      9  C   UNL     1       5.028   3.565  13.995  0.00  0.00    +0.000 A 
BRANCH   7  10
ATOM     10  O   UNL     1       7.349   3.565  11.096  0.00  0.00    +0.000 OA
ATOM     11  C   UNL     1       7.567   2.208  10.722  0.00  0.00    +0.000 C 
ENDBRANCH   7  10
ENDBRANCH   3   4
BRANCH   1  12
ATOM     12  C   UNL     1       3.230   6.205  18.613  0.00  0.00    +0.000 C 
ATOM     13  C   UNL     1       2.940   6.209  20.112  0.00  0.00    +0.000 C 
ATOM     14  C   UNL     1       2.295   4.930  20.656  0.00  0.00    +0.000 C 
ATOM     15  N   UNL     1       1.237   4.312  19.836  0.00  0.00    +0.000 NA
ATOM     16  C   UNL     1       1.489   4.378  18.389  0.00  0.00    +0.000 C 
ATOM     17  C   UNL     1       1.991   5.719  17.874  0.00  0.00    +0.000 C 
BRANCH  15  18
ATOM     18  C   UNL     1       0.990   2.902  20.275  0.00  0.00    +0.000 C 
ATOM     19  C   UNL     1       1.550   1.873  19.280  0.00  0.00    +0.000 C 
ATOM     20  C   UNL     1       1.565   2.574  21.664  0.00  0.00    +0.000 C 
ENDBRANCH  15  18
ENDBRANCH   1  12
BRANCH   2  21
ATOM     21  S   UNL     1       4.832   7.057  16.025  0.00  0.00    +0.000 S 
ATOM     22  H   UNL     1       5.840   7.544  16.763  0.00  0.00    +0.000 HD
ENDBRANCH   2  21
BRANCH   1  23
ATOM     23  C   UNL     1       5.348   4.907  19.209  0.00  0.00    +0.000 C 
BRANCH  23  24
ATOM     24  C   UNL     1       6.690   5.587  19.520  0.00  0.00    +0.000 C 
BRANCH  24  26
ATOM     25  C   UNL     1       7.939   7.075  18.197  0.00  0.00    +0.000 C 
ATOM     26  O   UNL     1       7.480   5.735  18.334  0.00  0.00    +0.000 OA
ENDBRANCH  24  26
ENDBRANCH  23  24
ENDBRANCH   1  23
TORSDOF 8
ENDMDL
MODEL 3
REMARK VINA RESULT:      -6.0      4.510      8.580
REMARK  Name = 
REMARK  12 active torsions:
REMARK  status: ('A' for Active; 'I' for Inactive)
REMARK    1  A    between atoms: C_1  and  O_2
REMARK    2  A    between atoms: O_2  and  C_3
REMARK    3  A    between atoms: C_3  and  C_4
REMARK    4  A    between atoms: C_4  and  N_5
REMARK    5  A    between atoms: N_5  and  C_17
REMARK    6  A    between atoms: C_6  and  S_7
REMARK    7  A    between atoms: N_8  and  C_9
REMARK    8  A    between atoms: C_12  and  O_13
REMARK    9  A    between atoms: O_13  and  C_14
REMARK   10  A    between atoms: N_20  and  C_21
REMARK   11  A    between atoms: C_21  and  C_22
REMARK   12  A    between atoms: C_21  and  C_23
REMARK                            x       y       z     vdW  Elec       q    Type
REMARK                         _______ _______ _______ _____ _____    ______ ____
ROOT
ATOM      1  N   UNL     1       4.421   5.736  18.329  0.00  0.00    +0.000 N 
ATOM      2  C   UNL     1       4.812   5.581  16.996  0.00  0.00    +0.000 C 
ATOM      3  N   UNL     1       5.337   4.473  16.552  0.00  0.00    +0.000 NA
ENDROOT
BRANCH   3   4
ATOM      4  C   UNL     1       5.867   4.240  15.268  0.00  0.00    +0.000 A 
ATOM      5  C   UNL     1       5.195   3.562  14.245  0.00  0.00    +0.000 A 
ATOM      6  C   UNL     1       5.758   3.422  12.972  0.00  0.00    +0.000 A 
ATOM      7  C   UNL     1       6.957   4.055  12.654  0.00  0.00    +0.000 A 
ATOM      8  C   UNL     1       7.624   4.776  13.640  0.00  0.00    +0.000 A 
ATOM      9  C   UNL     1       7.080   4.860  14.935  0.00  0.00    +0.000 A 
BRANCH   7  10
ATOM     10  O   UNL     1       7.405   3.869  11.371  0.00  0.00    +0.000 OA
ATOM     11  C   UNL     1       7.511   2.507  10.969  0.00  0.00    +0.000 C 
ENDBRANCH   7  10
ENDBRANCH   3   4
BRANCH   1  12
ATOM     12  C   UNL     1       3.099   6.341  18.695  0.00  0.00    +0.000 C 
ATOM     13  C   UNL     1       2.728   6.342  20.176  0.00  0.00    +0.000 C 
ATOM     14  C   UNL     1       2.147   5.026  20.704  0.00  0.00    +0.000 C 
ATOM     15  N   UNL     1       1.182   4.324  19.839  0.00  0.00    +0.000 NA
ATOM     16  C   UNL     1       1.507   4.392  18.406  0.00  0.00    +0.000 C 
ATOM     17  C   UNL     1       1.940   5.759  17.898  0.00  0.00    +0.000 C 
BRANCH  15  18
ATOM     18  C   UNL     1       1.012   2.905  20.286  0.00  0.00    +0.000 C 
ATOM     19  C   UNL     1       1.603   1.901  19.282  0.00  0.00    +0.000 C 
ATOM     20  C   UNL     1       1.629   2.610  21.664  0.00  0.00    +0.000 C 
ENDBRANCH  15  18
ENDBRANCH   1  12
BRANCH   2  21
ATOM     21  S   UNL     1       4.611   7.028  16.006  0.00  0.00    +0.000 S 
ATOM     22  H   UNL     1       3.365   6.698  15.636  0.00  0.00    +0.000 HD
ENDBRANCH   2  21
BRANCH   1  23
ATOM     23  C   UNL     1       5.341   5.360  19.428  0.00  0.00    +0.000 C 
BRANCH  23  24
ATOM     24  C   UNL     1       6.700   4.750  19.055  0.00  0.00    +0.000 C 
BRANCH  24  26
ATOM     25  C   UNL     1       7.961   6.677  18.588  0.00  0.00    +0.000 C 
ATOM     26  O   UNL     1       7.778   5.589  19.486  0.00  0.00    +0.000 OA
ENDBRANCH  24  26
ENDBRANCH  23  24
ENDBRANCH   1  23
TORSDOF 8
ENDMDL
MODEL 4
REMARK VINA RESULT:      -6.0      2.606      3.633
REMARK  Name = 
REMARK  12 active torsions:
REMARK  status: ('A' for Active; 'I' for Inactive)
REMARK    1  A    between atoms: C_1  and  O_2
REMARK    2  A    between atoms: O_2  and  C_3
REMARK    3  A    between atoms: C_3  and  C_4
REMARK    4  A    between atoms: C_4  and  N_5
REMARK    5  A    between atoms: N_5  and  C_17
REMARK    6  A    between atoms: C_6  and  S_7
REMARK    7  A    between atoms: N_8  and  C_9
REMARK    8  A    between atoms: C_12  and  O_13
REMARK    9  A    between atoms: O_13  and  C_14
REMARK   10  A    between atoms: N_20  and  C_21
REMARK   11  A    between atoms: C_21  and  C_22
REMARK   12  A    between atoms: C_21  and  C_23
REMARK                            x       y       z     vdW  Elec       q    Type
REMARK                         _______ _______ _______ _____ _____    ______ ____
ROOT
ATOM      1  N   UNL     1       2.407   6.416  20.023  0.00  0.00    +0.000 N 
ATOM      2  C   UNL     1       1.807   7.677  19.952  0.00  0.00    +0.000 C 
ATOM      3  N   UNL     1       1.666   8.315  18.824  0.00  0.00    +0.000 NA
ENDROOT
BRANCH   3   4
ATOM      4  C   UNL     1       1.183   9.627  18.646  0.00  0.00    +0.000 A 
ATOM      5  C   UNL     1      -0.160   9.999  18.769  0.00  0.00    +0.000 A 
ATOM      6  C   UNL     1      -0.561  11.332  18.641  0.00  0.00    +0.000 A 
ATOM      7  C   UNL     1       0.384  12.346  18.499  0.00  0.00    +0.000 A 
ATOM      8  C   UNL     1       1.732  12.008  18.421  0.00  0.00    +0.000 A 
ATOM      9  C   UNL     1       2.121  10.657  18.490  0.00  0.00    +0.000 A 
BRANCH   7  10
ATOM     10  O   UNL     1      -0.119  13.619  18.406  0.00  0.00    +0.000 OA
ATOM     11  C   UNL     1       0.700  14.626  18.993  0.00  0.00    +0.000 C 
ENDBRANCH   7  10
ENDBRANCH   3   4
BRANCH   1  12
ATOM     12  C   UNL     1       1.801   5.301  20.821  0.00  0.00    +0.000 C 
ATOM     13  C   UNL     1       2.752   4.213  21.317  0.00  0.00    +0.000 C 
ATOM     14  C   UNL     1       3.105   3.136  20.286  0.00  0.00    +0.000 C 
ATOM     15  N   UNL     1       2.010   2.640  19.432  0.00  0.00    +0.000 NA
ATOM     16  C   UNL     1       1.056   3.682  19.021  0.00  0.00    +0.000 C 
ATOM     17  C   UNL     1       0.622   4.642  20.119  0.00  0.00    +0.000 C 
BRANCH  15  18
ATOM     18  C   UNL     1       2.559   1.913  18.244  0.00  0.00    +0.000 C 
ATOM     19  C   UNL     1       2.648   2.811  17.000  0.00  0.00    +0.000 C 
ATOM     20  C   UNL     1       3.948   1.297  18.481  0.00  0.00    +0.000 C 
ENDBRANCH  15  18
ENDBRANCH   1  12
BRANCH   2  21
ATOM     21  S   UNL     1       1.344   8.350  21.516  0.00  0.00    +0.000 S 
ATOM     22  H   UNL     1       0.782   7.205  21.931  0.00  0.00    +0.000 HD
ENDBRANCH   2  21
BRANCH   1  23
ATOM     23  C   UNL     1       3.705   6.166  19.353  0.00  0.00    +0.000 C 
BRANCH  23  24
ATOM     24  C   UNL     1       3.721   6.072  17.820  0.00  0.00    +0.000 C 
BRANCH  24  26
ATOM     25  C   UNL     1       5.679   4.938  18.454  0.00  0.00    +0.000 C 
ATOM     26  O   UNL     1       4.878   5.365  17.359  0.00  0.00    +0.000 OA
ENDBRANCH  24  26
ENDBRANCH  23  24
ENDBRANCH   1  23
TORSDOF 8
ENDMDL
MODEL 5
REMARK VINA RESULT:      -6.0      0.394      1.017
REMARK  Name = 
REMARK  12 active torsions:
REMARK  status: ('A' for Active; 'I' for Inactive)
REMARK    1  A    between atoms: C_1  and  O_2
REMARK    2  A    between atoms: O_2  and  C_3
REMARK    3  A    between atoms: C_3  and  C_4
REMARK    4  A    between atoms: C_4  and  N_5
REMARK    5  A    between atoms: N_5  and  C_17
REMARK    6  A    between atoms: C_6  and  S_7
REMARK    7  A    between atoms: N_8  and  C_9
REMARK    8  A    between atoms: C_12  and  O_13
REMARK    9  A    between atoms: O_13  and  C_14
REMARK   10  A    between atoms: N_20  and  C_21
REMARK   11  A    between atoms: C_21  and  C_22
REMARK   12  A    between atoms: C_21  and  C_23
REMARK                            x       y       z     vdW  Elec       q    Type
REMARK                         _______ _______ _______ _____ _____    ______ ____
ROOT
ATOM      1  N   UNL     1       2.748   6.388  19.822  0.00  0.00    +0.000 N 
ATOM      2  C   UNL     1       2.032   7.586  19.911  0.00  0.00    +0.000 C 
ATOM      3  N   UNL     1       1.680   8.100  21.057  0.00  0.00    +0.000 NA
ENDROOT
BRANCH   3   4
ATOM      4  C   UNL     1       0.867   9.232  21.264  0.00  0.00    +0.000 A 
ATOM      5  C   UNL     1      -0.016   9.385  22.339  0.00  0.00    +0.000 A 
ATOM      6  C   UNL     1      -0.747  10.563  22.518  0.00  0.00    +0.000 A 
ATOM      7  C   UNL     1      -0.532  11.663  21.692  0.00  0.00    +0.000 A 
ATOM      8  C   UNL     1       0.376  11.554  20.643  0.00  0.00    +0.000 A 
ATOM      9  C   UNL     1       1.063  10.344  20.433  0.00  0.00    +0.000 A 
BRANCH   7  10
ATOM     10  O   UNL     1      -1.286  12.774  21.972  0.00  0.00    +0.000 OA
ATOM     11  C   UNL     1      -1.729  12.868  23.322  0.00  0.00    +0.000 C 
ENDBRANCH   7  10
ENDBRANCH   3   4
BRANCH   1  12
ATOM     12  C   UNL     1       3.935   6.248  18.918  0.00  0.00    +0.000 C 
ATOM     13  C   UNL     1       3.653   5.872  17.465  0.00  0.00    +0.000 C 
ATOM     14  C   UNL     1       3.421   4.378  17.210  0.00  0.00    +0.000 C 
ATOM     15  N   UNL     1       4.300   3.432  17.921  0.00  0.00    +0.000 NA
ATOM     16  C   UNL     1       4.628   3.840  19.295  0.00  0.00    +0.000 C 
ATOM     17  C   UNL     1       4.995   5.306  19.473  0.00  0.00    +0.000 C 
BRANCH  15  18
ATOM     18  C   UNL     1       3.719   2.053  17.892  0.00  0.00    +0.000 C 
ATOM     19  C   UNL     1       4.042   1.256  19.167  0.00  0.00    +0.000 C 
ATOM     20  C   UNL     1       2.194   2.026  17.695  0.00  0.00    +0.000 C 
ENDBRANCH  15  18
ENDBRANCH   1  12
BRANCH   2  21
ATOM     21  S   UNL     1       1.583   8.281  18.352  0.00  0.00    +0.000 S 
ATOM     22  H   UNL     1       1.089   7.122  17.890  0.00  0.00    +0.000 HD
ENDBRANCH   2  21
BRANCH   1  23
ATOM     23  C   UNL     1       2.308   5.195  20.583  0.00  0.00    +0.000 C 
BRANCH  23  24
ATOM     24  C   UNL     1       0.977   4.538  20.190  0.00  0.00    +0.000 C 
BRANCH  24  26
ATOM     25  C   UNL     1       1.890   2.931  21.641  0.00  0.00    +0.000 C 
ATOM     26  O   UNL     1       0.929   3.173  20.620  0.00  0.00    +0.000 OA
ENDBRANCH  24  26
ENDBRANCH  23  24
ENDBRANCH   1  23
TORSDOF 8
ENDMDL
MODEL 6
REMARK VINA RESULT:      -5.9      2.112      3.513
REMARK  Name = 
REMARK  12 active torsions:
REMARK  status: ('A' for Active; 'I' for Inactive)
REMARK    1  A    between atoms: C_1  and  O_2
REMARK    2  A    between atoms: O_2  and  C_3
REMARK    3  A    between atoms: C_3  and  C_4
REMARK    4  A    between atoms: C_4  and  N_5
REMARK    5  A    between atoms: N_5  and  C_17
REMARK    6  A    between atoms: C_6  and  S_7
REMARK    7  A    between atoms: N_8  and  C_9
REMARK    8  A    between atoms: C_12  and  O_13
REMARK    9  A    between atoms: O_13  and  C_14
REMARK   10  A    between atoms: N_20  and  C_21
REMARK   11  A    between atoms: C_21  and  C_22
REMARK   12  A    between atoms: C_21  and  C_23
REMARK                            x       y       z     vdW  Elec       q    Type
REMARK                         _______ _______ _______ _____ _____    ______ ____
ROOT
ATOM      1  N   UNL     1       3.514   5.197  18.550  0.00  0.00    +0.000 N 
ATOM      2  C   UNL     1       2.564   6.196  18.789  0.00  0.00    +0.000 C 
ATOM      3  N   UNL     1       2.613   6.960  19.844  0.00  0.00    +0.000 NA
ENDROOT
BRANCH   3   4
ATOM      4  C   UNL     1       1.657   7.916  20.244  0.00  0.00    +0.000 A 
ATOM      5  C   UNL     1       0.959   7.877  21.456  0.00  0.00    +0.000 A 
ATOM      6  C   UNL     1       0.069   8.894  21.816  0.00  0.00    +0.000 A 
ATOM      7  C   UNL     1      -0.061  10.033  21.027  0.00  0.00    +0.000 A 
ATOM      8  C   UNL     1       0.658  10.119  19.839  0.00  0.00    +0.000 A 
ATOM      9  C   UNL     1       1.505   9.064  19.454  0.00  0.00    +0.000 A 
BRANCH   7  10
ATOM     10  O   UNL     1      -0.944  10.977  21.487  0.00  0.00    +0.000 OA
ATOM     11  C   UNL     1      -1.130  10.980  22.899  0.00  0.00    +0.000 C 
ENDBRANCH   7  10
ENDBRANCH   3   4
BRANCH   1  12
ATOM     12  C   UNL     1       4.146   5.021  17.203  0.00  0.00    +0.000 C 
ATOM     13  C   UNL     1       5.362   4.099  17.128  0.00  0.00    +0.000 C 
ATOM     14  C   UNL     1       6.691   4.736  17.547  0.00  0.00    +0.000 C 
ATOM     15  N   UNL     1       6.947   6.114  17.090  0.00  0.00    +0.000 NA
ATOM     16  C   UNL     1       5.755   6.975  17.093  0.00  0.00    +0.000 C 
ATOM     17  C   UNL     1       4.490   6.343  16.531  0.00  0.00    +0.000 C 
BRANCH  15  18
ATOM     18  C   UNL     1       8.059   6.731  17.880  0.00  0.00    +0.000 C 
ATOM     19  C   UNL     1       7.995   8.267  17.879  0.00  0.00    +0.000 C 
ATOM     20  C   UNL     1       8.113   6.264  19.345  0.00  0.00    +0.000 C 
ENDBRANCH  15  18
ENDBRANCH   1  12
BRANCH   2  21
ATOM     21  S   UNL     1       1.269   6.267  17.593  0.00  0.00    +0.000 S 
ATOM     22  H   UNL     1       0.896   4.996  17.806  0.00  0.00    +0.000 HD
ENDBRANCH   2  21
BRANCH   1  23
ATOM     23  C   UNL     1       3.876   4.238  19.620  0.00  0.00    +0.000 C 
BRANCH  23  24
ATOM     24  C   UNL     1       2.917   3.071  19.899  0.00  0.00    +0.000 C 
BRANCH  24  26
ATOM     25  C   UNL     1       1.448   2.624  21.678  0.00  0.00    +0.000 C 
ATOM     26  O   UNL     1       2.807   2.820  21.305  0.00  0.00    +0.000 OA
ENDBRANCH  24  26
ENDBRANCH  23  24
ENDBRANCH   1  23
TORSDOF 8
ENDMDL
MODEL 7
REMARK VINA RESULT:      -5.9      2.619      3.537
REMARK  Name = 
REMARK  12 active torsions:
REMARK  status: ('A' for Active; 'I' for Inactive)
REMARK    1  A    between atoms: C_1  and  O_2
REMARK    2  A    between atoms: O_2  and  C_3
REMARK    3  A    between atoms: C_3  and  C_4
REMARK    4  A    between atoms: C_4  and  N_5
REMARK    5  A    between atoms: N_5  and  C_17
REMARK    6  A    between atoms: C_6  and  S_7
REMARK    7  A    between atoms: N_8  and  C_9
REMARK    8  A    between atoms: C_12  and  O_13
REMARK    9  A    between atoms: O_13  and  C_14
REMARK   10  A    between atoms: N_20  and  C_21
REMARK   11  A    between atoms: C_21  and  C_22
REMARK   12  A    between atoms: C_21  and  C_23
REMARK                            x       y       z     vdW  Elec       q    Type
REMARK                         _______ _______ _______ _____ _____    ______ ____
ROOT
ATOM      1  N   UNL     1       2.360   6.499  20.048  0.00  0.00    +0.000 N 
ATOM      2  C   UNL     1       1.765   7.764  20.055  0.00  0.00    +0.000 C 
ATOM      3  N   UNL     1       1.582   8.450  18.961  0.00  0.00    +0.000 NA
ENDROOT
BRANCH   3   4
ATOM      4  C   UNL     1       1.101   9.770  18.858  0.00  0.00    +0.000 A 
ATOM      5  C   UNL     1       1.912  10.896  18.678  0.00  0.00    +0.000 A 
ATOM      6  C   UNL     1       1.362  12.172  18.521  0.00  0.00    +0.000 A 
ATOM      7  C   UNL     1      -0.016  12.342  18.425  0.00  0.00    +0.000 A 
ATOM      8  C   UNL     1      -0.846  11.232  18.553  0.00  0.00    +0.000 A 
ATOM      9  C   UNL     1      -0.286   9.960  18.772  0.00  0.00    +0.000 A 
BRANCH   7  10
ATOM     10  O   UNL     1      -0.445  13.633  18.248  0.00  0.00    +0.000 OA
ATOM     11  C   UNL     1      -0.461  14.422  19.433  0.00  0.00    +0.000 C 
ENDBRANCH   7  10
ENDBRANCH   3   4
BRANCH   1  12
ATOM     12  C   UNL     1       1.780   5.354  20.823  0.00  0.00    +0.000 C 
ATOM     13  C   UNL     1       2.752   4.269  21.281  0.00  0.00    +0.000 C 
ATOM     14  C   UNL     1       3.111   3.224  20.219  0.00  0.00    +0.000 C 
ATOM     15  N   UNL     1       2.015   2.734  19.364  0.00  0.00    +0.000 NA
ATOM     16  C   UNL     1       1.041   3.770  18.989  0.00  0.00    +0.000 C 
ATOM     17  C   UNL     1       0.604   4.694  20.116  0.00  0.00    +0.000 C 
BRANCH  15  18
ATOM     18  C   UNL     1       2.563   2.046  18.152  0.00  0.00    +0.000 C 
ATOM     19  C   UNL     1       2.782   3.016  16.979  0.00  0.00    +0.000 C 
ATOM     20  C   UNL     1       3.888   1.306  18.403  0.00  0.00    +0.000 C 
ENDBRANCH  15  18
ENDBRANCH   1  12
BRANCH   2  21
ATOM     21  S   UNL     1       1.371   8.373  21.664  0.00  0.00    +0.000 S 
ATOM     22  H   UNL     1       2.352   7.675  22.254  0.00  0.00    +0.000 HD
ENDBRANCH   2  21
BRANCH   1  23
ATOM     23  C   UNL     1       3.628   6.271  19.316  0.00  0.00    +0.000 C 
BRANCH  23  24
ATOM     24  C   UNL     1       3.581   6.239  17.781  0.00  0.00    +0.000 C 
BRANCH  24  26
ATOM     25  C   UNL     1       5.626   5.126  18.097  0.00  0.00    +0.000 C 
ATOM     26  O   UNL     1       4.875   5.968  17.231  0.00  0.00    +0.000 OA
ENDBRANCH  24  26
ENDBRANCH  23  24
ENDBRANCH   1  23
TORSDOF 8
ENDMDL
MODEL 8
REMARK VINA RESULT:      -5.9      3.900      5.310
REMARK  Name = 
REMARK  12 active torsions:
REMARK  status: ('A' for Active; 'I' for Inactive)
REMARK    1  A    between atoms: C_1  and  O_2
REMARK    2  A    between atoms: O_2  and  C_3
REMARK    3  A    between atoms: C_3  and  C_4
REMARK    4  A    between atoms: C_4  and  N_5
REMARK    5  A    between atoms: N_5  and  C_17
REMARK    6  A    between atoms: C_6  and  S_7
REMARK    7  A    between atoms: N_8  and  C_9
REMARK    8  A    between atoms: C_12  and  O_13
REMARK    9  A    between atoms: O_13  and  C_14
REMARK   10  A    between atoms: N_20  and  C_21
REMARK   11  A    between atoms: C_21  and  C_22
REMARK   12  A    between atoms: C_21  and  C_23
REMARK                            x       y       z     vdW  Elec       q    Type
REMARK                         _______ _______ _______ _____ _____    ______ ____
ROOT
ATOM      1  N   UNL     1       5.286   6.098  17.392  0.00  0.00    +0.000 N 
ATOM      2  C   UNL     1       4.175   6.550  18.112  0.00  0.00    +0.000 C 
ATOM      3  N   UNL     1       3.422   7.524  17.684  0.00  0.00    +0.000 NA
ENDROOT
BRANCH   3   4
ATOM      4  C   UNL     1       2.353   8.134  18.371  0.00  0.00    +0.000 A 
ATOM      5  C   UNL     1       2.056   7.919  19.721  0.00  0.00    +0.000 A 
ATOM      6  C   UNL     1       1.017   8.607  20.356  0.00  0.00    +0.000 A 
ATOM      7  C   UNL     1       0.320   9.611  19.688  0.00  0.00    +0.000 A 
ATOM      8  C   UNL     1       0.628   9.878  18.357  0.00  0.00    +0.000 A 
ATOM      9  C   UNL     1       1.634   9.139  17.709  0.00  0.00    +0.000 A 
BRANCH   7  10
ATOM     10  O   UNL     1      -0.663  10.236  20.413  0.00  0.00    +0.000 OA
ATOM     11  C   UNL     1      -0.951  11.568  19.999  0.00  0.00    +0.000 C 
ENDBRANCH   7  10
ENDBRANCH   3   4
BRANCH   1  12
ATOM     12  C   UNL     1       5.543   4.636  17.180  0.00  0.00    +0.000 C 
ATOM     13  C   UNL     1       6.973   4.233  16.829  0.00  0.00    +0.000 C 
ATOM     14  C   UNL     1       7.356   4.401  15.355  0.00  0.00    +0.000 C 
ATOM     15  N   UNL     1       6.352   4.005  14.352  0.00  0.00    +0.000 NA
ATOM     16  C   UNL     1       4.969   4.330  14.731  0.00  0.00    +0.000 C 
ATOM     17  C   UNL     1       4.593   4.008  16.170  0.00  0.00    +0.000 C 
BRANCH  15  18
ATOM     18  C   UNL     1       6.692   4.581  13.012  0.00  0.00    +0.000 C 
ATOM     19  C   UNL     1       8.021   5.355  13.030  0.00  0.00    +0.000 C 
ATOM     20  C   UNL     1       6.774   3.534  11.888  0.00  0.00    +0.000 C 
ENDBRANCH  15  18
ENDBRANCH   1  12
BRANCH   2  21
ATOM     21  S   UNL     1       3.944   5.750  19.668  0.00  0.00    +0.000 S 
ATOM     22  H   UNL     1       5.081   5.046  19.564  0.00  0.00    +0.000 HD
ENDBRANCH   2  21
BRANCH   1  23
ATOM     23  C   UNL     1       6.281   7.062  16.868  0.00  0.00    +0.000 C 
BRANCH  23  24
ATOM     24  C   UNL     1       7.408   7.520  17.807  0.00  0.00    +0.000 C 
BRANCH  24  26
ATOM     25  C   UNL     1       8.601   9.445  18.433  0.00  0.00    +0.000 C 
ATOM     26  O   UNL     1       7.989   8.748  17.354  0.00  0.00    +0.000 OA
ENDBRANCH  24  26
ENDBRANCH  23  24
ENDBRANCH   1  23
TORSDOF 8
ENDMDL
MODEL 9
REMARK VINA RESULT:      -5.8      3.649      8.927
REMARK  Name = 
REMARK  12 active torsions:
REMARK  status: ('A' for Active; 'I' for Inactive)
REMARK    1  A    between atoms: C_1  and  O_2
REMARK    2  A    between atoms: O_2  and  C_3
REMARK    3  A    between atoms: C_3  and  C_4
REMARK    4  A    between atoms: C_4  and  N_5
REMARK    5  A    between atoms: N_5  and  C_17
REMARK    6  A    between atoms: C_6  and  S_7
REMARK    7  A    between atoms: N_8  and  C_9
REMARK    8  A    between atoms: C_12  and  O_13
REMARK    9  A    between atoms: O_13  and  C_14
REMARK   10  A    between atoms: N_20  and  C_21
REMARK   11  A    between atoms: C_21  and  C_22
REMARK   12  A    between atoms: C_21  and  C_23
REMARK                            x       y       z     vdW  Elec       q    Type
REMARK                         _______ _______ _______ _____ _____    ______ ____
ROOT
ATOM      1  N   UNL     1       0.196  10.783  19.363  0.00  0.00    +0.000 N 
ATOM      2  C   UNL     1       0.967   9.616  19.361  0.00  0.00    +0.000 C 
ATOM      3  N   UNL     1       1.619   9.219  18.305  0.00  0.00    +0.000 NA
ENDROOT
BRANCH   3   4
ATOM      4  C   UNL     1       2.331   8.012  18.152  0.00  0.00    +0.000 A 
ATOM      5  C   UNL     1       1.796   6.743  18.396  0.00  0.00    +0.000 A 
ATOM      6  C   UNL     1       2.540   5.582  18.163  0.00  0.00    +0.000 A 
ATOM      7  C   UNL     1       3.799   5.654  17.572  0.00  0.00    +0.000 A 
ATOM      8  C   UNL     1       4.336   6.903  17.275  0.00  0.00    +0.000 A 
ATOM      9  C   UNL     1       3.605   8.069  17.569  0.00  0.00    +0.000 A 
BRANCH   7  10
ATOM     10  O   UNL     1       4.430   4.453  17.368  0.00  0.00    +0.000 OA
ATOM     11  C   UNL     1       5.158   4.364  16.148  0.00  0.00    +0.000 C 
ENDBRANCH   7  10
ENDBRANCH   3   4
BRANCH   1  12
ATOM     12  C   UNL     1       0.276  11.775  20.484  0.00  0.00    +0.000 C 
ATOM     13  C   UNL     1      -0.619  13.008  20.378  0.00  0.00    +0.000 C 
ATOM     14  C   UNL     1      -0.077  14.134  19.490  0.00  0.00    +0.000 C 
ATOM     15  N   UNL     1       1.362  14.437  19.596  0.00  0.00    +0.000 NA
ATOM     16  C   UNL     1       2.210  13.249  19.774  0.00  0.00    +0.000 C 
ATOM     17  C   UNL     1       1.701  12.226  20.777  0.00  0.00    +0.000 C 
BRANCH  15  18
ATOM     18  C   UNL     1       1.813  15.251  18.424  0.00  0.00    +0.000 C 
ATOM     19  C   UNL     1       1.826  16.758  18.729  0.00  0.00    +0.000 C 
ATOM     20  C   UNL     1       3.207  14.866  17.900  0.00  0.00    +0.000 C 
ENDBRANCH  15  18
ENDBRANCH   1  12
BRANCH   2  21
ATOM     21  S   UNL     1       0.904   8.702  20.870  0.00  0.00    +0.000 S 
ATOM     22  H   UNL     1       2.172   8.278  20.757  0.00  0.00    +0.000 HD
ENDBRANCH   2  21
BRANCH   1  23
ATOM     23  C   UNL     1      -0.776  11.041  18.275  0.00  0.00    +0.000 C 
BRANCH  23  24
ATOM     24  C   UNL     1      -2.015  10.138  18.183  0.00  0.00    +0.000 C 
BRANCH  24  26
ATOM     25  C   UNL     1      -2.633  10.846  16.030  0.00  0.00    +0.000 C 
ATOM     26  O   UNL     1      -2.259   9.732  16.832  0.00  0.00    +0.000 OA
ENDBRANCH  24  26
ENDBRANCH  23  24
ENDBRANCH   1  23
TORSDOF 8
ENDMDL
