MODEL 1
REMARK VINA RESULT:      -8.3      0.000      0.000
REMARK  Name = 
REMARK  5 active torsions:
REMARK  status: ('A' for Active; 'I' for Inactive)
REMARK    1  A    between atoms: C_2  and  C_3
REMARK    2  A    between atoms: C_3  and  N_4
REMARK    3  A    between atoms: N_7  and  C_8
REMARK    4  A    between atoms: C_8  and  C_9
REMARK    5  A    between atoms: N_17  and  C_18
REMARK                            x       y       z     vdW  Elec       q    Type
REMARK                         _______ _______ _______ _____ _____    ______ ____
ROOT
ATOM      1  O   UNL     1       2.019   8.136  18.037  0.00  0.00    +0.000 OA
ATOM      2  C   UNL     1       2.245   7.630  19.142  0.00  0.00    +0.000 C 
ATOM      3  N   UNL     1       2.879   6.422  19.297  0.00  0.00    +0.000 N 
ATOM      4  H   UNL     1       2.708   5.986  20.197  0.00  0.00    +0.000 HD
ENDROOT
BRANCH   3   5
ATOM      5  C   UNL     1       3.225   5.534  18.204  0.00  0.00    +0.000 C 
ATOM      6  C   UNL     1       3.547   4.237  18.859  0.00  0.00    +0.000 A 
ATOM      7  C   UNL     1       2.981   3.082  19.386  0.00  0.00    +0.000 A 
ATOM      8  N   UNL     1       3.928   2.214  19.792  0.00  0.00    +0.000 NA
ATOM      9  N   UNL     1       5.104   2.831  19.506  0.00  0.00    +0.000 N 
ATOM     10  C   UNL     1       4.901   4.064  19.026  0.00  0.00    +0.000 A 
ATOM     11  C   UNL     1       5.593   5.134  18.432  0.00  0.00    +0.000 A 
ATOM     12  S   UNL     1       7.149   5.694  18.338  0.00  0.00    +0.000 S 
ATOM     13  C   UNL     1       6.666   6.764  17.058  0.00  0.00    +0.000 A 
ATOM     14  C   UNL     1       5.319   6.626  16.742  0.00  0.00    +0.000 A 
ATOM     15  C   UNL     1       4.659   5.916  17.774  0.00  0.00    +0.000 A 
ATOM     16  H   UNL     1       5.983   2.315  19.618  0.00  0.00    +0.000 HD
ENDBRANCH   3   5
BRANCH   2  17
ATOM     17  C   UNL     1       1.804   8.296  20.465  0.00  0.00    +0.000 C 
BRANCH  17  18
ATOM     18  N   UNL     1       0.451   8.910  20.342  0.00  0.00    +0.000 NA
ATOM     19  C   UNL     1      -0.333   8.727  21.588  0.00  0.00    +0.000 C 
ATOM     20  C   UNL     1      -0.011   9.686  22.753  0.00  0.00    +0.000 C 
ATOM     21  N   UNL     1      -0.038  11.119  22.377  0.00  0.00    +0.000 NA
ATOM     22  C   UNL     1       0.858  11.284  21.215  0.00  0.00    +0.000 C 
ATOM     23  C   UNL     1       0.533  10.351  20.027  0.00  0.00    +0.000 C 
BRANCH  21  24
ATOM     24  C   UNL     1      -1.436  11.532  22.110  0.00  0.00    +0.000 C 
BRANCH  24  25
ATOM     25  C   UNL     1      -2.015  12.545  23.076  0.00  0.00    +0.000 A 
ATOM     26  C   UNL     1      -1.293  13.709  23.390  0.00  0.00    +0.000 A 
ATOM     27  C   UNL     1      -1.831  14.671  24.245  0.00  0.00    +0.000 A 
ATOM     28  C   UNL     1      -3.103  14.491  24.782  0.00  0.00    +0.000 A 
ATOM     29  C   UNL     1      -3.831  13.344  24.474  0.00  0.00    +0.000 A 
ATOM     30  C   UNL     1      -3.290  12.371  23.631  0.00  0.00    +0.000 A 
ENDBRANCH  24  25
ENDBRANCH  21  24
ENDBRANCH  17  18
ENDBRANCH   2  17
TORSDOF 5
ENDMDL
MODEL 2
REMARK VINA RESULT:      -7.6      0.856      1.169
REMARK  Name = 
REMARK  5 active torsions:
REMARK  status: ('A' for Active; 'I' for Inactive)
REMARK    1  A    between atoms: C_2  and  C_3
REMARK    2  A    between atoms: C_3  and  N_4
REMARK    3  A    between atoms: N_7  and  C_8
REMARK    4  A    between atoms: C_8  and  C_9
REMARK    5  A    between atoms: N_17  and  C_18
REMARK                            x       y       z     vdW  Elec       q    Type
REMARK                         _______ _______ _______ _____ _____    ______ ____
ROOT
ATOM      1  O   UNL     1       1.874   8.151  18.223  0.00  0.00    +0.000 OA
ATOM      2  C   UNL     1       2.156   7.628  19.306  0.00  0.00    +0.000 C 
ATOM      3  N   UNL     1       2.864   6.456  19.409  0.00  0.00    +0.000 N 
ATOM      4  H   UNL     1       2.742   5.984  20.299  0.00  0.00    +0.000 HD
ENDROOT
BRANCH   3   5
ATOM      5  C   UNL     1       3.235   5.623  18.281  0.00  0.00    +0.000 C 
ATOM      6  C   UNL     1       3.547   4.296  18.879  0.00  0.00    +0.000 A 
ATOM      7  C   UNL     1       2.973   3.116  19.338  0.00  0.00    +0.000 A 
ATOM      8  N   UNL     1       3.914   2.230  19.720  0.00  0.00    +0.000 NA
ATOM      9  N   UNL     1       5.094   2.863  19.489  0.00  0.00    +0.000 N 
ATOM     10  C   UNL     1       4.898   4.117  19.066  0.00  0.00    +0.000 A 
ATOM     11  C   UNL     1       5.599   5.216  18.538  0.00  0.00    +0.000 A 
ATOM     12  S   UNL     1       7.155   5.782  18.504  0.00  0.00    +0.000 S 
ATOM     13  C   UNL     1       6.695   6.912  17.267  0.00  0.00    +0.000 A 
ATOM     14  C   UNL     1       5.355   6.788  16.917  0.00  0.00    +0.000 A 
ATOM     15  C   UNL     1       4.676   6.027  17.900  0.00  0.00    +0.000 A 
ATOM     16  H   UNL     1       5.972   2.343  19.594  0.00  0.00    +0.000 HD
ENDBRANCH   3   5
BRANCH   2  17
ATOM     17  C   UNL     1       1.710   8.227  20.658  0.00  0.00    +0.000 C 
BRANCH  17  18
ATOM     18  N   UNL     1       0.379   8.890  20.549  0.00  0.00    +0.000 NA
ATOM     19  C   UNL     1      -0.443   8.639  21.757  0.00  0.00    +0.000 C 
ATOM     20  C   UNL     1      -0.125   9.498  22.999  0.00  0.00    +0.000 C 
ATOM     21  N   UNL     1      -0.100  10.956  22.731  0.00  0.00    +0.000 NA
ATOM     22  C   UNL     1       0.831  11.178  21.608  0.00  0.00    +0.000 C 
ATOM     23  C   UNL     1       0.512  10.348  20.345  0.00  0.00    +0.000 C 
BRANCH  21  24
ATOM     24  C   UNL     1      -1.478  11.430  22.461  0.00  0.00    +0.000 C 
BRANCH  24  25
ATOM     25  C   UNL     1      -1.646  12.933  22.369  0.00  0.00    +0.000 A 
ATOM     26  C   UNL     1      -1.304  13.746  23.462  0.00  0.00    +0.000 A 
ATOM     27  C   UNL     1      -1.413  15.135  23.378  0.00  0.00    +0.000 A 
ATOM     28  C   UNL     1      -1.847  15.728  22.195  0.00  0.00    +0.000 A 
ATOM     29  C   UNL     1      -2.184  14.932  21.102  0.00  0.00    +0.000 A 
ATOM     30  C   UNL     1      -2.091  13.541  21.188  0.00  0.00    +0.000 A 
ENDBRANCH  24  25
ENDBRANCH  21  24
ENDBRANCH  17  18
ENDBRANCH   2  17
TORSDOF 5
ENDMDL
MODEL 3
REMARK VINA RESULT:      -7.6      1.370      1.783
REMARK  Name = 
REMARK  5 active torsions:
REMARK  status: ('A' for Active; 'I' for Inactive)
REMARK    1  A    between atoms: C_2  and  C_3
REMARK    2  A    between atoms: C_3  and  N_4
REMARK    3  A    between atoms: N_7  and  C_8
REMARK    4  A    between atoms: C_8  and  C_9
REMARK    5  A    between atoms: N_17  and  C_18
REMARK                            x       y       z     vdW  Elec       q    Type
REMARK                         _______ _______ _______ _____ _____    ______ ____
ROOT
ATOM      1  O   UNL     1       2.553   8.496  17.198  0.00  0.00    +0.000 OA
ATOM      2  C   UNL     1       2.483   8.015  18.334  0.00  0.00    +0.000 C 
ATOM      3  N   UNL     1       3.029   6.800  18.667  0.00  0.00    +0.000 N 
ATOM      4  H   UNL     1       2.627   6.389  19.504  0.00  0.00    +0.000 HD
ENDROOT
BRANCH   3   5
ATOM      5  C   UNL     1       3.617   5.879  17.714  0.00  0.00    +0.000 C 
ATOM      6  C   UNL     1       3.670   4.576  18.432  0.00  0.00    +0.000 A 
ATOM      7  C   UNL     1       2.916   3.461  18.779  0.00  0.00    +0.000 A 
ATOM      8  N   UNL     1       3.662   2.549  19.432  0.00  0.00    +0.000 NA
ATOM      9  N   UNL     1       4.903   3.098  19.488  0.00  0.00    +0.000 N 
ATOM     10  C   UNL     1       4.912   4.333  18.971  0.00  0.00    +0.000 A 
ATOM     11  C   UNL     1       5.801   5.355  18.595  0.00  0.00    +0.000 A 
ATOM     12  S   UNL     1       7.349   5.829  18.942  0.00  0.00    +0.000 S 
ATOM     13  C   UNL     1       7.304   6.904  17.578  0.00  0.00    +0.000 A 
ATOM     14  C   UNL     1       6.093   6.835  16.898  0.00  0.00    +0.000 A 
ATOM     15  C   UNL     1       5.132   6.176  17.703  0.00  0.00    +0.000 A 
ATOM     16  H   UNL     1       5.686   2.537  19.841  0.00  0.00    +0.000 HD
ENDBRANCH   3   5
BRANCH   2  17
ATOM     17  C   UNL     1       1.740   8.721  19.490  0.00  0.00    +0.000 C 
BRANCH  17  18
ATOM     18  N   UNL     1       0.786   9.747  18.980  0.00  0.00    +0.000 NA
ATOM     19  C   UNL     1      -0.492   9.708  19.731  0.00  0.00    +0.000 C 
ATOM     20  C   UNL     1      -0.502  10.396  21.112  0.00  0.00    +0.000 C 
ATOM     21  N   UNL     1      -0.001  11.791  21.093  0.00  0.00    +0.000 NA
ATOM     22  C   UNL     1       1.330  11.768  20.456  0.00  0.00    +0.000 C 
ATOM     23  C   UNL     1       1.356  11.108  19.060  0.00  0.00    +0.000 C 
BRANCH  21  24
ATOM     24  C   UNL     1      -0.979  12.655  20.390  0.00  0.00    +0.000 C 
BRANCH  24  25
ATOM     25  C   UNL     1      -2.342  12.763  21.042  0.00  0.00    +0.000 A 
ATOM     26  C   UNL     1      -3.505  12.680  20.257  0.00  0.00    +0.000 A 
ATOM     27  C   UNL     1      -4.768  12.736  20.848  0.00  0.00    +0.000 A 
ATOM     28  C   UNL     1      -4.884  12.856  22.230  0.00  0.00    +0.000 A 
ATOM     29  C   UNL     1      -3.739  12.934  23.020  0.00  0.00    +0.000 A 
ATOM     30  C   UNL     1      -2.473  12.895  22.431  0.00  0.00    +0.000 A 
ENDBRANCH  24  25
ENDBRANCH  21  24
ENDBRANCH  17  18
ENDBRANCH   2  17
TORSDOF 5
ENDMDL
MODEL 4
REMARK VINA RESULT:      -7.5      0.871      1.222
REMARK  Name = 
REMARK  5 active torsions:
REMARK  status: ('A' for Active; 'I' for Inactive)
REMARK    1  A    between atoms: C_2  and  C_3
REMARK    2  A    between atoms: C_3  and  N_4
REMARK    3  A    between atoms: N_7  and  C_8
REMARK    4  A    between atoms: C_8  and  C_9
REMARK    5  A    between atoms: N_17  and  C_18
REMARK                            x       y       z     vdW  Elec       q    Type
REMARK                         _______ _______ _______ _____ _____    ______ ____
ROOT
ATOM      1  O   UNL     1       2.237   8.136  18.473  0.00  0.00    +0.000 OA
ATOM      2  C   UNL     1       2.109   7.271  19.347  0.00  0.00    +0.000 C 
ATOM      3  N   UNL     1       2.477   5.961  19.163  0.00  0.00    +0.000 N 
ATOM      4  H   UNL     1       2.029   5.318  19.809  0.00  0.00    +0.000 HD
ENDROOT
BRANCH   3   5
ATOM      5  C   UNL     1       2.916   5.405  17.898  0.00  0.00    +0.000 C 
ATOM      6  C   UNL     1       3.084   3.950  18.163  0.00  0.00    +0.000 A 
ATOM      7  C   UNL     1       2.396   2.745  18.255  0.00  0.00    +0.000 A 
ATOM      8  N   UNL     1       3.237   1.717  18.480  0.00  0.00    +0.000 NA
ATOM      9  N   UNL     1       4.470   2.286  18.522  0.00  0.00    +0.000 N 
ATOM     10  C   UNL     1       4.394   3.618  18.416  0.00  0.00    +0.000 A 
ATOM     11  C   UNL     1       5.211   4.750  18.250  0.00  0.00    +0.000 A 
ATOM     12  S   UNL     1       6.793   5.175  18.498  0.00  0.00    +0.000 S 
ATOM     13  C   UNL     1       6.535   6.610  17.554  0.00  0.00    +0.000 A 
ATOM     14  C   UNL     1       5.234   6.690  17.068  0.00  0.00    +0.000 A 
ATOM     15  C   UNL     1       4.411   5.769  17.760  0.00  0.00    +0.000 A 
ATOM     16  H   UNL     1       5.300   1.685  18.568  0.00  0.00    +0.000 HD
ENDBRANCH   3   5
BRANCH   2  17
ATOM     17  C   UNL     1       1.488   7.573  20.729  0.00  0.00    +0.000 C 
BRANCH  17  18
ATOM     18  N   UNL     1       1.665   9.005  21.105  0.00  0.00    +0.000 NA
ATOM     19  C   UNL     1       0.854   9.890  20.235  0.00  0.00    +0.000 C 
ATOM     20  C   UNL     1      -0.649   9.996  20.567  0.00  0.00    +0.000 C 
ATOM     21  N   UNL     1      -0.930  10.330  21.983  0.00  0.00    +0.000 NA
ATOM     22  C   UNL     1      -0.211   9.347  22.816  0.00  0.00    +0.000 C 
ATOM     23  C   UNL     1       1.301   9.246  22.517  0.00  0.00    +0.000 C 
BRANCH  21  24
ATOM     24  C   UNL     1      -0.530  11.733  22.245  0.00  0.00    +0.000 C 
BRANCH  24  25
ATOM     25  C   UNL     1      -1.516  12.554  23.052  0.00  0.00    +0.000 A 
ATOM     26  C   UNL     1      -1.180  13.858  23.454  0.00  0.00    +0.000 A 
ATOM     27  C   UNL     1      -2.093  14.642  24.160  0.00  0.00    +0.000 A 
ATOM     28  C   UNL     1      -3.358  14.140  24.456  0.00  0.00    +0.000 A 
ATOM     29  C   UNL     1      -3.704  12.851  24.058  0.00  0.00    +0.000 A 
ATOM     30  C   UNL     1      -2.788  12.057  23.365  0.00  0.00    +0.000 A 
ENDBRANCH  24  25
ENDBRANCH  21  24
ENDBRANCH  17  18
ENDBRANCH   2  17
TORSDOF 5
ENDMDL
MODEL 5
REMARK VINA RESULT:      -7.4      1.962      2.501
REMARK  Name = 
REMARK  5 active torsions:
REMARK  status: ('A' for Active; 'I' for Inactive)
REMARK    1  A    between atoms: C_2  and  C_3
REMARK    2  A    between atoms: C_3  and  N_4
REMARK    3  A    between atoms: N_7  and  C_8
REMARK    4  A    between atoms: C_8  and  C_9
REMARK    5  A    between atoms: N_17  and  C_18
REMARK                            x       y       z     vdW  Elec       q    Type
REMARK                         _______ _______ _______ _____ _____    ______ ____
ROOT
ATOM      1  O   UNL     1       3.048   8.416  16.980  0.00  0.00    +0.000 OA
ATOM      2  C   UNL     1       2.748   7.900  18.062  0.00  0.00    +0.000 C 
ATOM      3  N   UNL     1       3.171   6.649  18.438  0.00  0.00    +0.000 N 
ATOM      4  H   UNL     1       2.605   6.230  19.169  0.00  0.00    +0.000 HD
ENDROOT
BRANCH   3   5
ATOM      5  C   UNL     1       3.886   5.732  17.570  0.00  0.00    +0.000 C 
ATOM      6  C   UNL     1       3.865   4.433  18.295  0.00  0.00    +0.000 A 
ATOM      7  C   UNL     1       3.087   3.309  18.550  0.00  0.00    +0.000 A 
ATOM      8  N   UNL     1       3.756   2.409  19.296  0.00  0.00    +0.000 NA
ATOM      9  N   UNL     1       4.974   2.974  19.504  0.00  0.00    +0.000 N 
ATOM     10  C   UNL     1       5.031   4.207  18.987  0.00  0.00    +0.000 A 
ATOM     11  C   UNL     1       5.948   5.240  18.721  0.00  0.00    +0.000 A 
ATOM     12  S   UNL     1       7.435   5.735  19.257  0.00  0.00    +0.000 S 
ATOM     13  C   UNL     1       7.548   6.805  17.893  0.00  0.00    +0.000 A 
ATOM     14  C   UNL     1       6.433   6.718  17.067  0.00  0.00    +0.000 A 
ATOM     15  C   UNL     1       5.387   6.050  17.748  0.00  0.00    +0.000 A 
ATOM     16  H   UNL     1       5.713   2.424  19.955  0.00  0.00    +0.000 HD
ENDBRANCH   3   5
BRANCH   2  17
ATOM     17  C   UNL     1       1.835   8.602  19.092  0.00  0.00    +0.000 C 
BRANCH  17  18
ATOM     18  N   UNL     1       1.014   9.670  18.454  0.00  0.00    +0.000 NA
ATOM     19  C   UNL     1      -0.401   9.590  18.893  0.00  0.00    +0.000 C 
ATOM     20  C   UNL     1      -0.726  10.179  20.281  0.00  0.00    +0.000 C 
ATOM     21  N   UNL     1      -0.244  11.567  20.474  0.00  0.00    +0.000 NA
ATOM     22  C   UNL     1       1.197  11.578  20.154  0.00  0.00    +0.000 C 
ATOM     23  C   UNL     1       1.541  11.017  18.756  0.00  0.00    +0.000 C 
BRANCH  21  24
ATOM     24  C   UNL     1      -1.044  12.487  19.632  0.00  0.00    +0.000 C 
BRANCH  24  25
ATOM     25  C   UNL     1      -2.544  12.417  19.830  0.00  0.00    +0.000 A 
ATOM     26  C   UNL     1      -3.118  12.886  21.025  0.00  0.00    +0.000 A 
ATOM     27  C   UNL     1      -4.501  12.868  21.206  0.00  0.00    +0.000 A 
ATOM     28  C   UNL     1      -5.329  12.398  20.189  0.00  0.00    +0.000 A 
ATOM     29  C   UNL     1      -4.773  11.936  18.998  0.00  0.00    +0.000 A 
ATOM     30  C   UNL     1      -3.387  11.938  18.819  0.00  0.00    +0.000 A 
ENDBRANCH  24  25
ENDBRANCH  21  24
ENDBRANCH  17  18
ENDBRANCH   2  17
TORSDOF 5
ENDMDL
MODEL 6
REMARK VINA RESULT:      -7.3      1.255      1.320
REMARK  Name = 
REMARK  5 active torsions:
REMARK  status: ('A' for Active; 'I' for Inactive)
REMARK    1  A    between atoms: C_2  and  C_3
REMARK    2  A    between atoms: C_3  and  N_4
REMARK    3  A    between atoms: N_7  and  C_8
REMARK    4  A    between atoms: C_8  and  C_9
REMARK    5  A    between atoms: N_17  and  C_18
REMARK                            x       y       z     vdW  Elec       q    Type
REMARK                         _______ _______ _______ _____ _____    ______ ____
ROOT
ATOM      1  O   UNL     1       1.218   8.854  18.049  0.00  0.00    +0.000 OA
ATOM      2  C   UNL     1       1.654   8.431  19.126  0.00  0.00    +0.000 C 
ATOM      3  N   UNL     1       2.368   7.264  19.237  0.00  0.00    +0.000 N 
ATOM      4  H   UNL     1       2.376   6.880  20.177  0.00  0.00    +0.000 HD
ENDROOT
BRANCH   3   5
ATOM      5  C   UNL     1       2.571   6.322  18.153  0.00  0.00    +0.000 C 
ATOM      6  C   UNL     1       2.418   4.983  18.783  0.00  0.00    +0.000 A 
ATOM      7  C   UNL     1       1.480   4.042  19.192  0.00  0.00    +0.000 A 
ATOM      8  N   UNL     1       2.075   2.929  19.664  0.00  0.00    +0.000 NA
ATOM      9  N   UNL     1       3.405   3.175  19.542  0.00  0.00    +0.000 N 
ATOM     10  C   UNL     1       3.632   4.417  19.096  0.00  0.00    +0.000 A 
ATOM     11  C   UNL     1       4.673   5.239  18.632  0.00  0.00    +0.000 A 
ATOM     12  S   UNL     1       6.324   5.316  18.742  0.00  0.00    +0.000 S 
ATOM     13  C   UNL     1       6.334   6.491  17.463  0.00  0.00    +0.000 A 
ATOM     14  C   UNL     1       5.054   6.760  16.989  0.00  0.00    +0.000 A 
ATOM     15  C   UNL     1       4.095   6.268  17.907  0.00  0.00    +0.000 A 
ATOM     16  H   UNL     1       4.075   2.421  19.731  0.00  0.00    +0.000 HD
ENDBRANCH   3   5
BRANCH   2  17
ATOM     17  C   UNL     1       1.409   9.162  20.464  0.00  0.00    +0.000 C 
BRANCH  17  18
ATOM     18  N   UNL     1      -0.038   9.461  20.666  0.00  0.00    +0.000 NA
ATOM     19  C   UNL     1      -0.511   8.953  21.977  0.00  0.00    +0.000 C 
ATOM     20  C   UNL     1      -0.169   9.810  23.213  0.00  0.00    +0.000 C 
ATOM     21  N   UNL     1      -0.557  11.234  23.084  0.00  0.00    +0.000 NA
ATOM     22  C   UNL     1       0.042  11.740  21.833  0.00  0.00    +0.000 C 
ATOM     23  C   UNL     1      -0.312  10.911  20.579  0.00  0.00    +0.000 C 
BRANCH  21  24
ATOM     24  C   UNL     1      -2.035  11.346  23.119  0.00  0.00    +0.000 C 
BRANCH  24  25
ATOM     25  C   UNL     1      -2.590  12.740  22.908  0.00  0.00    +0.000 A 
ATOM     26  C   UNL     1      -2.153  13.801  23.718  0.00  0.00    +0.000 A 
ATOM     27  C   UNL     1      -2.623  15.098  23.509  0.00  0.00    +0.000 A 
ATOM     28  C   UNL     1      -3.521  15.353  22.475  0.00  0.00    +0.000 A 
ATOM     29  C   UNL     1      -3.958  14.310  21.661  0.00  0.00    +0.000 A 
ATOM     30  C   UNL     1      -3.501  13.008  21.878  0.00  0.00    +0.000 A 
ENDBRANCH  24  25
ENDBRANCH  21  24
ENDBRANCH  17  18
ENDBRANCH   2  17
TORSDOF 5
ENDMDL
MODEL 7
REMARK VINA RESULT:      -7.2      1.069      1.382
REMARK  Name = 
REMARK  5 active torsions:
REMARK  status: ('A' for Active; 'I' for Inactive)
REMARK    1  A    between atoms: C_2  and  C_3
REMARK    2  A    between atoms: C_3  and  N_4
REMARK    3  A    between atoms: N_7  and  C_8
REMARK    4  A    between atoms: C_8  and  C_9
REMARK    5  A    between atoms: N_17  and  C_18
REMARK                            x       y       z     vdW  Elec       q    Type
REMARK                         _______ _______ _______ _____ _____    ______ ____
ROOT
ATOM      1  O   UNL     1       2.109   7.774  18.243  0.00  0.00    +0.000 OA
ATOM      2  C   UNL     1       1.943   7.554  19.448  0.00  0.00    +0.000 C 
ATOM      3  N   UNL     1       1.904   6.288  19.978  0.00  0.00    +0.000 N 
ATOM      4  H   UNL     1       1.448   6.240  20.884  0.00  0.00    +0.000 HD
ENDROOT
BRANCH   3   5
ATOM      5  C   UNL     1       1.904   5.071  19.190  0.00  0.00    +0.000 C 
ATOM      6  C   UNL     1       2.044   3.975  20.187  0.00  0.00    +0.000 A 
ATOM      7  C   UNL     1       1.336   3.186  21.086  0.00  0.00    +0.000 A 
ATOM      8  N   UNL     1       2.134   2.270  21.668  0.00  0.00    +0.000 NA
ATOM      9  N   UNL     1       3.358   2.484  21.120  0.00  0.00    +0.000 N 
ATOM     10  C   UNL     1       3.345   3.541  20.300  0.00  0.00    +0.000 A 
ATOM     11  C   UNL     1       4.149   4.203  19.355  0.00  0.00    +0.000 A 
ATOM     12  S   UNL     1       5.757   4.328  18.979  0.00  0.00    +0.000 S 
ATOM     13  C   UNL     1       5.325   5.073  17.470  0.00  0.00    +0.000 A 
ATOM     14  C   UNL     1       3.947   5.175  17.312  0.00  0.00    +0.000 A 
ATOM     15  C   UNL     1       3.309   4.964  18.559  0.00  0.00    +0.000 A 
ATOM     16  H   UNL     1       4.120   1.828  21.321  0.00  0.00    +0.000 HD
ENDBRANCH   3   5
BRANCH   2  17
ATOM     17  C   UNL     1       1.729   8.686  20.477  0.00  0.00    +0.000 C 
BRANCH  17  18
ATOM     18  N   UNL     1       0.318   9.166  20.476  0.00  0.00    +0.000 NA
ATOM     19  C   UNL     1      -0.329   8.928  21.789  0.00  0.00    +0.000 C 
ATOM     20  C   UNL     1       0.004   9.931  22.913  0.00  0.00    +0.000 C 
ATOM     21  N   UNL     1      -0.195  11.349  22.532  0.00  0.00    +0.000 NA
ATOM     22  C   UNL     1       0.571  11.581  21.292  0.00  0.00    +0.000 C 
ATOM     23  C   UNL     1       0.232  10.603  20.145  0.00  0.00    +0.000 C 
BRANCH  21  24
ATOM     24  C   UNL     1      -1.645  11.622  22.392  0.00  0.00    +0.000 C 
BRANCH  24  25
ATOM     25  C   UNL     1      -2.194  12.718  23.283  0.00  0.00    +0.000 A 
ATOM     26  C   UNL     1      -1.392  13.825  23.608  0.00  0.00    +0.000 A 
ATOM     27  C   UNL     1      -1.897  14.863  24.392  0.00  0.00    +0.000 A 
ATOM     28  C   UNL     1      -3.213  14.816  24.844  0.00  0.00    +0.000 A 
ATOM     29  C   UNL     1      -4.020  13.726  24.523  0.00  0.00    +0.000 A 
ATOM     30  C   UNL     1      -3.513  12.678  23.752  0.00  0.00    +0.000 A 
ENDBRANCH  24  25
ENDBRANCH  21  24
ENDBRANCH  17  18
ENDBRANCH   2  17
TORSDOF 5
ENDMDL
MODEL 8
REMARK VINA RESULT:      -7.1      1.461      1.628
REMARK  Name = 
REMARK  5 active torsions:
REMARK  status: ('A' for Active; 'I' for Inactive)
REMARK    1  A    between atoms: C_2  and  C_3
REMARK    2  A    between atoms: C_3  and  N_4
REMARK    3  A    between atoms: N_7  and  C_8
REMARK    4  A    between atoms: C_8  and  C_9
REMARK    5  A    between atoms: N_17  and  C_18
REMARK                            x       y       z     vdW  Elec       q    Type
REMARK                         _______ _______ _______ _____ _____    ______ ____
ROOT
ATOM      1  O   UNL     1       1.739   8.931  17.340  0.00  0.00    +0.000 OA
ATOM      2  C   UNL     1       1.857   8.692  18.547  0.00  0.00    +0.000 C 
ATOM      3  N   UNL     1       2.249   7.469  19.033  0.00  0.00    +0.000 N 
ATOM      4  H   UNL     1       1.993   7.316  20.003  0.00  0.00    +0.000 HD
ENDROOT
BRANCH   3   5
ATOM      5  C   UNL     1       2.427   6.283  18.217  0.00  0.00    +0.000 C 
ATOM      6  C   UNL     1       2.245   5.146  19.159  0.00  0.00    +0.000 A 
ATOM      7  C   UNL     1       1.287   4.357  19.786  0.00  0.00    +0.000 A 
ATOM      8  N   UNL     1       1.859   3.384  20.521  0.00  0.00    +0.000 NA
ATOM      9  N   UNL     1       3.194   3.561  20.345  0.00  0.00    +0.000 N 
ATOM     10  C   UNL     1       3.447   4.648  19.606  0.00  0.00    +0.000 A 
ATOM     11  C   UNL     1       4.505   5.306  18.955  0.00  0.00    +0.000 A 
ATOM     12  S   UNL     1       6.158   5.369  19.047  0.00  0.00    +0.000 S 
ATOM     13  C   UNL     1       6.191   6.190  17.516  0.00  0.00    +0.000 A 
ATOM     14  C   UNL     1       4.916   6.362  16.987  0.00  0.00    +0.000 A 
ATOM     15  C   UNL     1       3.948   6.135  17.996  0.00  0.00    +0.000 A 
ATOM     16  H   UNL     1       3.847   2.862  20.717  0.00  0.00    +0.000 HD
ENDBRANCH   3   5
BRANCH   2  17
ATOM     17  C   UNL     1       1.543   9.742  19.635  0.00  0.00    +0.000 C 
BRANCH  17  18
ATOM     18  N   UNL     1       0.080   9.818  19.914  0.00  0.00    +0.000 NA
ATOM     19  C   UNL     1      -0.177  10.344  21.277  0.00  0.00    +0.000 C 
ATOM     20  C   UNL     1      -0.071  11.873  21.457  0.00  0.00    +0.000 C 
ATOM     21  N   UNL     1      -0.874  12.651  20.484  0.00  0.00    +0.000 NA
ATOM     22  C   UNL     1      -0.493  12.190  19.135  0.00  0.00    +0.000 C 
ATOM     23  C   UNL     1      -0.620  10.664  18.926  0.00  0.00    +0.000 C 
BRANCH  21  24
ATOM     24  C   UNL     1      -2.315  12.476  20.784  0.00  0.00    +0.000 C 
BRANCH  24  25
ATOM     25  C   UNL     1      -2.794  13.104  22.077  0.00  0.00    +0.000 A 
ATOM     26  C   UNL     1      -2.741  14.498  22.243  0.00  0.00    +0.000 A 
ATOM     27  C   UNL     1      -3.217  15.095  23.410  0.00  0.00    +0.000 A 
ATOM     28  C   UNL     1      -3.770  14.309  24.418  0.00  0.00    +0.000 A 
ATOM     29  C   UNL     1      -3.833  12.925  24.263  0.00  0.00    +0.000 A 
ATOM     30  C   UNL     1      -3.343  12.323  23.103  0.00  0.00    +0.000 A 
ENDBRANCH  24  25
ENDBRANCH  21  24
ENDBRANCH  17  18
ENDBRANCH   2  17
TORSDOF 5
ENDMDL
MODEL 9
REMARK VINA RESULT:      -7.1      3.888      5.008
REMARK  Name = 
REMARK  5 active torsions:
REMARK  status: ('A' for Active; 'I' for Inactive)
REMARK    1  A    between atoms: C_2  and  C_3
REMARK    2  A    between atoms: C_3  and  N_4
REMARK    3  A    between atoms: N_7  and  C_8
REMARK    4  A    between atoms: C_8  and  C_9
REMARK    5  A    between atoms: N_17  and  C_18
REMARK                            x       y       z     vdW  Elec       q    Type
REMARK                         _______ _______ _______ _____ _____    ______ ____
ROOT
ATOM      1  O   UNL     1       1.477   8.370  21.190  0.00  0.00    +0.000 OA
ATOM      2  C   UNL     1       1.471   8.506  19.962  0.00  0.00    +0.000 C 
ATOM      3  N   UNL     1       2.190   7.698  19.116  0.00  0.00    +0.000 N 
ATOM      4  H   UNL     1       2.355   8.110  18.202  0.00  0.00    +0.000 HD
ENDROOT
BRANCH   3   5
ATOM      5  C   UNL     1       3.142   6.696  19.554  0.00  0.00    +0.000 C 
ATOM      6  C   UNL     1       3.845   6.274  18.312  0.00  0.00    +0.000 A 
ATOM      7  C   UNL     1       4.871   6.615  17.439  0.00  0.00    +0.000 A 
ATOM      8  N   UNL     1       5.025   5.686  16.476  0.00  0.00    +0.000 NA
ATOM      9  N   UNL     1       4.086   4.745  16.756  0.00  0.00    +0.000 N 
ATOM     10  C   UNL     1       3.323   5.112  17.792  0.00  0.00    +0.000 A 
ATOM     11  C   UNL     1       2.333   4.609  18.655  0.00  0.00    +0.000 A 
ATOM     12  S   UNL     1       1.206   3.396  18.660  0.00  0.00    +0.000 S 
ATOM     13  C   UNL     1       0.978   3.642  20.364  0.00  0.00    +0.000 A 
ATOM     14  C   UNL     1       1.803   4.645  20.863  0.00  0.00    +0.000 A 
ATOM     15  C   UNL     1       2.332   5.403  19.790  0.00  0.00    +0.000 A 
ATOM     16  H   UNL     1       4.080   3.867  16.224  0.00  0.00    +0.000 HD
ENDBRANCH   3   5
BRANCH   2  17
ATOM     17  C   UNL     1       0.677   9.627  19.255  0.00  0.00    +0.000 C 
BRANCH  17  18
ATOM     18  N   UNL     1       0.724  10.901  20.029  0.00  0.00    +0.000 NA
ATOM     19  C   UNL     1       1.776  11.805  19.506  0.00  0.00    +0.000 C 
ATOM     20  C   UNL     1       1.430  12.601  18.230  0.00  0.00    +0.000 C 
ATOM     21  N   UNL     1       0.155  13.351  18.317  0.00  0.00    +0.000 NA
ATOM     22  C   UNL     1      -0.892  12.389  18.713  0.00  0.00    +0.000 C 
ATOM     23  C   UNL     1      -0.576  11.602  20.004  0.00  0.00    +0.000 C 
BRANCH  21  24
ATOM     24  C   UNL     1       0.311  14.479  19.266  0.00  0.00    +0.000 C 
BRANCH  24  25
ATOM     25  C   UNL     1       0.442  15.851  18.635  0.00  0.00    +0.000 A 
ATOM     26  C   UNL     1       1.698  16.307  18.201  0.00  0.00    +0.000 A 
ATOM     27  C   UNL     1       1.829  17.550  17.580  0.00  0.00    +0.000 A 
ATOM     28  C   UNL     1       0.703  18.342  17.369  0.00  0.00    +0.000 A 
ATOM     29  C   UNL     1      -0.549  17.899  17.790  0.00  0.00    +0.000 A 
ATOM     30  C   UNL     1      -0.680  16.662  18.426  0.00  0.00    +0.000 A 
ENDBRANCH  24  25
ENDBRANCH  21  24
ENDBRANCH  17  18
ENDBRANCH   2  17
TORSDOF 5
ENDMDL
