MODEL 1
REMARK VINA RESULT:      -8.0      0.000      0.000
REMARK  Name = 
REMARK  6 active torsions:
REMARK  status: ('A' for Active; 'I' for Inactive)
REMARK    1  A    between atoms: C_1  and  O_2
REMARK    2  A    between atoms: O_2  and  C_3
REMARK    3  A    between atoms: C_8  and  N_9
REMARK    4  A    between atoms: N_12  and  C_13
REMARK    5  A    between atoms: C_13  and  C_14
REMARK    6  A    between atoms: C_14  and  C_15
REMARK                            x       y       z     vdW  Elec       q    Type
REMARK                         _______ _______ _______ _____ _____    ______ ____
ROOT
ATOM      1  N   UNL     1      -0.280  11.170  20.419  0.00  0.00    +0.000 N 
ATOM      2  C   UNL     1      -0.467   9.893  19.714  0.00  0.00    +0.000 C 
ATOM      3  C   UNL     1      -0.072  10.069  18.234  0.00  0.00    +0.000 C 
ATOM      4  N   UNL     1       1.310  10.558  18.018  0.00  0.00    +0.000 NA
ATOM      5  C   UNL     1       1.484  11.813  18.792  0.00  0.00    +0.000 C 
ATOM      6  C   UNL     1       1.060  11.748  20.285  0.00  0.00    +0.000 C 
ENDROOT
BRANCH   1  12
ATOM      7  C   UNL     1      -1.305  11.687  22.628  0.00  0.00    +0.000 A 
ATOM      8  C   UNL     1      -2.372  12.268  23.342  0.00  0.00    +0.000 A 
ATOM      9  C   UNL     1      -3.399  12.929  22.682  0.00  0.00    +0.000 A 
ATOM     10  C   UNL     1      -3.377  13.017  21.296  0.00  0.00    +0.000 A 
ATOM     11  C   UNL     1      -2.327  12.436  20.577  0.00  0.00    +0.000 A 
ATOM     12  C   UNL     1      -1.267  11.746  21.209  0.00  0.00    +0.000 A 
BRANCH   7  14
ATOM     13  C   UNL     1      -0.490   9.544  23.256  0.00  0.00    +0.000 C 
ATOM     14  O   UNL     1      -0.337  10.961  23.280  0.00  0.00    +0.000 OA
ENDBRANCH   7  14
ENDBRANCH   1  12
BRANCH   4  15
ATOM     15  C   UNL     1       2.363   9.599  18.368  0.00  0.00    +0.000 C 
BRANCH  15  16
ATOM     16  C   UNL     1       2.145   8.187  17.833  0.00  0.00    +0.000 C 
BRANCH  16  17
ATOM     17  C   UNL     1       2.781   7.039  18.623  0.00  0.00    +0.000 C 
ATOM     18  C   UNL     1       2.785   5.777  17.726  0.00  0.00    +0.000 C 
ATOM     19  C   UNL     1       2.064   4.743  18.520  0.00  0.00    +0.000 A 
ATOM     20  C   UNL     1       1.599   3.512  18.099  0.00  0.00    +0.000 A 
ATOM     21  C   UNL     1       1.089   2.633  19.058  0.00  0.00    +0.000 A 
ATOM     22  C   UNL     1       1.105   2.971  20.422  0.00  0.00    +0.000 A 
ATOM     23  C   UNL     1       1.486   4.251  20.826  0.00  0.00    +0.000 A 
ATOM     24  C   UNL     1       1.888   5.132  19.840  0.00  0.00    +0.000 A 
ATOM     25  C   UNL     1       2.078   6.579  19.894  0.00  0.00    +0.000 C 
ATOM     26  O   UNL     1       1.654   7.265  20.808  0.00  0.00    +0.000 OA
ENDBRANCH  16  17
ENDBRANCH  15  16
ENDBRANCH   4  15
TORSDOF 5
ENDMDL
MODEL 2
REMARK VINA RESULT:      -7.7      5.638      9.492
REMARK  Name = 
REMARK  6 active torsions:
REMARK  status: ('A' for Active; 'I' for Inactive)
REMARK    1  A    between atoms: C_1  and  O_2
REMARK    2  A    between atoms: O_2  and  C_3
REMARK    3  A    between atoms: C_8  and  N_9
REMARK    4  A    between atoms: N_12  and  C_13
REMARK    5  A    between atoms: C_13  and  C_14
REMARK    6  A    between atoms: C_14  and  C_15
REMARK                            x       y       z     vdW  Elec       q    Type
REMARK                         _______ _______ _______ _____ _____    ______ ____
ROOT
ATOM      1  N   UNL     1       5.051   5.503  18.207  0.00  0.00    +0.000 N 
ATOM      2  C   UNL     1       6.279   5.164  18.942  0.00  0.00    +0.000 C 
ATOM      3  C   UNL     1       7.489   5.297  17.996  0.00  0.00    +0.000 C 
ATOM      4  N   UNL     1       7.638   6.630  17.368  0.00  0.00    +0.000 NA
ATOM      5  C   UNL     1       6.362   6.968  16.688  0.00  0.00    +0.000 C 
ATOM      6  C   UNL     1       5.078   6.811  17.549  0.00  0.00    +0.000 C 
ENDROOT
BRANCH   1  12
ATOM      7  C   UNL     1       2.682   5.014  18.792  0.00  0.00    +0.000 A 
ATOM      8  C   UNL     1       1.610   4.099  18.767  0.00  0.00    +0.000 A 
ATOM      9  C   UNL     1       1.737   2.865  18.144  0.00  0.00    +0.000 A 
ATOM     10  C   UNL     1       2.940   2.525  17.538  0.00  0.00    +0.000 A 
ATOM     11  C   UNL     1       4.014   3.422  17.566  0.00  0.00    +0.000 A 
ATOM     12  C   UNL     1       3.929   4.684  18.197  0.00  0.00    +0.000 A 
BRANCH   7  14
ATOM     13  C   UNL     1       1.739   6.181  20.636  0.00  0.00    +0.000 C 
ATOM     14  O   UNL     1       2.577   6.198  19.483  0.00  0.00    +0.000 OA
ENDBRANCH   7  14
ENDBRANCH   1  12
BRANCH   4  15
ATOM     15  C   UNL     1       8.018   7.705  18.290  0.00  0.00    +0.000 C 
BRANCH  15  16
ATOM     16  C   UNL     1       7.777   9.116  17.761  0.00  0.00    +0.000 C 
BRANCH  16  17
ATOM     17  C   UNL     1       8.909  10.130  17.944  0.00  0.00    +0.000 C 
ATOM     18  C   UNL     1       9.503   9.943  19.362  0.00  0.00    +0.000 C 
ATOM     19  C   UNL     1       9.394  11.286  20.000  0.00  0.00    +0.000 A 
ATOM     20  C   UNL     1       9.574  11.618  21.328  0.00  0.00    +0.000 A 
ATOM     21  C   UNL     1       9.580  12.971  21.679  0.00  0.00    +0.000 A 
ATOM     22  C   UNL     1       9.464  13.967  20.695  0.00  0.00    +0.000 A 
ATOM     23  C   UNL     1       9.186  13.622  19.372  0.00  0.00    +0.000 A 
ATOM     24  C   UNL     1       9.085  12.274  19.078  0.00  0.00    +0.000 A 
ATOM     25  C   UNL     1       8.550  11.611  17.892  0.00  0.00    +0.000 C 
ATOM     26  O   UNL     1       7.870  12.189  17.063  0.00  0.00    +0.000 OA
ENDBRANCH  16  17
ENDBRANCH  15  16
ENDBRANCH   4  15
TORSDOF 5
ENDMDL
MODEL 3
REMARK VINA RESULT:      -7.6      6.282      9.856
REMARK  Name = 
REMARK  6 active torsions:
REMARK  status: ('A' for Active; 'I' for Inactive)
REMARK    1  A    between atoms: C_1  and  O_2
REMARK    2  A    between atoms: O_2  and  C_3
REMARK    3  A    between atoms: C_8  and  N_9
REMARK    4  A    between atoms: N_12  and  C_13
REMARK    5  A    between atoms: C_13  and  C_14
REMARK    6  A    between atoms: C_14  and  C_15
REMARK                            x       y       z     vdW  Elec       q    Type
REMARK                         _______ _______ _______ _____ _____    ______ ____
ROOT
ATOM      1  N   UNL     1       5.222   5.790  18.206  0.00  0.00    +0.000 N 
ATOM      2  C   UNL     1       6.372   5.468  19.065  0.00  0.00    +0.000 C 
ATOM      3  C   UNL     1       7.664   5.531  18.225  0.00  0.00    +0.000 C 
ATOM      4  N   UNL     1       7.897   6.827  17.547  0.00  0.00    +0.000 NA
ATOM      5  C   UNL     1       6.695   7.151  16.739  0.00  0.00    +0.000 C 
ATOM      6  C   UNL     1       5.336   7.061  17.488  0.00  0.00    +0.000 C 
ENDROOT
BRANCH   1  12
ATOM      7  C   UNL     1       3.987   3.795  17.375  0.00  0.00    +0.000 A 
ATOM      8  C   UNL     1       2.778   3.072  17.333  0.00  0.00    +0.000 A 
ATOM      9  C   UNL     1       1.665   3.495  18.048  0.00  0.00    +0.000 A 
ATOM     10  C   UNL     1       1.743   4.650  18.815  0.00  0.00    +0.000 A 
ATOM     11  C   UNL     1       2.935   5.381  18.856  0.00  0.00    +0.000 A 
ATOM     12  C   UNL     1       4.088   4.990  18.136  0.00  0.00    +0.000 A 
BRANCH   7  14
ATOM     13  C   UNL     1       5.166   4.054  15.328  0.00  0.00    +0.000 C 
ATOM     14  O   UNL     1       5.057   3.418  16.599  0.00  0.00    +0.000 OA
ENDBRANCH   7  14
ENDBRANCH   1  12
BRANCH   4  15
ATOM     15  C   UNL     1       8.217   7.943  18.444  0.00  0.00    +0.000 C 
BRANCH  15  16
ATOM     16  C   UNL     1       8.043   9.328  17.829  0.00  0.00    +0.000 C 
BRANCH  16  17
ATOM     17  C   UNL     1       9.117  10.371  18.150  0.00  0.00    +0.000 C 
ATOM     18  C   UNL     1       9.536  10.196  19.630  0.00  0.00    +0.000 C 
ATOM     19  C   UNL     1       9.314  11.533  20.250  0.00  0.00    +0.000 A 
ATOM     20  C   UNL     1       9.320  11.865  21.591  0.00  0.00    +0.000 A 
ATOM     21  C   UNL     1       9.247  13.216  21.939  0.00  0.00    +0.000 A 
ATOM     22  C   UNL     1       9.227  14.213  20.948  0.00  0.00    +0.000 A 
ATOM     23  C   UNL     1       9.123  13.864  19.601  0.00  0.00    +0.000 A 
ATOM     24  C   UNL     1       9.095  12.516  19.297  0.00  0.00    +0.000 A 
ATOM     25  C   UNL     1       8.728  11.842  18.055  0.00  0.00    +0.000 C 
ATOM     26  O   UNL     1       8.139  12.405  17.148  0.00  0.00    +0.000 OA
ENDBRANCH  16  17
ENDBRANCH  15  16
ENDBRANCH   4  15
TORSDOF 5
ENDMDL
MODEL 4
REMARK VINA RESULT:      -7.5      6.163      9.987
REMARK  Name = 
REMARK  6 active torsions:
REMARK  status: ('A' for Active; 'I' for Inactive)
REMARK    1  A    between atoms: C_1  and  O_2
REMARK    2  A    between atoms: O_2  and  C_3
REMARK    3  A    between atoms: C_8  and  N_9
REMARK    4  A    between atoms: N_12  and  C_13
REMARK    5  A    between atoms: C_13  and  C_14
REMARK    6  A    between atoms: C_14  and  C_15
REMARK                            x       y       z     vdW  Elec       q    Type
REMARK                         _______ _______ _______ _____ _____    ______ ____
ROOT
ATOM      1  N   UNL     1       5.141   5.341  18.068  0.00  0.00    +0.000 N 
ATOM      2  C   UNL     1       6.131   5.772  19.068  0.00  0.00    +0.000 C 
ATOM      3  C   UNL     1       7.527   5.811  18.415  0.00  0.00    +0.000 C 
ATOM      4  N   UNL     1       7.623   6.674  17.215  0.00  0.00    +0.000 NA
ATOM      5  C   UNL     1       6.573   6.253  16.254  0.00  0.00    +0.000 C 
ATOM      6  C   UNL     1       5.137   6.133  16.836  0.00  0.00    +0.000 C 
ENDROOT
BRANCH   1  12
ATOM      7  C   UNL     1       3.218   4.342  19.292  0.00  0.00    +0.000 A 
ATOM      8  C   UNL     1       2.369   3.232  19.481  0.00  0.00    +0.000 A 
ATOM      9  C   UNL     1       2.489   2.097  18.691  0.00  0.00    +0.000 A 
ATOM     10  C   UNL     1       3.462   2.051  17.701  0.00  0.00    +0.000 A 
ATOM     11  C   UNL     1       4.317   3.143  17.512  0.00  0.00    +0.000 A 
ATOM     12  C   UNL     1       4.234   4.314  18.300  0.00  0.00    +0.000 A 
BRANCH   7  14
ATOM     13  C   UNL     1       1.845   5.930  20.405  0.00  0.00    +0.000 C 
ATOM     14  O   UNL     1       3.150   5.428  20.132  0.00  0.00    +0.000 OA
ENDBRANCH   7  14
ENDBRANCH   1  12
BRANCH   4  15
ATOM     15  C   UNL     1       7.515   8.112  17.483  0.00  0.00    +0.000 C 
BRANCH  15  16
ATOM     16  C   UNL     1       8.571   8.667  18.435  0.00  0.00    +0.000 C 
BRANCH  16  17
ATOM     17  C   UNL     1       8.564  10.178  18.676  0.00  0.00    +0.000 C 
ATOM     18  C   UNL     1       9.335  10.858  17.518  0.00  0.00    +0.000 C 
ATOM     19  C   UNL     1      10.404  11.652  18.186  0.00  0.00    +0.000 A 
ATOM     20  C   UNL     1      11.498  12.268  17.609  0.00  0.00    +0.000 A 
ATOM     21  C   UNL     1      12.289  13.098  18.408  0.00  0.00    +0.000 A 
ATOM     22  C   UNL     1      11.944  13.345  19.748  0.00  0.00    +0.000 A 
ATOM     23  C   UNL     1      10.896  12.644  20.346  0.00  0.00    +0.000 A 
ATOM     24  C   UNL     1      10.197  11.753  19.553  0.00  0.00    +0.000 A 
ATOM     25  C   UNL     1       9.259  10.699  19.929  0.00  0.00    +0.000 C 
ATOM     26  O   UNL     1       9.147  10.294  21.073  0.00  0.00    +0.000 OA
ENDBRANCH  16  17
ENDBRANCH  15  16
ENDBRANCH   4  15
TORSDOF 5
ENDMDL
MODEL 5
REMARK VINA RESULT:      -7.4      6.490      9.647
REMARK  Name = 
REMARK  6 active torsions:
REMARK  status: ('A' for Active; 'I' for Inactive)
REMARK    1  A    between atoms: C_1  and  O_2
REMARK    2  A    between atoms: O_2  and  C_3
REMARK    3  A    between atoms: C_8  and  N_9
REMARK    4  A    between atoms: N_12  and  C_13
REMARK    5  A    between atoms: C_13  and  C_14
REMARK    6  A    between atoms: C_14  and  C_15
REMARK                            x       y       z     vdW  Elec       q    Type
REMARK                         _______ _______ _______ _____ _____    ______ ____
ROOT
ATOM      1  N   UNL     1       5.077   5.548  18.414  0.00  0.00    +0.000 N 
ATOM      2  C   UNL     1       6.324   5.219  19.122  0.00  0.00    +0.000 C 
ATOM      3  C   UNL     1       7.504   5.302  18.133  0.00  0.00    +0.000 C 
ATOM      4  N   UNL     1       7.649   6.609  17.452  0.00  0.00    +0.000 NA
ATOM      5  C   UNL     1       6.356   6.939  16.801  0.00  0.00    +0.000 C 
ATOM      6  C   UNL     1       5.099   6.831  17.708  0.00  0.00    +0.000 C 
ENDROOT
BRANCH   1  12
ATOM      7  C   UNL     1       3.851   3.531  19.202  0.00  0.00    +0.000 A 
ATOM      8  C   UNL     1       2.671   2.761  19.165  0.00  0.00    +0.000 A 
ATOM      9  C   UNL     1       1.567   3.176  18.432  0.00  0.00    +0.000 A 
ATOM     10  C   UNL     1       1.627   4.369  17.723  0.00  0.00    +0.000 A 
ATOM     11  C   UNL     1       2.797   5.137  17.745  0.00  0.00    +0.000 A 
ATOM     12  C   UNL     1       3.945   4.745  18.470  0.00  0.00    +0.000 A 
BRANCH   7  14
ATOM     13  C   UNL     1       4.869   1.771  20.432  0.00  0.00    +0.000 C 
ATOM     14  O   UNL     1       4.967   3.072  19.859  0.00  0.00    +0.000 OA
ENDBRANCH   7  14
ENDBRANCH   1  12
BRANCH   4  15
ATOM     15  C   UNL     1       8.072   7.712  18.321  0.00  0.00    +0.000 C 
BRANCH  15  16
ATOM     16  C   UNL     1       7.839   9.106  17.745  0.00  0.00    +0.000 C 
BRANCH  16  17
ATOM     17  C   UNL     1       8.947  10.140  17.958  0.00  0.00    +0.000 C 
ATOM     18  C   UNL     1       9.522   9.949  19.383  0.00  0.00    +0.000 C 
ATOM     19  C   UNL     1       9.375  11.282  20.034  0.00  0.00    +0.000 A 
ATOM     20  C   UNL     1       9.527  11.603  21.369  0.00  0.00    +0.000 A 
ATOM     21  C   UNL     1       9.499  12.951  21.735  0.00  0.00    +0.000 A 
ATOM     22  C   UNL     1       9.380  13.956  20.759  0.00  0.00    +0.000 A 
ATOM     23  C   UNL     1       9.130  13.620  19.429  0.00  0.00    +0.000 A 
ATOM     24  C   UNL     1       9.061  12.274  19.118  0.00  0.00    +0.000 A 
ATOM     25  C   UNL     1       8.559  11.613  17.917  0.00  0.00    +0.000 C 
ATOM     26  O   UNL     1       7.881  12.188  17.083  0.00  0.00    +0.000 OA
ENDBRANCH  16  17
ENDBRANCH  15  16
ENDBRANCH   4  15
TORSDOF 5
ENDMDL
MODEL 6
REMARK VINA RESULT:      -7.4      1.146      1.816
REMARK  Name = 
REMARK  6 active torsions:
REMARK  status: ('A' for Active; 'I' for Inactive)
REMARK    1  A    between atoms: C_1  and  O_2
REMARK    2  A    between atoms: O_2  and  C_3
REMARK    3  A    between atoms: C_8  and  N_9
REMARK    4  A    between atoms: N_12  and  C_13
REMARK    5  A    between atoms: C_13  and  C_14
REMARK    6  A    between atoms: C_14  and  C_15
REMARK                            x       y       z     vdW  Elec       q    Type
REMARK                         _______ _______ _______ _____ _____    ______ ____
ROOT
ATOM      1  N   UNL     1      -0.152  11.292  20.544  0.00  0.00    +0.000 N 
ATOM      2  C   UNL     1      -0.406   9.997  19.895  0.00  0.00    +0.000 C 
ATOM      3  C   UNL     1      -0.093  10.114  18.390  0.00  0.00    +0.000 C 
ATOM      4  N   UNL     1       1.283  10.565  18.080  0.00  0.00    +0.000 NA
ATOM      5  C   UNL     1       1.528  11.840  18.798  0.00  0.00    +0.000 C 
ATOM      6  C   UNL     1       1.189  11.835  20.315  0.00  0.00    +0.000 C 
ENDROOT
BRANCH   1  12
ATOM      7  C   UNL     1      -1.676  13.179  21.104  0.00  0.00    +0.000 A 
ATOM      8  C   UNL     1      -2.579  13.753  22.021  0.00  0.00    +0.000 A 
ATOM      9  C   UNL     1      -2.925  13.093  23.193  0.00  0.00    +0.000 A 
ATOM     10  C   UNL     1      -2.371  11.849  23.467  0.00  0.00    +0.000 A 
ATOM     11  C   UNL     1      -1.466  11.275  22.567  0.00  0.00    +0.000 A 
ATOM     12  C   UNL     1      -1.081  11.917  21.368  0.00  0.00    +0.000 A 
BRANCH   7  14
ATOM     13  C   UNL     1      -1.096  15.278  20.153  0.00  0.00    +0.000 C 
ATOM     14  O   UNL     1      -1.274  13.874  19.988  0.00  0.00    +0.000 OA
ENDBRANCH   7  14
ENDBRANCH   1  12
BRANCH   4  15
ATOM     15  C   UNL     1       2.335   9.595  18.402  0.00  0.00    +0.000 C 
BRANCH  15  16
ATOM     16  C   UNL     1       2.065   8.174  17.915  0.00  0.00    +0.000 C 
BRANCH  16  17
ATOM     17  C   UNL     1       2.717   7.034  18.703  0.00  0.00    +0.000 C 
ATOM     18  C   UNL     1       2.762   5.781  17.794  0.00  0.00    +0.000 C 
ATOM     19  C   UNL     1       2.054   4.723  18.569  0.00  0.00    +0.000 A 
ATOM     20  C   UNL     1       1.624   3.486  18.131  0.00  0.00    +0.000 A 
ATOM     21  C   UNL     1       1.121   2.586  19.074  0.00  0.00    +0.000 A 
ATOM     22  C   UNL     1       1.111   2.911  20.442  0.00  0.00    +0.000 A 
ATOM     23  C   UNL     1       1.456   4.196  20.862  0.00  0.00    +0.000 A 
ATOM     24  C   UNL     1       1.852   5.095  19.890  0.00  0.00    +0.000 A 
ATOM     25  C   UNL     1       2.007   6.545  19.960  0.00  0.00    +0.000 C 
ATOM     26  O   UNL     1       1.555   7.213  20.874  0.00  0.00    +0.000 OA
ENDBRANCH  16  17
ENDBRANCH  15  16
ENDBRANCH   4  15
TORSDOF 5
ENDMDL
MODEL 7
REMARK VINA RESULT:      -7.3      3.295      8.902
REMARK  Name = 
REMARK  6 active torsions:
REMARK  status: ('A' for Active; 'I' for Inactive)
REMARK    1  A    between atoms: C_1  and  O_2
REMARK    2  A    between atoms: O_2  and  C_3
REMARK    3  A    between atoms: C_8  and  N_9
REMARK    4  A    between atoms: N_12  and  C_13
REMARK    5  A    between atoms: C_13  and  C_14
REMARK    6  A    between atoms: C_14  and  C_15
REMARK                            x       y       z     vdW  Elec       q    Type
REMARK                         _______ _______ _______ _____ _____    ______ ____
ROOT
ATOM      1  N   UNL     1       4.521   5.518  17.774  0.00  0.00    +0.000 N 
ATOM      2  C   UNL     1       3.745   6.767  17.804  0.00  0.00    +0.000 C 
ATOM      3  C   UNL     1       2.267   6.438  18.094  0.00  0.00    +0.000 C 
ATOM      4  N   UNL     1       2.037   5.679  19.346  0.00  0.00    +0.000 NA
ATOM      5  C   UNL     1       2.881   4.458  19.310  0.00  0.00    +0.000 C 
ATOM      6  C   UNL     1       4.380   4.686  18.971  0.00  0.00    +0.000 C 
ENDROOT
BRANCH   1  12
ATOM      7  C   UNL     1       6.767   5.477  16.702  0.00  0.00    +0.000 A 
ATOM      8  C   UNL     1       7.547   5.139  15.578  0.00  0.00    +0.000 A 
ATOM      9  C   UNL     1       6.985   4.498  14.482  0.00  0.00    +0.000 A 
ATOM     10  C   UNL     1       5.631   4.188  14.492  0.00  0.00    +0.000 A 
ATOM     11  C   UNL     1       4.845   4.528  15.599  0.00  0.00    +0.000 A 
ATOM     12  C   UNL     1       5.376   5.188  16.730  0.00  0.00    +0.000 A 
BRANCH   7  14
ATOM     13  C   UNL     1       7.563   7.568  17.505  0.00  0.00    +0.000 C 
ATOM     14  O   UNL     1       7.311   6.185  17.747  0.00  0.00    +0.000 OA
ENDBRANCH   7  14
ENDBRANCH   1  12
BRANCH   4  15
ATOM     15  C   UNL     1       2.293   6.433  20.578  0.00  0.00    +0.000 C 
BRANCH  15  16
ATOM     16  C   UNL     1       1.111   7.258  21.079  0.00  0.00    +0.000 C 
BRANCH  16  17
ATOM     17  C   UNL     1       1.331   8.765  21.234  0.00  0.00    +0.000 C 
ATOM     18  C   UNL     1       0.749   9.203  22.601  0.00  0.00    +0.000 C 
ATOM     19  C   UNL     1      -0.228  10.278  22.271  0.00  0.00    +0.000 A 
ATOM     20  C   UNL     1      -1.177  10.853  23.095  0.00  0.00    +0.000 A 
ATOM     21  C   UNL     1      -1.883  11.961  22.621  0.00  0.00    +0.000 A 
ATOM     22  C   UNL     1      -1.592  12.512  21.361  0.00  0.00    +0.000 A 
ATOM     23  C   UNL     1      -0.703  11.868  20.499  0.00  0.00    +0.000 A 
ATOM     24  C   UNL     1      -0.097  10.714  20.962  0.00  0.00    +0.000 A 
ATOM     25  C   UNL     1       0.644   9.688  20.234  0.00  0.00    +0.000 C 
ATOM     26  O   UNL     1       0.620   9.594  19.020  0.00  0.00    +0.000 OA
ENDBRANCH  16  17
ENDBRANCH  15  16
ENDBRANCH   4  15
TORSDOF 5
ENDMDL
MODEL 8
REMARK VINA RESULT:      -7.3      3.594      8.892
REMARK  Name = 
REMARK  6 active torsions:
REMARK  status: ('A' for Active; 'I' for Inactive)
REMARK    1  A    between atoms: C_1  and  O_2
REMARK    2  A    between atoms: O_2  and  C_3
REMARK    3  A    between atoms: C_8  and  N_9
REMARK    4  A    between atoms: N_12  and  C_13
REMARK    5  A    between atoms: C_13  and  C_14
REMARK    6  A    between atoms: C_14  and  C_15
REMARK                            x       y       z     vdW  Elec       q    Type
REMARK                         _______ _______ _______ _____ _____    ______ ____
ROOT
ATOM      1  N   UNL     1       4.709   4.830  17.672  0.00  0.00    +0.000 N 
ATOM      2  C   UNL     1       3.389   5.478  17.644  0.00  0.00    +0.000 C 
ATOM      3  C   UNL     1       2.341   4.516  18.239  0.00  0.00    +0.000 C 
ATOM      4  N   UNL     1       2.639   4.052  19.613  0.00  0.00    +0.000 NA
ATOM      5  C   UNL     1       4.000   3.460  19.619  0.00  0.00    +0.000 C 
ATOM      6  C   UNL     1       5.118   4.337  18.989  0.00  0.00    +0.000 C 
ENDROOT
BRANCH   1  12
ATOM      7  C   UNL     1       6.876   5.225  16.511  0.00  0.00    +0.000 A 
ATOM      8  C   UNL     1       7.624   5.144  15.319  0.00  0.00    +0.000 A 
ATOM      9  C   UNL     1       7.080   4.588  14.169  0.00  0.00    +0.000 A 
ATOM     10  C   UNL     1       5.778   4.106  14.192  0.00  0.00    +0.000 A 
ATOM     11  C   UNL     1       5.023   4.190  15.367  0.00  0.00    +0.000 A 
ATOM     12  C   UNL     1       5.536   4.756  16.556  0.00  0.00    +0.000 A 
BRANCH   7  14
ATOM     13  C   UNL     1       7.442   7.276  17.570  0.00  0.00    +0.000 C 
ATOM     14  O   UNL     1       7.390   5.852  17.621  0.00  0.00    +0.000 OA
ENDBRANCH   7  14
ENDBRANCH   1  12
BRANCH   4  15
ATOM     15  C   UNL     1       2.534   5.086  20.648  0.00  0.00    +0.000 C 
BRANCH  15  16
ATOM     16  C   UNL     1       1.456   6.136  20.395  0.00  0.00    +0.000 C 
BRANCH  16  17
ATOM     17  C   UNL     1       1.893   7.603  20.430  0.00  0.00    +0.000 C 
ATOM     18  C   UNL     1       1.082   8.325  21.535  0.00  0.00    +0.000 C 
ATOM     19  C   UNL     1       0.418   9.462  20.837  0.00  0.00    +0.000 A 
ATOM     20  C   UNL     1      -0.587  10.285  21.309  0.00  0.00    +0.000 A 
ATOM     21  C   UNL     1      -0.951  11.394  20.542  0.00  0.00    +0.000 A 
ATOM     22  C   UNL     1      -0.270  11.696  19.350  0.00  0.00    +0.000 A 
ATOM     23  C   UNL     1       0.674  10.808  18.834  0.00  0.00    +0.000 A 
ATOM     24  C   UNL     1       0.938   9.667  19.568  0.00  0.00    +0.000 A 
ATOM     25  C   UNL     1       1.642   8.447  19.186  0.00  0.00    +0.000 C 
ATOM     26  O   UNL     1       1.897   8.169  18.027  0.00  0.00    +0.000 OA
ENDBRANCH  16  17
ENDBRANCH  15  16
ENDBRANCH   4  15
TORSDOF 5
ENDMDL
MODEL 9
REMARK VINA RESULT:      -7.2      5.589      9.543
REMARK  Name = 
REMARK  6 active torsions:
REMARK  status: ('A' for Active; 'I' for Inactive)
REMARK    1  A    between atoms: C_1  and  O_2
REMARK    2  A    between atoms: O_2  and  C_3
REMARK    3  A    between atoms: C_8  and  N_9
REMARK    4  A    between atoms: N_12  and  C_13
REMARK    5  A    between atoms: C_13  and  C_14
REMARK    6  A    between atoms: C_14  and  C_15
REMARK                            x       y       z     vdW  Elec       q    Type
REMARK                         _______ _______ _______ _____ _____    ______ ____
ROOT
ATOM      1  N   UNL     1       5.913   4.812  15.319  0.00  0.00    +0.000 N 
ATOM      2  C   UNL     1       6.157   3.973  16.502  0.00  0.00    +0.000 C 
ATOM      3  C   UNL     1       6.996   4.768  17.522  0.00  0.00    +0.000 C 
ATOM      4  N   UNL     1       6.399   6.057  17.941  0.00  0.00    +0.000 NA
ATOM      5  C   UNL     1       6.109   6.853  16.722  0.00  0.00    +0.000 C 
ATOM      6  C   UNL     1       5.312   6.115  15.611  0.00  0.00    +0.000 C 
ENDROOT
BRANCH   1  12
ATOM      7  C   UNL     1       7.304   4.737  13.256  0.00  0.00    +0.000 A 
ATOM      8  C   UNL     1       7.451   4.278  11.931  0.00  0.00    +0.000 A 
ATOM      9  C   UNL     1       6.499   3.450  11.350  0.00  0.00    +0.000 A 
ATOM     10  C   UNL     1       5.384   3.069  12.085  0.00  0.00    +0.000 A 
ATOM     11  C   UNL     1       5.223   3.526  13.398  0.00  0.00    +0.000 A 
ATOM     12  C   UNL     1       6.163   4.377  14.023  0.00  0.00    +0.000 A 
BRANCH   7  14
ATOM     13  C   UNL     1       9.211   6.113  12.912  0.00  0.00    +0.000 C 
ATOM     14  O   UNL     1       8.204   5.623  13.795  0.00  0.00    +0.000 OA
ENDBRANCH   7  14
ENDBRANCH   1  12
BRANCH   4  15
ATOM     15  C   UNL     1       5.191   5.937  18.764  0.00  0.00    +0.000 C 
BRANCH  15  16
ATOM     16  C   UNL     1       3.992   6.736  18.260  0.00  0.00    +0.000 C 
BRANCH  16  17
ATOM     17  C   UNL     1       2.607   6.123  18.478  0.00  0.00    +0.000 C 
ATOM     18  C   UNL     1       2.343   6.051  20.002  0.00  0.00    +0.000 C 
ATOM     19  C   UNL     1       2.043   4.616  20.270  0.00  0.00    +0.000 A 
ATOM     20  C   UNL     1       1.954   3.975  21.491  0.00  0.00    +0.000 A 
ATOM     21  C   UNL     1       1.503   2.653  21.514  0.00  0.00    +0.000 A 
ATOM     22  C   UNL     1       1.095   2.014  20.330  0.00  0.00    +0.000 A 
ATOM     23  C   UNL     1       1.280   2.634  19.095  0.00  0.00    +0.000 A 
ATOM     24  C   UNL     1       1.825   3.905  19.100  0.00  0.00    +0.000 A 
ATOM     25  C   UNL     1       2.383   4.691  18.004  0.00  0.00    +0.000 C 
ATOM     26  O   UNL     1       2.671   4.205  16.924  0.00  0.00    +0.000 OA
ENDBRANCH  16  17
ENDBRANCH  15  16
ENDBRANCH   4  15
TORSDOF 5
ENDMDL
