MODEL 1
REMARK VINA RESULT:      -7.7      0.000      0.000
REMARK  Name = 
REMARK  9 active torsions:
REMARK  status: ('A' for Active; 'I' for Inactive)
REMARK    1  A    between atoms: C_1  and  C_2
REMARK    2  A    between atoms: C_5  and  N_6
REMARK    3  A    between atoms: N_9  and  C_10
REMARK    4  A    between atoms: C_10  and  C_11
REMARK    5  A    between atoms: C_10  and  C_12
REMARK    6  A    between atoms: C_13  and  C_14
REMARK    7  A    between atoms: C_13  and  C_15
REMARK    8  A    between atoms: C_17  and  C_18
REMARK    9  A    between atoms: C_17  and  O_19
REMARK                            x       y       z     vdW  Elec       q    Type
REMARK                         _______ _______ _______ _____ _____    ______ ____
ROOT
ATOM      1  N   UNL     1       5.483   4.631  17.915  0.00  0.00    +0.000 N 
ATOM      2  C   UNL     1       5.002   4.213  19.155  0.00  0.00    +0.000 C 
ATOM      3  O   UNL     1       5.708   4.247  20.165  0.00  0.00    +0.000 OA
ATOM      4  N   UNL     1       3.635   3.932  19.203  0.00  0.00    +0.000 N 
ATOM      5  C   UNL     1       3.027   3.182  18.074  0.00  0.00    +0.000 C 
ATOM      6  C   UNL     1       1.484   3.091  18.107  0.00  0.00    +0.000 C 
ATOM      7  C   UNL     1       3.538   1.724  18.063  0.00  0.00    +0.000 C 
ATOM      8  C   UNL     1       3.398   3.938  16.785  0.00  0.00    +0.000 C 
ATOM      9  C   UNL     1       4.904   4.170  16.654  0.00  0.00    +0.000 C 
ATOM     10  C   UNL     1       5.132   5.064  15.418  0.00  0.00    +0.000 C 
ENDROOT
BRANCH   1  15
ATOM     11  C   UNL     1       8.594   9.449  17.952  0.00  0.00    +0.000 C 
ATOM     12  C   UNL     1       7.792   8.181  17.969  0.00  0.00    +0.000 A 
ATOM     13  C   UNL     1       8.292   7.008  18.552  0.00  0.00    +0.000 A 
ATOM     14  C   UNL     1       7.544   5.825  18.538  0.00  0.00    +0.000 A 
ATOM     15  C   UNL     1       6.285   5.809  17.941  0.00  0.00    +0.000 A 
ATOM     16  C   UNL     1       5.773   6.991  17.381  0.00  0.00    +0.000 A 
ATOM     17  C   UNL     1       6.525   8.164  17.385  0.00  0.00    +0.000 A 
ENDBRANCH   1  15
BRANCH   4  18
ATOM     18  C   UNL     1       2.928   4.162  20.488  0.00  0.00    +0.000 C 
ATOM     19  C   UNL     1       1.775   5.151  20.378  0.00  0.00    +0.000 C 
ATOM     20  C   UNL     1       2.430   2.856  21.149  0.00  0.00    +0.000 C 
ENDBRANCH   4  18
BRANCH   9  21
ATOM     21  O   UNL     1       5.551   2.941  16.347  0.00  0.00    +0.000 OA
ATOM     22  H   UNL     1       5.524   2.895  15.369  0.00  0.00    +0.000 HD
ENDBRANCH   9  21
TORSDOF 3
ENDMDL
MODEL 2
REMARK VINA RESULT:      -7.7      2.401      3.349
REMARK  Name = 
REMARK  9 active torsions:
REMARK  status: ('A' for Active; 'I' for Inactive)
REMARK    1  A    between atoms: C_1  and  C_2
REMARK    2  A    between atoms: C_5  and  N_6
REMARK    3  A    between atoms: N_9  and  C_10
REMARK    4  A    between atoms: C_10  and  C_11
REMARK    5  A    between atoms: C_10  and  C_12
REMARK    6  A    between atoms: C_13  and  C_14
REMARK    7  A    between atoms: C_13  and  C_15
REMARK    8  A    between atoms: C_17  and  C_18
REMARK    9  A    between atoms: C_17  and  O_19
REMARK                            x       y       z     vdW  Elec       q    Type
REMARK                         _______ _______ _______ _____ _____    ______ ____
ROOT
ATOM      1  N   UNL     1       4.527   3.933  18.564  0.00  0.00    +0.000 N 
ATOM      2  C   UNL     1       3.999   5.067  19.180  0.00  0.00    +0.000 C 
ATOM      3  O   UNL     1       4.655   6.105  19.290  0.00  0.00    +0.000 OA
ATOM      4  N   UNL     1       2.639   5.001  19.493  0.00  0.00    +0.000 N 
ATOM      5  C   UNL     1       2.108   3.740  20.070  0.00  0.00    +0.000 C 
ATOM      6  C   UNL     1       0.568   3.679  20.197  0.00  0.00    +0.000 C 
ATOM      7  C   UNL     1       2.660   3.529  21.498  0.00  0.00    +0.000 C 
ATOM      8  C   UNL     1       2.518   2.605  19.115  0.00  0.00    +0.000 C 
ATOM      9  C   UNL     1       4.022   2.588  18.835  0.00  0.00    +0.000 C 
ATOM     10  C   UNL     1       4.282   1.519  17.754  0.00  0.00    +0.000 C 
ENDROOT
BRANCH   1  15
ATOM     11  C   UNL     1       7.475   4.945  13.750  0.00  0.00    +0.000 C 
ATOM     12  C   UNL     1       6.724   4.697  15.025  0.00  0.00    +0.000 A 
ATOM     13  C   UNL     1       7.389   4.572  16.253  0.00  0.00    +0.000 A 
ATOM     14  C   UNL     1       6.679   4.314  17.430  0.00  0.00    +0.000 A 
ATOM     15  C   UNL     1       5.292   4.183  17.388  0.00  0.00    +0.000 A 
ATOM     16  C   UNL     1       4.623   4.335  16.163  0.00  0.00    +0.000 A 
ATOM     17  C   UNL     1       5.334   4.578  14.989  0.00  0.00    +0.000 A 
ENDBRANCH   1  15
BRANCH   4  18
ATOM     18  C   UNL     1       1.866   6.268  19.482  0.00  0.00    +0.000 C 
ATOM     19  C   UNL     1       1.923   7.024  20.804  0.00  0.00    +0.000 C 
ATOM     20  C   UNL     1       2.266   7.214  18.327  0.00  0.00    +0.000 C 
ENDBRANCH   4  18
BRANCH   9  21
ATOM     21  O   UNL     1       4.716   2.129  19.987  0.00  0.00    +0.000 OA
ATOM     22  H   UNL     1       4.089   2.288  20.723  0.00  0.00    +0.000 HD
ENDBRANCH   9  21
TORSDOF 3
ENDMDL
MODEL 3
REMARK VINA RESULT:      -7.7      0.088      1.057
REMARK  Name = 
REMARK  9 active torsions:
REMARK  status: ('A' for Active; 'I' for Inactive)
REMARK    1  A    between atoms: C_1  and  C_2
REMARK    2  A    between atoms: C_5  and  N_6
REMARK    3  A    between atoms: N_9  and  C_10
REMARK    4  A    between atoms: C_10  and  C_11
REMARK    5  A    between atoms: C_10  and  C_12
REMARK    6  A    between atoms: C_13  and  C_14
REMARK    7  A    between atoms: C_13  and  C_15
REMARK    8  A    between atoms: C_17  and  C_18
REMARK    9  A    between atoms: C_17  and  O_19
REMARK                            x       y       z     vdW  Elec       q    Type
REMARK                         _______ _______ _______ _____ _____    ______ ____
ROOT
ATOM      1  N   UNL     1       5.410   4.625  17.918  0.00  0.00    +0.000 N 
ATOM      2  C   UNL     1       4.954   4.208  19.168  0.00  0.00    +0.000 C 
ATOM      3  O   UNL     1       5.669   4.278  20.171  0.00  0.00    +0.000 OA
ATOM      4  N   UNL     1       3.597   3.885  19.234  0.00  0.00    +0.000 N 
ATOM      5  C   UNL     1       3.003   3.100  18.120  0.00  0.00    +0.000 C 
ATOM      6  C   UNL     1       1.464   2.961  18.170  0.00  0.00    +0.000 C 
ATOM      7  C   UNL     1       3.560   1.659  18.124  0.00  0.00    +0.000 C 
ATOM      8  C   UNL     1       3.337   3.851  16.819  0.00  0.00    +0.000 C 
ATOM      9  C   UNL     1       4.834   4.128  16.669  0.00  0.00    +0.000 C 
ATOM     10  C   UNL     1       5.022   5.012  15.420  0.00  0.00    +0.000 C 
ENDROOT
BRANCH   1  15
ATOM     11  C   UNL     1       8.600   9.390  18.002  0.00  0.00    +0.000 C 
ATOM     12  C   UNL     1       7.754   8.151  17.954  0.00  0.00    +0.000 A 
ATOM     13  C   UNL     1       6.485   8.156  17.357  0.00  0.00    +0.000 A 
ATOM     14  C   UNL     1       5.696   7.001  17.342  0.00  0.00    +0.000 A 
ATOM     15  C   UNL     1       6.174   5.828  17.921  0.00  0.00    +0.000 A 
ATOM     16  C   UNL     1       7.456   5.815  18.494  0.00  0.00    +0.000 A 
ATOM     17  C   UNL     1       8.235   6.970  18.520  0.00  0.00    +0.000 A 
ENDBRANCH   1  15
BRANCH   4  18
ATOM     18  C   UNL     1       2.896   4.108  20.523  0.00  0.00    +0.000 C 
ATOM     19  C   UNL     1       1.800   5.165  20.441  0.00  0.00    +0.000 C 
ATOM     20  C   UNL     1       2.321   2.811  21.135  0.00  0.00    +0.000 C 
ENDBRANCH   4  18
BRANCH   9  21
ATOM     21  O   UNL     1       5.517   2.917  16.373  0.00  0.00    +0.000 OA
ATOM     22  H   UNL     1       6.257   3.195  15.794  0.00  0.00    +0.000 HD
ENDBRANCH   9  21
TORSDOF 3
ENDMDL
MODEL 4
REMARK VINA RESULT:      -7.5      2.406      3.505
REMARK  Name = 
REMARK  9 active torsions:
REMARK  status: ('A' for Active; 'I' for Inactive)
REMARK    1  A    between atoms: C_1  and  C_2
REMARK    2  A    between atoms: C_5  and  N_6
REMARK    3  A    between atoms: N_9  and  C_10
REMARK    4  A    between atoms: C_10  and  C_11
REMARK    5  A    between atoms: C_10  and  C_12
REMARK    6  A    between atoms: C_13  and  C_14
REMARK    7  A    between atoms: C_13  and  C_15
REMARK    8  A    between atoms: C_17  and  C_18
REMARK    9  A    between atoms: C_17  and  O_19
REMARK                            x       y       z     vdW  Elec       q    Type
REMARK                         _______ _______ _______ _____ _____    ______ ____
ROOT
ATOM      1  N   UNL     1       4.487   3.962  18.496  0.00  0.00    +0.000 N 
ATOM      2  C   UNL     1       3.977   5.098  19.124  0.00  0.00    +0.000 C 
ATOM      3  O   UNL     1       4.635   6.137  19.210  0.00  0.00    +0.000 OA
ATOM      4  N   UNL     1       2.627   5.031  19.478  0.00  0.00    +0.000 N 
ATOM      5  C   UNL     1       2.115   3.771  20.075  0.00  0.00    +0.000 C 
ATOM      6  C   UNL     1       0.580   3.709  20.249  0.00  0.00    +0.000 C 
ATOM      7  C   UNL     1       2.710   3.566  21.487  0.00  0.00    +0.000 C 
ATOM      8  C   UNL     1       2.497   2.633  19.112  0.00  0.00    +0.000 C 
ATOM      9  C   UNL     1       3.992   2.617  18.786  0.00  0.00    +0.000 C 
ATOM     10  C   UNL     1       4.221   1.545  17.702  0.00  0.00    +0.000 C 
ENDROOT
BRANCH   1  15
ATOM     11  C   UNL     1       7.555   4.952  13.753  0.00  0.00    +0.000 C 
ATOM     12  C   UNL     1       6.734   4.677  14.978  0.00  0.00    +0.000 A 
ATOM     13  C   UNL     1       5.340   4.534  14.906  0.00  0.00    +0.000 A 
ATOM     14  C   UNL     1       4.583   4.304  16.060  0.00  0.00    +0.000 A 
ATOM     15  C   UNL     1       5.217   4.209  17.297  0.00  0.00    +0.000 A 
ATOM     16  C   UNL     1       6.615   4.324  17.366  0.00  0.00    +0.000 A 
ATOM     17  C   UNL     1       7.366   4.567  16.217  0.00  0.00    +0.000 A 
ENDBRANCH   1  15
BRANCH   4  18
ATOM     18  C   UNL     1       1.853   6.297  19.486  0.00  0.00    +0.000 C 
ATOM     19  C   UNL     1       1.940   7.053  20.807  0.00  0.00    +0.000 C 
ATOM     20  C   UNL     1       2.224   7.244  18.322  0.00  0.00    +0.000 C 
ENDBRANCH   4  18
BRANCH   9  21
ATOM     21  O   UNL     1       4.721   2.162  19.918  0.00  0.00    +0.000 OA
ATOM     22  H   UNL     1       4.093   1.574  20.387  0.00  0.00    +0.000 HD
ENDBRANCH   9  21
TORSDOF 3
ENDMDL
MODEL 5
REMARK VINA RESULT:      -7.0      0.731      1.499
REMARK  Name = 
REMARK  9 active torsions:
REMARK  status: ('A' for Active; 'I' for Inactive)
REMARK    1  A    between atoms: C_1  and  C_2
REMARK    2  A    between atoms: C_5  and  N_6
REMARK    3  A    between atoms: N_9  and  C_10
REMARK    4  A    between atoms: C_10  and  C_11
REMARK    5  A    between atoms: C_10  and  C_12
REMARK    6  A    between atoms: C_13  and  C_14
REMARK    7  A    between atoms: C_13  and  C_15
REMARK    8  A    between atoms: C_17  and  C_18
REMARK    9  A    between atoms: C_17  and  O_19
REMARK                            x       y       z     vdW  Elec       q    Type
REMARK                         _______ _______ _______ _____ _____    ______ ____
ROOT
ATOM      1  N   UNL     1       4.880   4.455  18.092  0.00  0.00    +0.000 N 
ATOM      2  C   UNL     1       4.229   4.298  19.316  0.00  0.00    +0.000 C 
ATOM      3  O   UNL     1       4.798   4.536  20.383  0.00  0.00    +0.000 OA
ATOM      4  N   UNL     1       2.860   4.034  19.236  0.00  0.00    +0.000 N 
ATOM      5  C   UNL     1       2.384   3.071  18.210  0.00  0.00    +0.000 C 
ATOM      6  C   UNL     1       0.848   2.990  18.054  0.00  0.00    +0.000 C 
ATOM      7  C   UNL     1       2.851   1.640  18.561  0.00  0.00    +0.000 C 
ATOM      8  C   UNL     1       2.941   3.549  16.857  0.00  0.00    +0.000 C 
ATOM      9  C   UNL     1       4.458   3.748  16.884  0.00  0.00    +0.000 C 
ATOM     10  C   UNL     1       4.871   4.372  15.536  0.00  0.00    +0.000 C 
ENDROOT
BRANCH   1  15
ATOM     11  C   UNL     1       8.315   9.034  17.736  0.00  0.00    +0.000 C 
ATOM     12  C   UNL     1       7.403   7.844  17.804  0.00  0.00    +0.000 A 
ATOM     13  C   UNL     1       6.085   7.906  17.329  0.00  0.00    +0.000 A 
ATOM     14  C   UNL     1       5.237   6.797  17.422  0.00  0.00    +0.000 A 
ATOM     15  C   UNL     1       5.704   5.613  17.988  0.00  0.00    +0.000 A 
ATOM     16  C   UNL     1       7.033   5.542  18.439  0.00  0.00    +0.000 A 
ATOM     17  C   UNL     1       7.872   6.652  18.357  0.00  0.00    +0.000 A 
ENDBRANCH   1  15
BRANCH   4  18
ATOM     18  C   UNL     1       1.998   4.521  20.343  0.00  0.00    +0.000 C 
ATOM     19  C   UNL     1       2.244   3.801  21.663  0.00  0.00    +0.000 C 
ATOM     20  C   UNL     1       2.091   6.048  20.559  0.00  0.00    +0.000 C 
ENDBRANCH   4  18
BRANCH   9  21
ATOM     21  O   UNL     1       5.104   2.482  16.921  0.00  0.00    +0.000 OA
ATOM     22  H   UNL     1       4.383   1.841  16.748  0.00  0.00    +0.000 HD
ENDBRANCH   9  21
TORSDOF 3
ENDMDL
MODEL 6
REMARK VINA RESULT:      -7.0      0.690      1.043
REMARK  Name = 
REMARK  9 active torsions:
REMARK  status: ('A' for Active; 'I' for Inactive)
REMARK    1  A    between atoms: C_1  and  C_2
REMARK    2  A    between atoms: C_5  and  N_6
REMARK    3  A    between atoms: N_9  and  C_10
REMARK    4  A    between atoms: C_10  and  C_11
REMARK    5  A    between atoms: C_10  and  C_12
REMARK    6  A    between atoms: C_13  and  C_14
REMARK    7  A    between atoms: C_13  and  C_15
REMARK    8  A    between atoms: C_17  and  C_18
REMARK    9  A    between atoms: C_17  and  O_19
REMARK                            x       y       z     vdW  Elec       q    Type
REMARK                         _______ _______ _______ _____ _____    ______ ____
ROOT
ATOM      1  N   UNL     1       4.964   4.457  18.076  0.00  0.00    +0.000 N 
ATOM      2  C   UNL     1       4.274   4.317  19.280  0.00  0.00    +0.000 C 
ATOM      3  O   UNL     1       4.823   4.526  20.365  0.00  0.00    +0.000 OA
ATOM      4  N   UNL     1       2.898   4.107  19.162  0.00  0.00    +0.000 N 
ATOM      5  C   UNL     1       2.414   3.169  18.116  0.00  0.00    +0.000 C 
ATOM      6  C   UNL     1       0.881   3.149  17.919  0.00  0.00    +0.000 C 
ATOM      7  C   UNL     1       2.816   1.720  18.469  0.00  0.00    +0.000 C 
ATOM      8  C   UNL     1       3.025   3.634  16.782  0.00  0.00    +0.000 C 
ATOM      9  C   UNL     1       4.548   3.774  16.852  0.00  0.00    +0.000 C 
ATOM     10  C   UNL     1       5.020   4.390  15.519  0.00  0.00    +0.000 C 
ENDROOT
BRANCH   1  15
ATOM     11  C   UNL     1       8.350   9.071  17.719  0.00  0.00    +0.000 C 
ATOM     12  C   UNL     1       7.477   7.856  17.838  0.00  0.00    +0.000 A 
ATOM     13  C   UNL     1       7.954   6.667  18.409  0.00  0.00    +0.000 A 
ATOM     14  C   UNL     1       7.139   5.533  18.490  0.00  0.00    +0.000 A 
ATOM     15  C   UNL     1       5.834   5.583  18.003  0.00  0.00    +0.000 A 
ATOM     16  C   UNL     1       5.347   6.781  17.456  0.00  0.00    +0.000 A 
ATOM     17  C   UNL     1       6.166   7.905  17.364  0.00  0.00    +0.000 A 
ENDBRANCH   1  15
BRANCH   4  18
ATOM     18  C   UNL     1       2.026   4.619  20.248  0.00  0.00    +0.000 C 
ATOM     19  C   UNL     1       2.225   3.898  21.576  0.00  0.00    +0.000 C 
ATOM     20  C   UNL     1       2.154   6.145  20.462  0.00  0.00    +0.000 C 
ENDBRANCH   4  18
BRANCH   9  21
ATOM     21  O   UNL     1       5.143   2.484  16.896  0.00  0.00    +0.000 OA
ATOM     22  H   UNL     1       5.066   2.218  17.836  0.00  0.00    +0.000 HD
ENDBRANCH   9  21
TORSDOF 3
ENDMDL
MODEL 7
REMARK VINA RESULT:      -6.8      2.975      4.318
REMARK  Name = 
REMARK  9 active torsions:
REMARK  status: ('A' for Active; 'I' for Inactive)
REMARK    1  A    between atoms: C_1  and  C_2
REMARK    2  A    between atoms: C_5  and  N_6
REMARK    3  A    between atoms: N_9  and  C_10
REMARK    4  A    between atoms: C_10  and  C_11
REMARK    5  A    between atoms: C_10  and  C_12
REMARK    6  A    between atoms: C_13  and  C_14
REMARK    7  A    between atoms: C_13  and  C_15
REMARK    8  A    between atoms: C_17  and  C_18
REMARK    9  A    between atoms: C_17  and  O_19
REMARK                            x       y       z     vdW  Elec       q    Type
REMARK                         _______ _______ _______ _____ _____    ______ ____
ROOT
ATOM      1  N   UNL     1       3.025   6.238  19.196  0.00  0.00    +0.000 N 
ATOM      2  C   UNL     1       2.410   5.283  20.004  0.00  0.00    +0.000 C 
ATOM      3  O   UNL     1       1.870   5.590  21.069  0.00  0.00    +0.000 OA
ATOM      4  N   UNL     1       2.292   4.009  19.442  0.00  0.00    +0.000 N 
ATOM      5  C   UNL     1       3.449   3.459  18.689  0.00  0.00    +0.000 C 
ATOM      6  C   UNL     1       3.167   2.141  17.932  0.00  0.00    +0.000 C 
ATOM      7  C   UNL     1       4.619   3.154  19.653  0.00  0.00    +0.000 C 
ATOM      8  C   UNL     1       3.828   4.507  17.627  0.00  0.00    +0.000 C 
ATOM      9  C   UNL     1       4.066   5.893  18.229  0.00  0.00    +0.000 C 
ATOM     10  C   UNL     1       4.281   6.877  17.061  0.00  0.00    +0.000 C 
ENDROOT
BRANCH   1  15
ATOM     11  C   UNL     1       0.189  11.213  18.881  0.00  0.00    +0.000 C 
ATOM     12  C   UNL     1       0.949   9.920  18.941  0.00  0.00    +0.000 A 
ATOM     13  C   UNL     1       1.478   9.329  17.784  0.00  0.00    +0.000 A 
ATOM     14  C   UNL     1       2.161   8.110  17.850  0.00  0.00    +0.000 A 
ATOM     15  C   UNL     1       2.325   7.474  19.079  0.00  0.00    +0.000 A 
ATOM     16  C   UNL     1       1.820   8.079  20.241  0.00  0.00    +0.000 A 
ATOM     17  C   UNL     1       1.127   9.287  20.171  0.00  0.00    +0.000 A 
ENDBRANCH   1  15
BRANCH   4  18
ATOM     18  C   UNL     1       1.132   3.179  19.851  0.00  0.00    +0.000 C 
ATOM     19  C   UNL     1       0.628   2.256  18.748  0.00  0.00    +0.000 C 
ATOM     20  C   UNL     1       1.395   2.358  21.134  0.00  0.00    +0.000 C 
ENDBRANCH   4  18
BRANCH   9  21
ATOM     21  O   UNL     1       5.292   5.898  18.948  0.00  0.00    +0.000 OA
ATOM     22  H   UNL     1       5.829   6.584  18.500  0.00  0.00    +0.000 HD
ENDBRANCH   9  21
TORSDOF 3
ENDMDL
MODEL 8
REMARK VINA RESULT:      -6.8      2.704      4.139
REMARK  Name = 
REMARK  9 active torsions:
REMARK  status: ('A' for Active; 'I' for Inactive)
REMARK    1  A    between atoms: C_1  and  C_2
REMARK    2  A    between atoms: C_5  and  N_6
REMARK    3  A    between atoms: N_9  and  C_10
REMARK    4  A    between atoms: C_10  and  C_11
REMARK    5  A    between atoms: C_10  and  C_12
REMARK    6  A    between atoms: C_13  and  C_14
REMARK    7  A    between atoms: C_13  and  C_15
REMARK    8  A    between atoms: C_17  and  C_18
REMARK    9  A    between atoms: C_17  and  O_19
REMARK                            x       y       z     vdW  Elec       q    Type
REMARK                         _______ _______ _______ _____ _____    ______ ____
ROOT
ATOM      1  N   UNL     1       3.296   5.833  19.361  0.00  0.00    +0.000 N 
ATOM      2  C   UNL     1       2.699   4.841  20.139  0.00  0.00    +0.000 C 
ATOM      3  O   UNL     1       2.119   5.111  21.193  0.00  0.00    +0.000 OA
ATOM      4  N   UNL     1       2.648   3.572  19.557  0.00  0.00    +0.000 N 
ATOM      5  C   UNL     1       3.846   3.081  18.828  0.00  0.00    +0.000 C 
ATOM      6  C   UNL     1       3.639   1.764  18.046  0.00  0.00    +0.000 C 
ATOM      7  C   UNL     1       5.001   2.810  19.818  0.00  0.00    +0.000 C 
ATOM      8  C   UNL     1       4.210   4.158  17.791  0.00  0.00    +0.000 C 
ATOM      9  C   UNL     1       4.375   5.545  18.417  0.00  0.00    +0.000 C 
ATOM     10  C   UNL     1       4.580   6.553  17.269  0.00  0.00    +0.000 C 
ENDROOT
BRANCH   1  15
ATOM     11  C   UNL     1       0.310  10.688  18.727  0.00  0.00    +0.000 C 
ATOM     12  C   UNL     1       1.074   9.410  18.915  0.00  0.00    +0.000 A 
ATOM     13  C   UNL     1       1.243   8.841  20.186  0.00  0.00    +0.000 A 
ATOM     14  C   UNL     1       1.980   7.663  20.351  0.00  0.00    +0.000 A 
ATOM     15  C   UNL     1       2.549   7.041  19.242  0.00  0.00    +0.000 A 
ATOM     16  C   UNL     1       2.356   7.595  17.966  0.00  0.00    +0.000 A 
ATOM     17  C   UNL     1       1.634   8.777  17.806  0.00  0.00    +0.000 A 
ENDBRANCH   1  15
BRANCH   4  18
ATOM     18  C   UNL     1       1.513   2.690  19.924  0.00  0.00    +0.000 C 
ATOM     19  C   UNL     1       1.304   2.563  21.428  0.00  0.00    +0.000 C 
ATOM     20  C   UNL     1       0.183   3.098  19.249  0.00  0.00    +0.000 C 
ENDBRANCH   4  18
BRANCH   9  21
ATOM     21  O   UNL     1       5.580   5.588  19.169  0.00  0.00    +0.000 OA
ATOM     22  H   UNL     1       5.660   6.527  19.439  0.00  0.00    +0.000 HD
ENDBRANCH   9  21
TORSDOF 3
ENDMDL
MODEL 9
REMARK VINA RESULT:      -6.8      2.789      4.679
REMARK  Name = 
REMARK  9 active torsions:
REMARK  status: ('A' for Active; 'I' for Inactive)
REMARK    1  A    between atoms: C_1  and  C_2
REMARK    2  A    between atoms: C_5  and  N_6
REMARK    3  A    between atoms: N_9  and  C_10
REMARK    4  A    between atoms: C_10  and  C_11
REMARK    5  A    between atoms: C_10  and  C_12
REMARK    6  A    between atoms: C_13  and  C_14
REMARK    7  A    between atoms: C_13  and  C_15
REMARK    8  A    between atoms: C_17  and  C_18
REMARK    9  A    between atoms: C_17  and  O_19
REMARK                            x       y       z     vdW  Elec       q    Type
REMARK                         _______ _______ _______ _____ _____    ______ ____
ROOT
ATOM      1  N   UNL     1       2.535   5.281  18.514  0.00  0.00    +0.000 N 
ATOM      2  C   UNL     1       3.800   5.103  17.954  0.00  0.00    +0.000 C 
ATOM      3  O   UNL     1       4.230   5.859  17.080  0.00  0.00    +0.000 OA
ATOM      4  N   UNL     1       4.599   4.137  18.572  0.00  0.00    +0.000 N 
ATOM      5  C   UNL     1       3.969   2.854  18.977  0.00  0.00    +0.000 C 
ATOM      6  C   UNL     1       4.867   1.929  19.831  0.00  0.00    +0.000 C 
ATOM      7  C   UNL     1       3.577   2.032  17.729  0.00  0.00    +0.000 C 
ATOM      8  C   UNL     1       2.749   3.210  19.846  0.00  0.00    +0.000 C 
ATOM      9  C   UNL     1       1.800   4.189  19.151  0.00  0.00    +0.000 C 
ATOM     10  C   UNL     1       0.713   4.587  20.170  0.00  0.00    +0.000 C 
ENDROOT
BRANCH   1  15
ATOM     11  C   UNL     1       1.077  10.748  19.444  0.00  0.00    +0.000 C 
ATOM     12  C   UNL     1       1.444   9.310  19.226  0.00  0.00    +0.000 A 
ATOM     13  C   UNL     1       1.697   8.449  20.304  0.00  0.00    +0.000 A 
ATOM     14  C   UNL     1       2.064   7.117  20.085  0.00  0.00    +0.000 A 
ATOM     15  C   UNL     1       2.177   6.633  18.783  0.00  0.00    +0.000 A 
ATOM     16  C   UNL     1       1.897   7.488  17.705  0.00  0.00    +0.000 A 
ATOM     17  C   UNL     1       1.545   8.818  17.924  0.00  0.00    +0.000 A 
ENDBRANCH   1  15
BRANCH   4  18
ATOM     18  C   UNL     1       6.069   4.338  18.546  0.00  0.00    +0.000 C 
ATOM     19  C   UNL     1       6.649   4.395  17.138  0.00  0.00    +0.000 C 
ATOM     20  C   UNL     1       6.527   5.580  19.346  0.00  0.00    +0.000 C 
ENDBRANCH   4  18
BRANCH   9  21
ATOM     21  O   UNL     1       1.104   3.519  18.108  0.00  0.00    +0.000 OA
ATOM     22  H   UNL     1       0.863   2.654  18.500  0.00  0.00    +0.000 HD
ENDBRANCH   9  21
TORSDOF 3
ENDMDL
