MODEL 1
REMARK VINA RESULT:      -9.3      0.000      0.000
REMARK  Name = 
REMARK  7 active torsions:
REMARK  status: ('A' for Active; 'I' for Inactive)
REMARK    1  A    between atoms: C_1  and  C_2
REMARK    2  A    between atoms: C_7  and  N_8
REMARK    3  A    between atoms: N_8  and  C_9
REMARK    4  A    between atoms: C_14  and  C_15
REMARK    5  A    between atoms: N_17  and  C_18
REMARK    6  A    between atoms: C_18  and  C_19
REMARK    7  A    between atoms: C_19  and  C_20
REMARK                            x       y       z     vdW  Elec       q    Type
REMARK                         _______ _______ _______ _____ _____    ______ ____
ROOT
ATOM      1  C   UNL     1       3.241   6.000  18.611  0.00  0.00    +0.000 C 
ATOM      2  O   UNL     1       4.317   6.313  19.109  0.00  0.00    +0.000 OA
ATOM      3  N   UNL     1       2.337   6.940  18.125  0.00  0.00    +0.000 N 
ATOM      4  H   UNL     1       1.553   6.646  17.569  0.00  0.00    +0.000 HD
ENDROOT
BRANCH   1  10
ATOM      5  C   UNL     1       3.732   3.514  18.098  0.00  0.00    +0.000 A 
ATOM      6  C   UNL     1       3.221   2.196  17.960  0.00  0.00    +0.000 A 
ATOM      7  C   UNL     1       1.917   1.857  18.302  0.00  0.00    +0.000 A 
ATOM      8  C   UNL     1       1.069   2.840  18.771  0.00  0.00    +0.000 A 
ATOM      9  C   UNL     1       1.516   4.160  18.850  0.00  0.00    +0.000 A 
ATOM     10  C   UNL     1       2.834   4.540  18.492  0.00  0.00    +0.000 A 
BRANCH   5  11
ATOM     11  N   UNL     1       5.141   3.670  18.000  0.00  0.00    +0.000 N 
ATOM     12  H   UNL     1       5.685   3.324  18.786  0.00  0.00    +0.000 HD
BRANCH  11  19
ATOM     13  C   UNL     1       7.698   5.231  18.087  0.00  0.00    +0.000 C 
ATOM     14  C   UNL     1       6.996   4.836  16.821  0.00  0.00    +0.000 A 
ATOM     15  N   UNL     1       7.527   5.383  15.677  0.00  0.00    +0.000 NA
ATOM     16  C   UNL     1       6.940   5.086  14.500  0.00  0.00    +0.000 A 
ATOM     17  C   UNL     1       5.875   4.223  14.380  0.00  0.00    +0.000 A 
ATOM     18  C   UNL     1       5.338   3.694  15.558  0.00  0.00    +0.000 A 
ATOM     19  C   UNL     1       5.858   4.020  16.821  0.00  0.00    +0.000 A 
ENDBRANCH  11  19
ENDBRANCH   5  11
ENDBRANCH   1  10
BRANCH   3  20
ATOM     20  C   UNL     1       2.409   8.381  18.307  0.00  0.00    +0.000 C 
BRANCH  20  21
ATOM     21  C   UNL     1       1.192   9.204  17.907  0.00  0.00    +0.000 C 
BRANCH  21  22
ATOM     22  C   UNL     1       0.464  10.004  18.945  0.00  0.00    +0.000 A 
ATOM     23  C   UNL     1      -0.047  11.259  18.661  0.00  0.00    +0.000 A 
ATOM     24  N   UNL     1       0.124  11.945  19.826  0.00  0.00    +0.000 N 
ATOM     25  C   UNL     1      -0.128  11.081  20.857  0.00  0.00    +0.000 A 
ATOM     26  C   UNL     1      -0.532  11.343  22.169  0.00  0.00    +0.000 A 
ATOM     27  C   UNL     1      -0.696  10.246  23.006  0.00  0.00    +0.000 A 
ATOM     28  C   UNL     1      -0.354   8.963  22.570  0.00  0.00    +0.000 A 
ATOM     29  C   UNL     1       0.134   8.736  21.265  0.00  0.00    +0.000 A 
ATOM     30  C   UNL     1       0.172   9.808  20.349  0.00  0.00    +0.000 A 
ATOM     31  H   UNL     1       0.376  12.918  19.911  0.00  0.00    +0.000 HD
ENDBRANCH  21  22
ENDBRANCH  20  21
ENDBRANCH   3  20
TORSDOF 6
ENDMDL
MODEL 2
REMARK VINA RESULT:      -9.2      1.591      2.152
REMARK  Name = 
REMARK  7 active torsions:
REMARK  status: ('A' for Active; 'I' for Inactive)
REMARK    1  A    between atoms: C_1  and  C_2
REMARK    2  A    between atoms: C_7  and  N_8
REMARK    3  A    between atoms: N_8  and  C_9
REMARK    4  A    between atoms: C_14  and  C_15
REMARK    5  A    between atoms: N_17  and  C_18
REMARK    6  A    between atoms: C_18  and  C_19
REMARK    7  A    between atoms: C_19  and  C_20
REMARK                            x       y       z     vdW  Elec       q    Type
REMARK                         _______ _______ _______ _____ _____    ______ ____
ROOT
ATOM      1  C   UNL     1       2.983   6.013  18.052  0.00  0.00    +0.000 C 
ATOM      2  O   UNL     1       3.869   6.481  17.346  0.00  0.00    +0.000 OA
ATOM      3  N   UNL     1       2.078   6.809  18.747  0.00  0.00    +0.000 N 
ATOM      4  H   UNL     1       1.264   6.398  19.169  0.00  0.00    +0.000 HD
ENDROOT
BRANCH   1  10
ATOM      5  C   UNL     1       3.898   3.595  18.067  0.00  0.00    +0.000 A 
ATOM      6  C   UNL     1       3.613   2.207  18.164  0.00  0.00    +0.000 A 
ATOM      7  C   UNL     1       2.354   1.721  18.498  0.00  0.00    +0.000 A 
ATOM      8  C   UNL     1       1.326   2.616  18.718  0.00  0.00    +0.000 A 
ATOM      9  C   UNL     1       1.554   3.984  18.558  0.00  0.00    +0.000 A 
ATOM     10  C   UNL     1       2.821   4.508  18.202  0.00  0.00    +0.000 A 
BRANCH   5  11
ATOM     11  N   UNL     1       5.269   3.967  18.014  0.00  0.00    +0.000 N 
ATOM     12  H   UNL     1       5.795   3.859  18.877  0.00  0.00    +0.000 HD
BRANCH  11  19
ATOM     13  C   UNL     1       7.550   5.909  17.950  0.00  0.00    +0.000 C 
ATOM     14  C   UNL     1       7.016   5.198  16.741  0.00  0.00    +0.000 A 
ATOM     15  N   UNL     1       7.548   5.621  15.545  0.00  0.00    +0.000 NA
ATOM     16  C   UNL     1       7.105   5.039  14.412  0.00  0.00    +0.000 A 
ATOM     17  C   UNL     1       6.193   4.009  14.395  0.00  0.00    +0.000 A 
ATOM     18  C   UNL     1       5.650   3.607  15.620  0.00  0.00    +0.000 A 
ATOM     19  C   UNL     1       6.016   4.222  16.829  0.00  0.00    +0.000 A 
ENDBRANCH  11  19
ENDBRANCH   5  11
ENDBRANCH   1  10
BRANCH   3  20
ATOM     20  C   UNL     1       2.153   8.251  18.922  0.00  0.00    +0.000 C 
BRANCH  20  21
ATOM     21  C   UNL     1       1.476   9.125  17.874  0.00  0.00    +0.000 C 
BRANCH  21  22
ATOM     22  C   UNL     1       0.498  10.175  18.306  0.00  0.00    +0.000 A 
ATOM     23  C   UNL     1       0.860  11.176  19.192  0.00  0.00    +0.000 A 
ATOM     24  N   UNL     1      -0.271  11.378  19.925  0.00  0.00    +0.000 N 
ATOM     25  C   UNL     1      -1.340  11.265  19.078  0.00  0.00    +0.000 A 
ATOM     26  C   UNL     1      -2.628  11.800  19.183  0.00  0.00    +0.000 A 
ATOM     27  C   UNL     1      -3.517  11.498  18.159  0.00  0.00    +0.000 A 
ATOM     28  C   UNL     1      -3.157  10.606  17.147  0.00  0.00    +0.000 A 
ATOM     29  C   UNL     1      -1.877  10.010  17.111  0.00  0.00    +0.000 A 
ATOM     30  C   UNL     1      -0.907  10.411  18.053  0.00  0.00    +0.000 A 
ATOM     31  H   UNL     1      -0.310  11.587  20.911  0.00  0.00    +0.000 HD
ENDBRANCH  21  22
ENDBRANCH  20  21
ENDBRANCH   3  20
TORSDOF 6
ENDMDL
MODEL 3
REMARK VINA RESULT:      -9.0      2.110      2.917
REMARK  Name = 
REMARK  7 active torsions:
REMARK  status: ('A' for Active; 'I' for Inactive)
REMARK    1  A    between atoms: C_1  and  C_2
REMARK    2  A    between atoms: C_7  and  N_8
REMARK    3  A    between atoms: N_8  and  C_9
REMARK    4  A    between atoms: C_14  and  C_15
REMARK    5  A    between atoms: N_17  and  C_18
REMARK    6  A    between atoms: C_18  and  C_19
REMARK    7  A    between atoms: C_19  and  C_20
REMARK                            x       y       z     vdW  Elec       q    Type
REMARK                         _______ _______ _______ _____ _____    ______ ____
ROOT
ATOM      1  C   UNL     1       2.365   6.740  19.127  0.00  0.00    +0.000 C 
ATOM      2  O   UNL     1       2.827   6.990  18.020  0.00  0.00    +0.000 OA
ATOM      3  N   UNL     1       1.686   7.687  19.887  0.00  0.00    +0.000 N 
ATOM      4  H   UNL     1       1.171   7.405  20.703  0.00  0.00    +0.000 HD
ENDROOT
BRANCH   1  10
ATOM      5  C   UNL     1       3.704   4.595  19.662  0.00  0.00    +0.000 A 
ATOM      6  C   UNL     1       3.698   3.285  20.211  0.00  0.00    +0.000 A 
ATOM      7  C   UNL     1       2.614   2.770  20.912  0.00  0.00    +0.000 A 
ATOM      8  C   UNL     1       1.481   3.545  21.060  0.00  0.00    +0.000 A 
ATOM      9  C   UNL     1       1.425   4.808  20.469  0.00  0.00    +0.000 A 
ATOM     10  C   UNL     1       2.508   5.354  19.736  0.00  0.00    +0.000 A 
BRANCH   5  11
ATOM     11  N   UNL     1       4.960   5.107  19.236  0.00  0.00    +0.000 N 
ATOM     12  H   UNL     1       5.480   5.645  19.924  0.00  0.00    +0.000 HD
BRANCH  11  19
ATOM     13  C   UNL     1       7.904   5.552  18.898  0.00  0.00    +0.000 C 
ATOM     14  C   UNL     1       7.005   5.016  17.823  0.00  0.00    +0.000 A 
ATOM     15  N   UNL     1       7.600   4.885  16.590  0.00  0.00    +0.000 NA
ATOM     16  C   UNL     1       6.851   4.424  15.569  0.00  0.00    +0.000 A 
ATOM     17  C   UNL     1       5.541   4.025  15.709  0.00  0.00    +0.000 A 
ATOM     18  C   UNL     1       4.949   4.185  16.966  0.00  0.00    +0.000 A 
ATOM     19  C   UNL     1       5.654   4.727  18.053  0.00  0.00    +0.000 A 
ENDBRANCH  11  19
ENDBRANCH   5  11
ENDBRANCH   1  10
BRANCH   3  20
ATOM     20  C   UNL     1       1.598   9.113  19.614  0.00  0.00    +0.000 C 
BRANCH  20  21
ATOM     21  C   UNL     1       0.891   9.544  18.336  0.00  0.00    +0.000 C 
BRANCH  21  22
ATOM     22  C   UNL     1      -0.303  10.447  18.419  0.00  0.00    +0.000 A 
ATOM     23  C   UNL     1      -0.361  11.483  19.337  0.00  0.00    +0.000 A 
ATOM     24  N   UNL     1      -1.676  11.522  19.692  0.00  0.00    +0.000 N 
ATOM     25  C   UNL     1      -2.417  11.269  18.569  0.00  0.00    +0.000 A 
ATOM     26  C   UNL     1      -3.735  11.621  18.266  0.00  0.00    +0.000 A 
ATOM     27  C   UNL     1      -4.227  11.206  17.034  0.00  0.00    +0.000 A 
ATOM     28  C   UNL     1      -3.464  10.378  16.207  0.00  0.00    +0.000 A 
ATOM     29  C   UNL     1      -2.166   9.965  16.576  0.00  0.00    +0.000 A 
ATOM     30  C   UNL     1      -1.585  10.490  17.751  0.00  0.00    +0.000 A 
ATOM     31  H   UNL     1      -2.037  11.717  20.613  0.00  0.00    +0.000 HD
ENDBRANCH  21  22
ENDBRANCH  20  21
ENDBRANCH   3  20
TORSDOF 6
ENDMDL
MODEL 4
REMARK VINA RESULT:      -8.9      2.326      3.365
REMARK  Name = 
REMARK  7 active torsions:
REMARK  status: ('A' for Active; 'I' for Inactive)
REMARK    1  A    between atoms: C_1  and  C_2
REMARK    2  A    between atoms: C_7  and  N_8
REMARK    3  A    between atoms: N_8  and  C_9
REMARK    4  A    between atoms: C_14  and  C_15
REMARK    5  A    between atoms: N_17  and  C_18
REMARK    6  A    between atoms: C_18  and  C_19
REMARK    7  A    between atoms: C_19  and  C_20
REMARK                            x       y       z     vdW  Elec       q    Type
REMARK                         _______ _______ _______ _____ _____    ______ ____
ROOT
ATOM      1  C   UNL     1       2.058   7.730  18.894  0.00  0.00    +0.000 C 
ATOM      2  O   UNL     1       2.261   8.077  17.736  0.00  0.00    +0.000 OA
ATOM      3  N   UNL     1       1.377   8.528  19.808  0.00  0.00    +0.000 N 
ATOM      4  H   UNL     1       1.076   8.144  20.687  0.00  0.00    +0.000 HD
ENDROOT
BRANCH   1  10
ATOM      5  C   UNL     1       3.720   5.750  18.916  0.00  0.00    +0.000 A 
ATOM      6  C   UNL     1       4.040   4.460  19.415  0.00  0.00    +0.000 A 
ATOM      7  C   UNL     1       3.315   3.848  20.432  0.00  0.00    +0.000 A 
ATOM      8  C   UNL     1       2.222   4.502  20.964  0.00  0.00    +0.000 A 
ATOM      9  C   UNL     1       1.836   5.740  20.445  0.00  0.00    +0.000 A 
ATOM     10  C   UNL     1       2.545   6.380  19.399  0.00  0.00    +0.000 A 
BRANCH   5  11
ATOM     11  N   UNL     1       4.697   6.383  18.100  0.00  0.00    +0.000 N 
ATOM     12  H   UNL     1       4.978   7.318  18.381  0.00  0.00    +0.000 HD
BRANCH  11  19
ATOM     13  C   UNL     1       7.584   7.063  17.672  0.00  0.00    +0.000 C 
ATOM     14  C   UNL     1       6.808   6.112  16.810  0.00  0.00    +0.000 A 
ATOM     15  N   UNL     1       7.474   5.680  15.687  0.00  0.00    +0.000 NA
ATOM     16  C   UNL     1       6.834   4.834  14.855  0.00  0.00    +0.000 A 
ATOM     17  C   UNL     1       5.573   4.339  15.098  0.00  0.00    +0.000 A 
ATOM     18  C   UNL     1       4.905   4.807  16.235  0.00  0.00    +0.000 A 
ATOM     19  C   UNL     1       5.489   5.743  17.104  0.00  0.00    +0.000 A 
ENDBRANCH  11  19
ENDBRANCH   5  11
ENDBRANCH   1  10
BRANCH   3  20
ATOM     20  C   UNL     1       0.999   9.920  19.626  0.00  0.00    +0.000 C 
BRANCH  20  21
ATOM     21  C   UNL     1      -0.327  10.375  20.222  0.00  0.00    +0.000 C 
BRANCH  21  22
ATOM     22  C   UNL     1      -1.331  11.069  19.352  0.00  0.00    +0.000 A 
ATOM     23  C   UNL     1      -1.856  12.302  19.699  0.00  0.00    +0.000 A 
ATOM     24  N   UNL     1      -3.143  12.238  19.255  0.00  0.00    +0.000 N 
ATOM     25  C   UNL     1      -3.138  11.563  18.065  0.00  0.00    +0.000 A 
ATOM     26  C   UNL     1      -4.050  11.606  17.006  0.00  0.00    +0.000 A 
ATOM     27  C   UNL     1      -3.784  10.784  15.917  0.00  0.00    +0.000 A 
ATOM     28  C   UNL     1      -2.719   9.882  15.952  0.00  0.00    +0.000 A 
ATOM     29  C   UNL     1      -1.862   9.797  17.072  0.00  0.00    +0.000 A 
ATOM     30  C   UNL     1      -2.019  10.719  18.128  0.00  0.00    +0.000 A 
ATOM     31  H   UNL     1      -3.950  12.632  19.716  0.00  0.00    +0.000 HD
ENDBRANCH  21  22
ENDBRANCH  20  21
ENDBRANCH   3  20
TORSDOF 6
ENDMDL
MODEL 5
REMARK VINA RESULT:      -8.8      1.960      2.830
REMARK  Name = 
REMARK  7 active torsions:
REMARK  status: ('A' for Active; 'I' for Inactive)
REMARK    1  A    between atoms: C_1  and  C_2
REMARK    2  A    between atoms: C_7  and  N_8
REMARK    3  A    between atoms: N_8  and  C_9
REMARK    4  A    between atoms: C_14  and  C_15
REMARK    5  A    between atoms: N_17  and  C_18
REMARK    6  A    between atoms: C_18  and  C_19
REMARK    7  A    between atoms: C_19  and  C_20
REMARK                            x       y       z     vdW  Elec       q    Type
REMARK                         _______ _______ _______ _____ _____    ______ ____
ROOT
ATOM      1  C   UNL     1       2.197   6.586  20.000  0.00  0.00    +0.000 C 
ATOM      2  O   UNL     1       2.742   7.240  19.118  0.00  0.00    +0.000 OA
ATOM      3  N   UNL     1       1.469   7.173  21.029  0.00  0.00    +0.000 N 
ATOM      4  H   UNL     1       0.893   6.607  21.627  0.00  0.00    +0.000 HD
ENDROOT
BRANCH   1  10
ATOM      5  C   UNL     1       3.431   4.356  19.568  0.00  0.00    +0.000 A 
ATOM      6  C   UNL     1       3.374   2.937  19.563  0.00  0.00    +0.000 A 
ATOM      7  C   UNL     1       2.295   2.227  20.077  0.00  0.00    +0.000 A 
ATOM      8  C   UNL     1       1.217   2.922  20.589  0.00  0.00    +0.000 A 
ATOM      9  C   UNL     1       1.209   4.317  20.542  0.00  0.00    +0.000 A 
ATOM     10  C   UNL     1       2.286   5.068  20.010  0.00  0.00    +0.000 A 
BRANCH   5  11
ATOM     11  N   UNL     1       4.694   4.948  19.295  0.00  0.00    +0.000 N 
ATOM     12  H   UNL     1       5.135   5.438  20.068  0.00  0.00    +0.000 HD
BRANCH  11  19
ATOM     13  C   UNL     1       7.602   5.663  19.189  0.00  0.00    +0.000 C 
ATOM     14  C   UNL     1       6.827   5.120  18.025  0.00  0.00    +0.000 A 
ATOM     15  N   UNL     1       7.510   5.118  16.832  0.00  0.00    +0.000 NA
ATOM     16  C   UNL     1       6.873   4.658  15.736  0.00  0.00    +0.000 A 
ATOM     17  C   UNL     1       5.597   4.142  15.761  0.00  0.00    +0.000 A 
ATOM     18  C   UNL     1       4.913   4.172  16.981  0.00  0.00    +0.000 A 
ATOM     19  C   UNL     1       5.495   4.703  18.143  0.00  0.00    +0.000 A 
ENDBRANCH  11  19
ENDBRANCH   5  11
ENDBRANCH   1  10
BRANCH   3  20
ATOM     20  C   UNL     1       1.409   8.592  21.345  0.00  0.00    +0.000 C 
BRANCH  20  21
ATOM     21  C   UNL     1       0.366   9.433  20.623  0.00  0.00    +0.000 C 
BRANCH  21  22
ATOM     22  C   UNL     1       0.803  10.445  19.607  0.00  0.00    +0.000 A 
ATOM     23  C   UNL     1       0.942  10.111  18.270  0.00  0.00    +0.000 A 
ATOM     24  N   UNL     1       2.008  10.858  17.864  0.00  0.00    +0.000 N 
ATOM     25  C   UNL     1       1.924  12.074  18.487  0.00  0.00    +0.000 A 
ATOM     26  C   UNL     1       2.453  13.312  18.111  0.00  0.00    +0.000 A 
ATOM     27  C   UNL     1       2.211  14.382  18.965  0.00  0.00    +0.000 A 
ATOM     28  C   UNL     1       1.571  14.182  20.190  0.00  0.00    +0.000 A 
ATOM     29  C   UNL     1       1.122  12.903  20.585  0.00  0.00    +0.000 A 
ATOM     30  C   UNL     1       1.223  11.828  19.676  0.00  0.00    +0.000 A 
ATOM     31  H   UNL     1       2.720  10.570  17.211  0.00  0.00    +0.000 HD
ENDBRANCH  21  22
ENDBRANCH  20  21
ENDBRANCH   3  20
TORSDOF 6
ENDMDL
MODEL 6
REMARK VINA RESULT:      -8.8      4.907      7.892
REMARK  Name = 
REMARK  7 active torsions:
REMARK  status: ('A' for Active; 'I' for Inactive)
REMARK    1  A    between atoms: C_1  and  C_2
REMARK    2  A    between atoms: C_7  and  N_8
REMARK    3  A    between atoms: N_8  and  C_9
REMARK    4  A    between atoms: C_14  and  C_15
REMARK    5  A    between atoms: N_17  and  C_18
REMARK    6  A    between atoms: C_18  and  C_19
REMARK    7  A    between atoms: C_19  and  C_20
REMARK                            x       y       z     vdW  Elec       q    Type
REMARK                         _______ _______ _______ _____ _____    ______ ____
ROOT
ATOM      1  C   UNL     1       7.445   6.107  18.158  0.00  0.00    +0.000 C 
ATOM      2  O   UNL     1       7.633   5.593  19.255  0.00  0.00    +0.000 OA
ATOM      3  N   UNL     1       7.896   7.384  17.840  0.00  0.00    +0.000 N 
ATOM      4  H   UNL     1       7.882   7.702  16.887  0.00  0.00    +0.000 HD
ENDROOT
BRANCH   1  10
ATOM      5  C   UNL     1       5.882   4.225  17.321  0.00  0.00    +0.000 A 
ATOM      6  C   UNL     1       5.287   3.568  16.212  0.00  0.00    +0.000 A 
ATOM      7  C   UNL     1       5.381   4.053  14.912  0.00  0.00    +0.000 A 
ATOM      8  C   UNL     1       6.103   5.206  14.677  0.00  0.00    +0.000 A 
ATOM      9  C   UNL     1       6.762   5.837  15.734  0.00  0.00    +0.000 A 
ATOM     10  C   UNL     1       6.699   5.357  17.066  0.00  0.00    +0.000 A 
BRANCH   5  11
ATOM     11  N   UNL     1       5.471   3.802  18.614  0.00  0.00    +0.000 N 
ATOM     12  H   UNL     1       6.216   3.577  19.269  0.00  0.00    +0.000 HD
BRANCH  11  19
ATOM     13  C   UNL     1       3.525   1.525  18.548  0.00  0.00    +0.000 C 
ATOM     14  C   UNL     1       3.190   2.903  19.036  0.00  0.00    +0.000 A 
ATOM     15  N   UNL     1       1.858   3.107  19.310  0.00  0.00    +0.000 NA
ATOM     16  C   UNL     1       1.477   4.327  19.738  0.00  0.00    +0.000 A 
ATOM     17  C   UNL     1       2.357   5.360  19.966  0.00  0.00    +0.000 A 
ATOM     18  C   UNL     1       3.705   5.139  19.662  0.00  0.00    +0.000 A 
ATOM     19  C   UNL     1       4.155   3.912  19.145  0.00  0.00    +0.000 A 
ENDBRANCH  11  19
ENDBRANCH   5  11
ENDBRANCH   1  10
BRANCH   3  20
ATOM     20  C   UNL     1       8.447   8.361  18.766  0.00  0.00    +0.000 C 
BRANCH  20  21
ATOM     21  C   UNL     1       8.654   9.780  18.255  0.00  0.00    +0.000 C 
BRANCH  21  22
ATOM     22  C   UNL     1       9.522  10.727  19.027  0.00  0.00    +0.000 A 
ATOM     23  C   UNL     1       9.458  10.800  20.408  0.00  0.00    +0.000 A 
ATOM     24  N   UNL     1       9.668  12.122  20.668  0.00  0.00    +0.000 N 
ATOM     25  C   UNL     1      10.609  12.574  19.784  0.00  0.00    +0.000 A 
ATOM     26  C   UNL     1      11.489  13.655  19.885  0.00  0.00    +0.000 A 
ATOM     27  C   UNL     1      12.333  13.880  18.804  0.00  0.00    +0.000 A 
ATOM     28  C   UNL     1      12.208  13.124  17.637  0.00  0.00    +0.000 A 
ATOM     29  C   UNL     1      11.251  12.091  17.528  0.00  0.00    +0.000 A 
ATOM     30  C   UNL     1      10.482  11.745  18.659  0.00  0.00    +0.000 A 
ATOM     31  H   UNL     1       9.220  12.663  21.392  0.00  0.00    +0.000 HD
ENDBRANCH  21  22
ENDBRANCH  20  21
ENDBRANCH   3  20
TORSDOF 6
ENDMDL
MODEL 7
REMARK VINA RESULT:      -8.7      2.117      8.501
REMARK  Name = 
REMARK  7 active torsions:
REMARK  status: ('A' for Active; 'I' for Inactive)
REMARK    1  A    between atoms: C_1  and  C_2
REMARK    2  A    between atoms: C_7  and  N_8
REMARK    3  A    between atoms: N_8  and  C_9
REMARK    4  A    between atoms: C_14  and  C_15
REMARK    5  A    between atoms: N_17  and  C_18
REMARK    6  A    between atoms: C_18  and  C_19
REMARK    7  A    between atoms: C_19  and  C_20
REMARK                            x       y       z     vdW  Elec       q    Type
REMARK                         _______ _______ _______ _____ _____    ______ ____
ROOT
ATOM      1  C   UNL     1       2.082   8.950  18.333  0.00  0.00    +0.000 C 
ATOM      2  O   UNL     1       1.938   9.765  17.429  0.00  0.00    +0.000 OA
ATOM      3  N   UNL     1       2.963   7.877  18.241  0.00  0.00    +0.000 N 
ATOM      4  H   UNL     1       3.187   7.335  19.059  0.00  0.00    +0.000 HD
ENDROOT
BRANCH   1  10
ATOM      5  C   UNL     1       0.367  10.120  19.873  0.00  0.00    +0.000 A 
ATOM      6  C   UNL     1      -0.262  10.170  21.145  0.00  0.00    +0.000 A 
ATOM      7  C   UNL     1      -0.090   9.180  22.107  0.00  0.00    +0.000 A 
ATOM      8  C   UNL     1       0.744   8.115  21.832  0.00  0.00    +0.000 A 
ATOM      9  C   UNL     1       1.435   8.073  20.620  0.00  0.00    +0.000 A 
ATOM     10  C   UNL     1       1.295   9.075  19.628  0.00  0.00    +0.000 A 
BRANCH   5  11
ATOM     11  N   UNL     1      -0.114  11.020  18.883  0.00  0.00    +0.000 N 
ATOM     12  H   UNL     1       0.588  11.586  18.415  0.00  0.00    +0.000 HD
BRANCH  11  19
ATOM     13  C   UNL     1      -2.263  12.890  19.813  0.00  0.00    +0.000 C 
ATOM     14  C   UNL     1      -2.474  11.801  18.802  0.00  0.00    +0.000 A 
ATOM     15  N   UNL     1      -3.785  11.606  18.436  0.00  0.00    +0.000 NA
ATOM     16  C   UNL     1      -4.057  10.633  17.542  0.00  0.00    +0.000 A 
ATOM     17  C   UNL     1      -3.087   9.865  16.939  0.00  0.00    +0.000 A 
ATOM     18  C   UNL     1      -1.762  10.066  17.341  0.00  0.00    +0.000 A 
ATOM     19  C   UNL     1      -1.421  11.015  18.320  0.00  0.00    +0.000 A 
ENDBRANCH  11  19
ENDBRANCH   5  11
ENDBRANCH   1  10
BRANCH   3  20
ATOM     20  C   UNL     1       3.666   7.436  17.047  0.00  0.00    +0.000 C 
BRANCH  20  21
ATOM     21  C   UNL     1       4.759   6.389  17.217  0.00  0.00    +0.000 C 
BRANCH  21  22
ATOM     22  C   UNL     1       4.507   5.189  18.080  0.00  0.00    +0.000 A 
ATOM     23  C   UNL     1       5.482   4.696  18.931  0.00  0.00    +0.000 A 
ATOM     24  N   UNL     1       5.287   3.348  18.893  0.00  0.00    +0.000 N 
ATOM     25  C   UNL     1       3.938   3.124  18.840  0.00  0.00    +0.000 A 
ATOM     26  C   UNL     1       3.199   2.004  19.229  0.00  0.00    +0.000 A 
ATOM     27  C   UNL     1       1.823   2.063  19.039  0.00  0.00    +0.000 A 
ATOM     28  C   UNL     1       1.244   3.151  18.381  0.00  0.00    +0.000 A 
ATOM     29  C   UNL     1       2.026   4.233  17.921  0.00  0.00    +0.000 A 
ATOM     30  C   UNL     1       3.402   4.268  18.230  0.00  0.00    +0.000 A 
ATOM     31  H   UNL     1       6.009   2.643  18.915  0.00  0.00    +0.000 HD
ENDBRANCH  21  22
ENDBRANCH  20  21
ENDBRANCH   3  20
TORSDOF 6
ENDMDL
MODEL 8
REMARK VINA RESULT:      -8.7      1.425      1.564
REMARK  Name = 
REMARK  7 active torsions:
REMARK  status: ('A' for Active; 'I' for Inactive)
REMARK    1  A    between atoms: C_1  and  C_2
REMARK    2  A    between atoms: C_7  and  N_8
REMARK    3  A    between atoms: N_8  and  C_9
REMARK    4  A    between atoms: C_14  and  C_15
REMARK    5  A    between atoms: N_17  and  C_18
REMARK    6  A    between atoms: C_18  and  C_19
REMARK    7  A    between atoms: C_19  and  C_20
REMARK                            x       y       z     vdW  Elec       q    Type
REMARK                         _______ _______ _______ _____ _____    ______ ____
ROOT
ATOM      1  C   UNL     1       2.549   6.673  18.874  0.00  0.00    +0.000 C 
ATOM      2  O   UNL     1       3.146   6.856  17.819  0.00  0.00    +0.000 OA
ATOM      3  N   UNL     1       1.839   7.679  19.519  0.00  0.00    +0.000 N 
ATOM      4  H   UNL     1       1.221   7.454  20.279  0.00  0.00    +0.000 HD
ENDROOT
BRANCH   1  10
ATOM      5  C   UNL     1       3.698   4.474  19.600  0.00  0.00    +0.000 A 
ATOM      6  C   UNL     1       3.562   3.190  20.192  0.00  0.00    +0.000 A 
ATOM      7  C   UNL     1       2.389   2.769  20.810  0.00  0.00    +0.000 A 
ATOM      8  C   UNL     1       1.300   3.616  20.830  0.00  0.00    +0.000 A 
ATOM      9  C   UNL     1       1.376   4.856  20.193  0.00  0.00    +0.000 A 
ATOM     10  C   UNL     1       2.551   5.306  19.540  0.00  0.00    +0.000 A 
BRANCH   5  11
ATOM     11  N   UNL     1       5.016   4.892  19.271  0.00  0.00    +0.000 N 
ATOM     12  H   UNL     1       5.564   5.285  20.032  0.00  0.00    +0.000 HD
BRANCH  11  19
ATOM     13  C   UNL     1       7.918   5.531  18.889  0.00  0.00    +0.000 C 
ATOM     14  C   UNL     1       7.036   4.959  17.820  0.00  0.00    +0.000 A 
ATOM     15  N   UNL     1       7.614   4.890  16.574  0.00  0.00    +0.000 NA
ATOM     16  C   UNL     1       6.877   4.401  15.557  0.00  0.00    +0.000 A 
ATOM     17  C   UNL     1       5.598   3.916  15.713  0.00  0.00    +0.000 A 
ATOM     18  C   UNL     1       5.021   4.014  16.983  0.00  0.00    +0.000 A 
ATOM     19  C   UNL     1       5.711   4.580  18.068  0.00  0.00    +0.000 A 
ENDBRANCH  11  19
ENDBRANCH   5  11
ENDBRANCH   1  10
BRANCH   3  20
ATOM     20  C   UNL     1       1.856   9.096  19.190  0.00  0.00    +0.000 C 
BRANCH  20  21
ATOM     21  C   UNL     1       0.639   9.670  18.477  0.00  0.00    +0.000 C 
BRANCH  21  22
ATOM     22  C   UNL     1      -0.365  10.470  19.252  0.00  0.00    +0.000 A 
ATOM     23  C   UNL     1      -1.269  11.303  18.615  0.00  0.00    +0.000 A 
ATOM     24  N   UNL     1      -1.397  12.352  19.476  0.00  0.00    +0.000 N 
ATOM     25  C   UNL     1      -1.374  11.851  20.749  0.00  0.00    +0.000 A 
ATOM     26  C   UNL     1      -1.899  12.380  21.931  0.00  0.00    +0.000 A 
ATOM     27  C   UNL     1      -1.705  11.638  23.090  0.00  0.00    +0.000 A 
ATOM     28  C   UNL     1      -0.920  10.483  23.071  0.00  0.00    +0.000 A 
ATOM     29  C   UNL     1      -0.328  10.015  21.877  0.00  0.00    +0.000 A 
ATOM     30  C   UNL     1      -0.629  10.666  20.661  0.00  0.00    +0.000 A 
ATOM     31  H   UNL     1      -1.504  13.322  19.218  0.00  0.00    +0.000 HD
ENDBRANCH  21  22
ENDBRANCH  20  21
ENDBRANCH   3  20
TORSDOF 6
ENDMDL
MODEL 9
REMARK VINA RESULT:      -8.7      2.238      8.113
REMARK  Name = 
REMARK  7 active torsions:
REMARK  status: ('A' for Active; 'I' for Inactive)
REMARK    1  A    between atoms: C_1  and  C_2
REMARK    2  A    between atoms: C_7  and  N_8
REMARK    3  A    between atoms: N_8  and  C_9
REMARK    4  A    between atoms: C_14  and  C_15
REMARK    5  A    between atoms: N_17  and  C_18
REMARK    6  A    between atoms: C_18  and  C_19
REMARK    7  A    between atoms: C_19  and  C_20
REMARK                            x       y       z     vdW  Elec       q    Type
REMARK                         _______ _______ _______ _____ _____    ______ ____
ROOT
ATOM      1  C   UNL     1       2.295   8.632  18.200  0.00  0.00    +0.000 C 
ATOM      2  O   UNL     1       2.074   9.237  17.157  0.00  0.00    +0.000 OA
ATOM      3  N   UNL     1       3.316   7.696  18.323  0.00  0.00    +0.000 N 
ATOM      4  H   UNL     1       3.581   7.353  19.231  0.00  0.00    +0.000 HD
ENDROOT
BRANCH   1  10
ATOM      5  C   UNL     1       0.507   9.940  19.533  0.00  0.00    +0.000 A 
ATOM      6  C   UNL     1      -0.179  10.116  20.764  0.00  0.00    +0.000 A 
ATOM      7  C   UNL     1      -0.047   9.232  21.829  0.00  0.00    +0.000 A 
ATOM      8  C   UNL     1       0.804   8.152  21.704  0.00  0.00    +0.000 A 
ATOM      9  C   UNL     1       1.549   7.991  20.534  0.00  0.00    +0.000 A 
ATOM     10  C   UNL     1       1.449   8.884  19.439  0.00  0.00    +0.000 A 
BRANCH   5  11
ATOM     11  N   UNL     1       0.067  10.729  18.435  0.00  0.00    +0.000 N 
ATOM     12  H   UNL     1       0.795  11.089  17.823  0.00  0.00    +0.000 HD
BRANCH  11  19
ATOM     13  C   UNL     1      -1.760  12.915  19.363  0.00  0.00    +0.000 C 
ATOM     14  C   UNL     1      -2.184  11.787  18.471  0.00  0.00    +0.000 A 
ATOM     15  N   UNL     1      -3.536  11.726  18.225  0.00  0.00    +0.000 NA
ATOM     16  C   UNL     1      -3.996  10.729  17.443  0.00  0.00    +0.000 A 
ATOM     17  C   UNL     1      -3.178   9.803  16.835  0.00  0.00    +0.000 A 
ATOM     18  C   UNL     1      -1.809   9.870  17.114  0.00  0.00    +0.000 A 
ATOM     19  C   UNL     1      -1.276  10.842  17.978  0.00  0.00    +0.000 A 
ENDBRANCH  11  19
ENDBRANCH   5  11
ENDBRANCH   1  10
BRANCH   3  20
ATOM     20  C   UNL     1       4.117   7.145  17.242  0.00  0.00    +0.000 C 
BRANCH  20  21
ATOM     21  C   UNL     1       4.669   5.737  17.420  0.00  0.00    +0.000 C 
BRANCH  21  22
ATOM     22  C   UNL     1       3.747   4.625  17.822  0.00  0.00    +0.000 A 
ATOM     23  C   UNL     1       3.456   3.582  16.959  0.00  0.00    +0.000 A 
ATOM     24  N   UNL     1       2.153   3.293  17.236  0.00  0.00    +0.000 N 
ATOM     25  C   UNL     1       1.978   3.421  18.587  0.00  0.00    +0.000 A 
ATOM     26  C   UNL     1       1.028   2.834  19.428  0.00  0.00    +0.000 A 
ATOM     27  C   UNL     1       1.091   3.169  20.775  0.00  0.00    +0.000 A 
ATOM     28  C   UNL     1       1.992   4.138  21.224  0.00  0.00    +0.000 A 
ATOM     29  C   UNL     1       2.884   4.781  20.338  0.00  0.00    +0.000 A 
ATOM     30  C   UNL     1       2.942   4.355  18.993  0.00  0.00    +0.000 A 
ATOM     31  H   UNL     1       1.450   3.019  16.566  0.00  0.00    +0.000 HD
ENDBRANCH  21  22
ENDBRANCH  20  21
ENDBRANCH   3  20
TORSDOF 6
ENDMDL
