MODEL 1
REMARK VINA RESULT:      -7.7      0.000      0.000
REMARK  Name = 
REMARK  8 active torsions:
REMARK  status: ('A' for Active; 'I' for Inactive)
REMARK    1  A    between atoms: C_1  and  O_2
REMARK    2  A    between atoms: O_2  and  C_3
REMARK    3  A    between atoms: C_6  and  C_7
REMARK    4  A    between atoms: N_12  and  C_13
REMARK    5  A    between atoms: C_13  and  C_14
REMARK    6  A    between atoms: C_14  and  O_15
REMARK    7  A    between atoms: O_15  and  C_16
REMARK    8  A    between atoms: C_24  and  C_25
REMARK                            x       y       z     vdW  Elec       q    Type
REMARK                         _______ _______ _______ _____ _____    ______ ____
ROOT
ATOM      1  C   UNL     1       1.799   8.268  18.805  0.00  0.00    +0.000 C 
ATOM      2  O   UNL     1       2.026   8.926  17.791  0.00  0.00    +0.000 OA
ATOM      3  N   UNL     1       2.160   6.906  18.903  0.00  0.00    +0.000 N 
ATOM      4  C   UNL     1       1.937   6.046  20.072  0.00  0.00    +0.000 C 
ATOM      5  C   UNL     1       1.905   4.543  19.749  0.00  0.00    +0.000 C 
ATOM      6  N   UNL     1       3.066   4.071  18.973  0.00  0.00    +0.000 NA
ATOM      7  C   UNL     1       3.116   4.877  17.731  0.00  0.00    +0.000 C 
ATOM      8  C   UNL     1       3.155   6.408  17.940  0.00  0.00    +0.000 C 
ENDROOT
BRANCH   1  12
ATOM      9  C   UNL     1       0.097  10.169  22.307  0.00  0.00    +0.000 A 
ATOM     10  C   UNL     1       1.176   9.305  22.393  0.00  0.00    +0.000 A 
ATOM     11  C   UNL     1       1.742   8.777  21.235  0.00  0.00    +0.000 A 
ATOM     12  C   UNL     1       1.168   8.974  19.973  0.00  0.00    +0.000 A 
ATOM     13  C   UNL     1       0.096   9.886  19.864  0.00  0.00    +0.000 A 
ATOM     14  C   UNL     1      -0.493  10.352  18.559  0.00  0.00    +0.000 C 
ATOM     15  C   UNL     1      -0.412  10.483  21.044  0.00  0.00    +0.000 A 
BRANCH   9  17
ATOM     16  C   UNL     1      -1.785  11.364  23.114  0.00  0.00    +0.000 C 
ATOM     17  O   UNL     1      -0.505  10.786  23.370  0.00  0.00    +0.000 OA
ENDBRANCH   9  17
ENDBRANCH   1  12
BRANCH   6  18
ATOM     18  C   UNL     1       4.351   4.115  19.705  0.00  0.00    +0.000 C 
BRANCH  18  19
ATOM     19  C   UNL     1       5.391   5.056  19.071  0.00  0.00    +0.000 C 
BRANCH  19  20
ATOM     20  O   UNL     1       6.431   4.298  18.442  0.00  0.00    +0.000 OA
BRANCH  20  21
ATOM     21  C   UNL     1       6.511   4.430  17.080  0.00  0.00    +0.000 A 
ATOM     22  C   UNL     1       5.855   3.641  16.136  0.00  0.00    +0.000 A 
ATOM     23  C   UNL     1       6.026   3.893  14.773  0.00  0.00    +0.000 A 
ATOM     24  C   UNL     1       6.858   4.929  14.400  0.00  0.00    +0.000 A 
ATOM     25  N   UNL     1       7.512   5.721  15.279  0.00  0.00    +0.000 NA
ATOM     26  C   UNL     1       7.321   5.450  16.595  0.00  0.00    +0.000 A 
ENDBRANCH  20  21
ENDBRANCH  19  20
ENDBRANCH  18  19
ENDBRANCH   6  18
TORSDOF 6
ENDMDL
MODEL 2
REMARK VINA RESULT:      -7.6      4.539      7.020
REMARK  Name = 
REMARK  8 active torsions:
REMARK  status: ('A' for Active; 'I' for Inactive)
REMARK    1  A    between atoms: C_1  and  O_2
REMARK    2  A    between atoms: O_2  and  C_3
REMARK    3  A    between atoms: C_6  and  C_7
REMARK    4  A    between atoms: N_12  and  C_13
REMARK    5  A    between atoms: C_13  and  C_14
REMARK    6  A    between atoms: C_14  and  O_15
REMARK    7  A    between atoms: O_15  and  C_16
REMARK    8  A    between atoms: C_24  and  C_25
REMARK                            x       y       z     vdW  Elec       q    Type
REMARK                         _______ _______ _______ _____ _____    ______ ____
ROOT
ATOM      1  C   UNL     1       4.521   4.349  16.839  0.00  0.00    +0.000 C 
ATOM      2  O   UNL     1       4.302   3.999  15.680  0.00  0.00    +0.000 OA
ATOM      3  N   UNL     1       5.627   5.160  17.175  0.00  0.00    +0.000 N 
ATOM      4  C   UNL     1       5.961   5.631  18.524  0.00  0.00    +0.000 C 
ATOM      5  C   UNL     1       7.440   6.007  18.709  0.00  0.00    +0.000 C 
ATOM      6  N   UNL     1       7.954   6.943  17.693  0.00  0.00    +0.000 NA
ATOM      7  C   UNL     1       7.731   6.314  16.370  0.00  0.00    +0.000 C 
ATOM      8  C   UNL     1       6.272   5.897  16.076  0.00  0.00    +0.000 C 
ENDROOT
BRANCH   1  12
ATOM      9  C   UNL     1       1.754   2.927  19.855  0.00  0.00    +0.000 A 
ATOM     10  C   UNL     1       2.767   2.126  19.354  0.00  0.00    +0.000 A 
ATOM     11  C   UNL     1       3.683   2.648  18.443  0.00  0.00    +0.000 A 
ATOM     12  C   UNL     1       3.537   3.929  17.895  0.00  0.00    +0.000 A 
ATOM     13  C   UNL     1       2.537   4.771  18.429  0.00  0.00    +0.000 A 
ATOM     14  C   UNL     1       2.385   6.229  18.088  0.00  0.00    +0.000 C 
ATOM     15  C   UNL     1       1.668   4.252  19.420  0.00  0.00    +0.000 A 
BRANCH   9  17
ATOM     16  C   UNL     1       1.302   2.466  22.137  0.00  0.00    +0.000 C 
ATOM     17  O   UNL     1       0.833   2.538  20.790  0.00  0.00    +0.000 OA
ENDBRANCH   9  17
ENDBRANCH   1  12
BRANCH   6  18
ATOM     18  C   UNL     1       7.369   8.300  17.758  0.00  0.00    +0.000 C 
BRANCH  18  19
ATOM     19  C   UNL     1       8.418   9.426  17.789  0.00  0.00    +0.000 C 
BRANCH  19  20
ATOM     20  O   UNL     1       8.925   9.597  19.117  0.00  0.00    +0.000 OA
BRANCH  20  21
ATOM     21  C   UNL     1       9.639  10.749  19.329  0.00  0.00    +0.000 A 
ATOM     22  C   UNL     1       9.901  11.340  20.563  0.00  0.00    +0.000 A 
ATOM     23  C   UNL     1      10.650  12.518  20.631  0.00  0.00    +0.000 A 
ATOM     24  C   UNL     1      11.108  13.067  19.451  0.00  0.00    +0.000 A 
ATOM     25  N   UNL     1      10.880  12.529  18.233  0.00  0.00    +0.000 NA
ATOM     26  C   UNL     1      10.151  11.384  18.204  0.00  0.00    +0.000 A 
ENDBRANCH  20  21
ENDBRANCH  19  20
ENDBRANCH  18  19
ENDBRANCH   6  18
TORSDOF 6
ENDMDL
MODEL 3
REMARK VINA RESULT:      -7.6      1.023      1.518
REMARK  Name = 
REMARK  8 active torsions:
REMARK  status: ('A' for Active; 'I' for Inactive)
REMARK    1  A    between atoms: C_1  and  O_2
REMARK    2  A    between atoms: O_2  and  C_3
REMARK    3  A    between atoms: C_6  and  C_7
REMARK    4  A    between atoms: N_12  and  C_13
REMARK    5  A    between atoms: C_13  and  C_14
REMARK    6  A    between atoms: C_14  and  O_15
REMARK    7  A    between atoms: O_15  and  C_16
REMARK    8  A    between atoms: C_24  and  C_25
REMARK                            x       y       z     vdW  Elec       q    Type
REMARK                         _______ _______ _______ _____ _____    ______ ____
ROOT
ATOM      1  C   UNL     1       1.833   8.021  19.013  0.00  0.00    +0.000 C 
ATOM      2  O   UNL     1       2.325   8.655  18.080  0.00  0.00    +0.000 OA
ATOM      3  N   UNL     1       1.906   6.612  19.074  0.00  0.00    +0.000 N 
ATOM      4  C   UNL     1       1.358   5.775  20.148  0.00  0.00    +0.000 C 
ATOM      5  C   UNL     1       1.083   4.321  19.733  0.00  0.00    +0.000 C 
ATOM      6  N   UNL     1       2.229   3.652  19.091  0.00  0.00    +0.000 NA
ATOM      7  C   UNL     1       2.610   4.474  17.918  0.00  0.00    +0.000 C 
ATOM      8  C   UNL     1       2.913   5.958  18.223  0.00  0.00    +0.000 C 
ENDROOT
BRANCH   1  12
ATOM      9  C   UNL     1       0.089  10.132  22.371  0.00  0.00    +0.000 A 
ATOM     10  C   UNL     1       1.136   9.240  22.529  0.00  0.00    +0.000 A 
ATOM     11  C   UNL     1       1.719   8.642  21.414  0.00  0.00    +0.000 A 
ATOM     12  C   UNL     1       1.191   8.799  20.127  0.00  0.00    +0.000 A 
ATOM     13  C   UNL     1       0.153   9.738  19.944  0.00  0.00    +0.000 A 
ATOM     14  C   UNL     1      -0.382  10.162  18.602  0.00  0.00    +0.000 C 
ATOM     15  C   UNL     1      -0.371  10.404  21.079  0.00  0.00    +0.000 A 
BRANCH   9  17
ATOM     16  C   UNL     1      -1.317  11.937  22.994  0.00  0.00    +0.000 C 
ATOM     17  O   UNL     1      -0.524  10.815  23.385  0.00  0.00    +0.000 OA
ENDBRANCH   9  17
ENDBRANCH   1  12
BRANCH   6  18
ATOM     18  C   UNL     1       3.380   3.414  19.988  0.00  0.00    +0.000 C 
BRANCH  18  19
ATOM     19  C   UNL     1       4.687   3.083  19.243  0.00  0.00    +0.000 C 
BRANCH  19  20
ATOM     20  O   UNL     1       5.738   3.955  19.670  0.00  0.00    +0.000 OA
BRANCH  20  21
ATOM     21  C   UNL     1       6.272   4.754  18.691  0.00  0.00    +0.000 A 
ATOM     22  C   UNL     1       7.008   5.921  18.890  0.00  0.00    +0.000 A 
ATOM     23  C   UNL     1       7.496   6.636  17.794  0.00  0.00    +0.000 A 
ATOM     24  C   UNL     1       7.224   6.158  16.529  0.00  0.00    +0.000 A 
ATOM     25  N   UNL     1       6.516   5.031  16.288  0.00  0.00    +0.000 NA
ATOM     26  C   UNL     1       6.059   4.360  17.375  0.00  0.00    +0.000 A 
ENDBRANCH  20  21
ENDBRANCH  19  20
ENDBRANCH  18  19
ENDBRANCH   6  18
TORSDOF 6
ENDMDL
MODEL 4
REMARK VINA RESULT:      -7.6      4.439      6.969
REMARK  Name = 
REMARK  8 active torsions:
REMARK  status: ('A' for Active; 'I' for Inactive)
REMARK    1  A    between atoms: C_1  and  O_2
REMARK    2  A    between atoms: O_2  and  C_3
REMARK    3  A    between atoms: C_6  and  C_7
REMARK    4  A    between atoms: N_12  and  C_13
REMARK    5  A    between atoms: C_13  and  C_14
REMARK    6  A    between atoms: C_14  and  O_15
REMARK    7  A    between atoms: O_15  and  C_16
REMARK    8  A    between atoms: C_24  and  C_25
REMARK                            x       y       z     vdW  Elec       q    Type
REMARK                         _______ _______ _______ _____ _____    ______ ____
ROOT
ATOM      1  C   UNL     1       4.017   4.347  17.388  0.00  0.00    +0.000 C 
ATOM      2  O   UNL     1       3.382   4.079  16.368  0.00  0.00    +0.000 OA
ATOM      3  N   UNL     1       5.250   5.034  17.336  0.00  0.00    +0.000 N 
ATOM      4  C   UNL     1       6.070   5.404  18.496  0.00  0.00    +0.000 C 
ATOM      5  C   UNL     1       7.555   5.631  18.169  0.00  0.00    +0.000 C 
ATOM      6  N   UNL     1       7.787   6.565  17.052  0.00  0.00    +0.000 NA
ATOM      7  C   UNL     1       7.064   6.027  15.877  0.00  0.00    +0.000 C 
ATOM      8  C   UNL     1       5.557   5.763  16.095  0.00  0.00    +0.000 C 
ENDROOT
BRANCH   1  12
ATOM      9  C   UNL     1       2.264   3.470  21.251  0.00  0.00    +0.000 A 
ATOM     10  C   UNL     1       2.300   4.755  20.737  0.00  0.00    +0.000 A 
ATOM     11  C   UNL     1       2.802   4.982  19.458  0.00  0.00    +0.000 A 
ATOM     12  C   UNL     1       3.412   3.967  18.710  0.00  0.00    +0.000 A 
ATOM     13  C   UNL     1       3.343   2.646  19.201  0.00  0.00    +0.000 A 
ATOM     14  C   UNL     1       3.772   1.428  18.426  0.00  0.00    +0.000 C 
ATOM     15  C   UNL     1       2.750   2.420  20.467  0.00  0.00    +0.000 A 
BRANCH   9  17
ATOM     16  C   UNL     1       0.918   1.962  22.490  0.00  0.00    +0.000 C 
ATOM     17  O   UNL     1       1.747   3.123  22.470  0.00  0.00    +0.000 OA
ENDBRANCH   9  17
ENDBRANCH   1  12
BRANCH   6  18
ATOM     18  C   UNL     1       7.404   7.965  17.336  0.00  0.00    +0.000 C 
BRANCH  18  19
ATOM     19  C   UNL     1       8.381   8.696  18.274  0.00  0.00    +0.000 C 
BRANCH  19  20
ATOM     20  O   UNL     1       8.481  10.078  17.912  0.00  0.00    +0.000 OA
BRANCH  20  21
ATOM     21  C   UNL     1       9.393  10.808  18.629  0.00  0.00    +0.000 A 
ATOM     22  C   UNL     1       9.456  10.913  20.017  0.00  0.00    +0.000 A 
ATOM     23  C   UNL     1      10.447  11.694  20.616  0.00  0.00    +0.000 A 
ATOM     24  C   UNL     1      11.343  12.351  19.798  0.00  0.00    +0.000 A 
ATOM     25  N   UNL     1      11.322  12.277  18.448  0.00  0.00    +0.000 NA
ATOM     26  C   UNL     1      10.348  11.508  17.900  0.00  0.00    +0.000 A 
ENDBRANCH  20  21
ENDBRANCH  19  20
ENDBRANCH  18  19
ENDBRANCH   6  18
TORSDOF 6
ENDMDL
MODEL 5
REMARK VINA RESULT:      -7.6      2.638      9.093
REMARK  Name = 
REMARK  8 active torsions:
REMARK  status: ('A' for Active; 'I' for Inactive)
REMARK    1  A    between atoms: C_1  and  O_2
REMARK    2  A    between atoms: O_2  and  C_3
REMARK    3  A    between atoms: C_6  and  C_7
REMARK    4  A    between atoms: N_12  and  C_13
REMARK    5  A    between atoms: C_13  and  C_14
REMARK    6  A    between atoms: C_14  and  O_15
REMARK    7  A    between atoms: O_15  and  C_16
REMARK    8  A    between atoms: C_24  and  C_25
REMARK                            x       y       z     vdW  Elec       q    Type
REMARK                         _______ _______ _______ _____ _____    ______ ____
ROOT
ATOM      1  C   UNL     1       2.357   6.059  20.046  0.00  0.00    +0.000 C 
ATOM      2  O   UNL     1       2.118   5.385  21.047  0.00  0.00    +0.000 OA
ATOM      3  N   UNL     1       1.791   7.339  19.859  0.00  0.00    +0.000 N 
ATOM      4  C   UNL     1       2.025   8.216  18.705  0.00  0.00    +0.000 C 
ATOM      5  C   UNL     1       0.919   9.258  18.473  0.00  0.00    +0.000 C 
ATOM      6  N   UNL     1       0.583  10.054  19.667  0.00  0.00    +0.000 NA
ATOM      7  C   UNL     1       0.195   9.099  20.731  0.00  0.00    +0.000 C 
ATOM      8  C   UNL     1       1.240   8.006  21.050  0.00  0.00    +0.000 C 
ENDROOT
BRANCH   1  12
ATOM      9  C   UNL     1       5.302   4.570  17.239  0.00  0.00    +0.000 A 
ATOM     10  C   UNL     1       5.662   5.278  18.372  0.00  0.00    +0.000 A 
ATOM     11  C   UNL     1       4.690   5.671  19.289  0.00  0.00    +0.000 A 
ATOM     12  C   UNL     1       3.323   5.500  19.039  0.00  0.00    +0.000 A 
ATOM     13  C   UNL     1       2.943   4.741  17.911  0.00  0.00    +0.000 A 
ATOM     14  C   UNL     1       1.532   4.303  17.618  0.00  0.00    +0.000 C 
ATOM     15  C   UNL     1       3.952   4.273  17.034  0.00  0.00    +0.000 A 
BRANCH   9  17
ATOM     16  C   UNL     1       6.882   5.071  15.543  0.00  0.00    +0.000 C 
ATOM     17  O   UNL     1       6.174   4.089  16.300  0.00  0.00    +0.000 OA
ENDBRANCH   9  17
ENDBRANCH   1  12
BRANCH   6  18
ATOM     18  C   UNL     1       1.658  10.965  20.117  0.00  0.00    +0.000 C 
BRANCH  18  19
ATOM     19  C   UNL     1       1.225  12.441  20.197  0.00  0.00    +0.000 C 
BRANCH  19  20
ATOM     20  O   UNL     1       0.979  12.814  21.557  0.00  0.00    +0.000 OA
BRANCH  20  21
ATOM     21  C   UNL     1      -0.341  12.842  21.929  0.00  0.00    +0.000 A 
ATOM     22  C   UNL     1      -0.995  11.894  22.714  0.00  0.00    +0.000 A 
ATOM     23  C   UNL     1      -2.349  12.053  23.019  0.00  0.00    +0.000 A 
ATOM     24  C   UNL     1      -3.005  13.159  22.520  0.00  0.00    +0.000 A 
ATOM     25  N   UNL     1      -2.412  14.104  21.757  0.00  0.00    +0.000 NA
ATOM     26  C   UNL     1      -1.096  13.920  21.482  0.00  0.00    +0.000 A 
ENDBRANCH  20  21
ENDBRANCH  19  20
ENDBRANCH  18  19
ENDBRANCH   6  18
TORSDOF 6
ENDMDL
MODEL 6
REMARK VINA RESULT:      -7.6      3.949      8.822
REMARK  Name = 
REMARK  8 active torsions:
REMARK  status: ('A' for Active; 'I' for Inactive)
REMARK    1  A    between atoms: C_1  and  O_2
REMARK    2  A    between atoms: O_2  and  C_3
REMARK    3  A    between atoms: C_6  and  C_7
REMARK    4  A    between atoms: N_12  and  C_13
REMARK    5  A    between atoms: C_13  and  C_14
REMARK    6  A    between atoms: C_14  and  O_15
REMARK    7  A    between atoms: O_15  and  C_16
REMARK    8  A    between atoms: C_24  and  C_25
REMARK                            x       y       z     vdW  Elec       q    Type
REMARK                         _______ _______ _______ _____ _____    ______ ____
ROOT
ATOM      1  C   UNL     1       2.509   6.296  19.688  0.00  0.00    +0.000 C 
ATOM      2  O   UNL     1       2.335   5.778  20.791  0.00  0.00    +0.000 OA
ATOM      3  N   UNL     1       1.942   7.546  19.357  0.00  0.00    +0.000 N 
ATOM      4  C   UNL     1       2.103   8.242  18.074  0.00  0.00    +0.000 C 
ATOM      5  C   UNL     1       0.992   9.261  17.770  0.00  0.00    +0.000 C 
ATOM      6  N   UNL     1       0.751  10.228  18.856  0.00  0.00    +0.000 NA
ATOM      7  C   UNL     1       0.430   9.445  20.072  0.00  0.00    +0.000 C 
ATOM      8  C   UNL     1       1.484   8.389  20.473  0.00  0.00    +0.000 C 
ENDROOT
BRANCH   1  12
ATOM      9  C   UNL     1       5.229   4.363  16.925  0.00  0.00    +0.000 A 
ATOM     10  C   UNL     1       5.672   5.255  17.887  0.00  0.00    +0.000 A 
ATOM     11  C   UNL     1       4.775   5.793  18.806  0.00  0.00    +0.000 A 
ATOM     12  C   UNL     1       3.394   5.578  18.709  0.00  0.00    +0.000 A 
ATOM     13  C   UNL     1       2.933   4.637  17.763  0.00  0.00    +0.000 A 
ATOM     14  C   UNL     1       1.511   4.151  17.672  0.00  0.00    +0.000 C 
ATOM     15  C   UNL     1       3.872   4.032  16.892  0.00  0.00    +0.000 A 
BRANCH   9  17
ATOM     16  C   UNL     1       6.952   4.566  15.309  0.00  0.00    +0.000 C 
ATOM     17  O   UNL     1       6.026   3.734  16.008  0.00  0.00    +0.000 OA
ENDBRANCH   9  17
ENDBRANCH   1  12
BRANCH   6  18
ATOM     18  C   UNL     1       1.863  11.174  19.093  0.00  0.00    +0.000 C 
BRANCH  18  19
ATOM     19  C   UNL     1       1.631  12.568  18.482  0.00  0.00    +0.000 C 
BRANCH  19  20
ATOM     20  O   UNL     1       2.382  13.556  19.196  0.00  0.00    +0.000 OA
BRANCH  20  21
ATOM     21  C   UNL     1       2.353  14.817  18.658  0.00  0.00    +0.000 A 
ATOM     22  C   UNL     1       3.272  15.349  17.757  0.00  0.00    +0.000 A 
ATOM     23  C   UNL     1       3.116  16.655  17.286  0.00  0.00    +0.000 A 
ATOM     24  C   UNL     1       2.040  17.388  17.742  0.00  0.00    +0.000 A 
ATOM     25  N   UNL     1       1.123  16.914  18.614  0.00  0.00    +0.000 NA
ATOM     26  C   UNL     1       1.304  15.641  19.049  0.00  0.00    +0.000 A 
ENDBRANCH  20  21
ENDBRANCH  19  20
ENDBRANCH  18  19
ENDBRANCH   6  18
TORSDOF 6
ENDMDL
MODEL 7
REMARK VINA RESULT:      -7.5      3.721      8.332
REMARK  Name = 
REMARK  8 active torsions:
REMARK  status: ('A' for Active; 'I' for Inactive)
REMARK    1  A    between atoms: C_1  and  O_2
REMARK    2  A    between atoms: O_2  and  C_3
REMARK    3  A    between atoms: C_6  and  C_7
REMARK    4  A    between atoms: N_12  and  C_13
REMARK    5  A    between atoms: C_13  and  C_14
REMARK    6  A    between atoms: C_14  and  O_15
REMARK    7  A    between atoms: O_15  and  C_16
REMARK    8  A    between atoms: C_24  and  C_25
REMARK                            x       y       z     vdW  Elec       q    Type
REMARK                         _______ _______ _______ _____ _____    ______ ____
ROOT
ATOM      1  C   UNL     1       2.461   6.352  19.693  0.00  0.00    +0.000 C 
ATOM      2  O   UNL     1       2.256   5.822  20.784  0.00  0.00    +0.000 OA
ATOM      3  N   UNL     1       1.911   7.610  19.364  0.00  0.00    +0.000 N 
ATOM      4  C   UNL     1       2.108   8.322  18.095  0.00  0.00    +0.000 C 
ATOM      5  C   UNL     1       1.012   9.352  17.776  0.00  0.00    +0.000 C 
ATOM      6  N   UNL     1       0.749  10.306  18.868  0.00  0.00    +0.000 NA
ATOM      7  C   UNL     1       0.393   9.510  20.066  0.00  0.00    +0.000 C 
ATOM      8  C   UNL     1       1.431   8.442  20.479  0.00  0.00    +0.000 C 
ENDROOT
BRANCH   1  12
ATOM      9  C   UNL     1       5.235   4.440  16.970  0.00  0.00    +0.000 A 
ATOM     10  C   UNL     1       5.658   5.335  17.938  0.00  0.00    +0.000 A 
ATOM     11  C   UNL     1       4.743   5.867  18.844  0.00  0.00    +0.000 A 
ATOM     12  C   UNL     1       3.366   5.640  18.727  0.00  0.00    +0.000 A 
ATOM     13  C   UNL     1       2.926   4.696  17.775  0.00  0.00    +0.000 A 
ATOM     14  C   UNL     1       1.509   4.199  17.663  0.00  0.00    +0.000 C 
ATOM     15  C   UNL     1       3.881   4.098  16.917  0.00  0.00    +0.000 A 
BRANCH   9  17
ATOM     16  C   UNL     1       6.928   4.666  15.325  0.00  0.00    +0.000 C 
ATOM     17  O   UNL     1       6.050   3.817  16.064  0.00  0.00    +0.000 OA
ENDBRANCH   9  17
ENDBRANCH   1  12
BRANCH   6  18
ATOM     18  C   UNL     1       1.862  11.241  19.145  0.00  0.00    +0.000 C 
BRANCH  18  19
ATOM     19  C   UNL     1       1.488  12.377  20.115  0.00  0.00    +0.000 C 
BRANCH  19  20
ATOM     20  O   UNL     1       1.459  13.631  19.425  0.00  0.00    +0.000 OA
BRANCH  20  21
ATOM     21  C   UNL     1       2.683  14.203  19.192  0.00  0.00    +0.000 A 
ATOM     22  C   UNL     1       3.178  14.617  17.957  0.00  0.00    +0.000 A 
ATOM     23  C   UNL     1       4.449  15.191  17.868  0.00  0.00    +0.000 A 
ATOM     24  C   UNL     1       5.186  15.324  19.027  0.00  0.00    +0.000 A 
ATOM     25  N   UNL     1       4.748  14.938  20.245  0.00  0.00    +0.000 NA
ATOM     26  C   UNL     1       3.508  14.387  20.296  0.00  0.00    +0.000 A 
ENDBRANCH  20  21
ENDBRANCH  19  20
ENDBRANCH  18  19
ENDBRANCH   6  18
TORSDOF 6
ENDMDL
MODEL 8
REMARK VINA RESULT:      -7.5      3.334      5.560
REMARK  Name = 
REMARK  8 active torsions:
REMARK  status: ('A' for Active; 'I' for Inactive)
REMARK    1  A    between atoms: C_1  and  O_2
REMARK    2  A    between atoms: O_2  and  C_3
REMARK    3  A    between atoms: C_6  and  C_7
REMARK    4  A    between atoms: N_12  and  C_13
REMARK    5  A    between atoms: C_13  and  C_14
REMARK    6  A    between atoms: C_14  and  O_15
REMARK    7  A    between atoms: O_15  and  C_16
REMARK    8  A    between atoms: C_24  and  C_25
REMARK                            x       y       z     vdW  Elec       q    Type
REMARK                         _______ _______ _______ _____ _____    ______ ____
ROOT
ATOM      1  C   UNL     1      -0.343  12.897  20.286  0.00  0.00    +0.000 C 
ATOM      2  O   UNL     1       0.318  13.925  20.427  0.00  0.00    +0.000 OA
ATOM      3  N   UNL     1       0.134  11.805  19.529  0.00  0.00    +0.000 N 
ATOM      4  C   UNL     1      -0.579  10.539  19.314  0.00  0.00    +0.000 C 
ATOM      5  C   UNL     1      -0.129   9.770  18.061  0.00  0.00    +0.000 C 
ATOM      6  N   UNL     1       1.328   9.564  17.974  0.00  0.00    +0.000 NA
ATOM      7  C   UNL     1       1.960  10.903  18.027  0.00  0.00    +0.000 C 
ATOM      8  C   UNL     1       1.578  11.764  19.252  0.00  0.00    +0.000 C 
ENDROOT
BRANCH   1  12
ATOM      9  C   UNL     1      -4.238  12.800  22.181  0.00  0.00    +0.000 A 
ATOM     10  C   UNL     1      -4.039  13.389  20.944  0.00  0.00    +0.000 A 
ATOM     11  C   UNL     1      -2.788  13.329  20.335  0.00  0.00    +0.000 A 
ATOM     12  C   UNL     1      -1.666  12.812  20.995  0.00  0.00    +0.000 A 
ATOM     13  C   UNL     1      -1.862  12.168  22.236  0.00  0.00    +0.000 A 
ATOM     14  C   UNL     1      -0.798  11.394  22.968  0.00  0.00    +0.000 C 
ATOM     15  C   UNL     1      -3.161  12.161  22.801  0.00  0.00    +0.000 A 
BRANCH   9  17
ATOM     16  C   UNL     1      -5.354  12.770  24.273  0.00  0.00    +0.000 C 
ATOM     17  O   UNL     1      -5.432  12.751  22.848  0.00  0.00    +0.000 OA
ENDBRANCH   9  17
ENDBRANCH   1  12
BRANCH   6  18
ATOM     18  C   UNL     1       1.881   8.658  19.003  0.00  0.00    +0.000 C 
BRANCH  18  19
ATOM     19  C   UNL     1       2.275   7.272  18.461  0.00  0.00    +0.000 C 
BRANCH  19  20
ATOM     20  O   UNL     1       2.461   6.349  19.539  0.00  0.00    +0.000 OA
BRANCH  20  21
ATOM     21  C   UNL     1       1.956   5.092  19.330  0.00  0.00    +0.000 A 
ATOM     22  C   UNL     1       1.322   4.291  20.278  0.00  0.00    +0.000 A 
ATOM     23  C   UNL     1       0.850   3.025  19.922  0.00  0.00    +0.000 A 
ATOM     24  C   UNL     1       1.036   2.601  18.622  0.00  0.00    +0.000 A 
ATOM     25  N   UNL     1       1.642   3.343  17.669  0.00  0.00    +0.000 NA
ATOM     26  C   UNL     1       2.086   4.569  18.048  0.00  0.00    +0.000 A 
ENDBRANCH  20  21
ENDBRANCH  19  20
ENDBRANCH  18  19
ENDBRANCH   6  18
TORSDOF 6
ENDMDL
MODEL 9
REMARK VINA RESULT:      -7.5      2.566      9.089
REMARK  Name = 
REMARK  8 active torsions:
REMARK  status: ('A' for Active; 'I' for Inactive)
REMARK    1  A    between atoms: C_1  and  O_2
REMARK    2  A    between atoms: O_2  and  C_3
REMARK    3  A    between atoms: C_6  and  C_7
REMARK    4  A    between atoms: N_12  and  C_13
REMARK    5  A    between atoms: C_13  and  C_14
REMARK    6  A    between atoms: C_14  and  O_15
REMARK    7  A    between atoms: O_15  and  C_16
REMARK    8  A    between atoms: C_24  and  C_25
REMARK                            x       y       z     vdW  Elec       q    Type
REMARK                         _______ _______ _______ _____ _____    ______ ____
ROOT
ATOM      1  C   UNL     1       2.922   6.137  19.466  0.00  0.00    +0.000 C 
ATOM      2  O   UNL     1       2.800   5.559  20.546  0.00  0.00    +0.000 OA
ATOM      3  N   UNL     1       2.253   7.350  19.194  0.00  0.00    +0.000 N 
ATOM      4  C   UNL     1       2.345   8.113  17.943  0.00  0.00    +0.000 C 
ATOM      5  C   UNL     1       1.152   9.050  17.689  0.00  0.00    +0.000 C 
ATOM      6  N   UNL     1       0.841   9.945  18.818  0.00  0.00    +0.000 NA
ATOM      7  C   UNL     1       0.596   9.085  20.000  0.00  0.00    +0.000 C 
ATOM      8  C   UNL     1       1.736   8.103  20.349  0.00  0.00    +0.000 C 
ENDROOT
BRANCH   1  12
ATOM      9  C   UNL     1       5.762   4.570  16.594  0.00  0.00    +0.000 A 
ATOM     10  C   UNL     1       6.119   5.521  17.534  0.00  0.00    +0.000 A 
ATOM     11  C   UNL     1       5.196   5.941  18.490  0.00  0.00    +0.000 A 
ATOM     12  C   UNL     1       3.855   5.538  18.452  0.00  0.00    +0.000 A 
ATOM     13  C   UNL     1       3.487   4.536  17.528  0.00  0.00    +0.000 A 
ATOM     14  C   UNL     1       2.142   3.861  17.499  0.00  0.00    +0.000 C 
ATOM     15  C   UNL     1       4.462   4.057  16.620  0.00  0.00    +0.000 A 
BRANCH   9  17
ATOM     16  C   UNL     1       6.362   4.471  14.302  0.00  0.00    +0.000 C 
ATOM     17  O   UNL     1       6.598   4.048  15.645  0.00  0.00    +0.000 OA
ENDBRANCH   9  17
ENDBRANCH   1  12
BRANCH   6  18
ATOM     18  C   UNL     1       1.874  10.967  19.093  0.00  0.00    +0.000 C 
BRANCH  18  19
ATOM     19  C   UNL     1       1.358  12.165  19.910  0.00  0.00    +0.000 C 
BRANCH  19  20
ATOM     20  O   UNL     1      -0.019  12.416  19.611  0.00  0.00    +0.000 OA
BRANCH  20  21
ATOM     21  C   UNL     1      -0.869  12.383  20.687  0.00  0.00    +0.000 A 
ATOM     22  C   UNL     1      -0.533  12.023  21.991  0.00  0.00    +0.000 A 
ATOM     23  C   UNL     1      -1.506  12.039  22.994  0.00  0.00    +0.000 A 
ATOM     24  C   UNL     1      -2.789  12.412  22.652  0.00  0.00    +0.000 A 
ATOM     25  N   UNL     1      -3.160  12.771  21.403  0.00  0.00    +0.000 NA
ATOM     26  C   UNL     1      -2.190  12.747  20.453  0.00  0.00    +0.000 A 
ENDBRANCH  20  21
ENDBRANCH  19  20
ENDBRANCH  18  19
ENDBRANCH   6  18
TORSDOF 6
ENDMDL
