MODEL 1
REMARK VINA RESULT:      -8.6      0.000      0.000
REMARK  Name = 
REMARK  7 active torsions:
REMARK  status: ('A' for Active; 'I' for Inactive)
REMARK    1  A    between atoms: C_1  and  C_2
REMARK    2  A    between atoms: C_2  and  S_3
REMARK    3  A    between atoms: S_3  and  N_6
REMARK    4  A    between atoms: N_6  and  C_7
REMARK    5  A    between atoms: C_11  and  C_12
REMARK    6  A    between atoms: N_16  and  C_17
REMARK    7  A    between atoms: C_26  and  C_27
REMARK                            x       y       z     vdW  Elec       q    Type
REMARK                         _______ _______ _______ _____ _____    ______ ____
ROOT
ATOM      1  C   UNL     1       2.373   7.058  18.831  0.00  0.00    +0.000 A 
ATOM      2  C   UNL     1       2.417   8.048  17.936  0.00  0.00    +0.000 A 
ATOM      3  C   UNL     1       1.815   9.367  18.204  0.00  0.00    +0.000 A 
ATOM      4  O   UNL     1       1.952  10.216  17.324  0.00  0.00    +0.000 OA
ATOM      5  N   UNL     1       1.205   9.525  19.451  0.00  0.00    +0.000 N 
ATOM      6  N   UNL     1       1.141   8.510  20.392  0.00  0.00    +0.000 NA
ATOM      7  C   UNL     1       1.660   7.357  20.098  0.00  0.00    +0.000 A 
ATOM      8  C   UNL     1       1.506   6.239  21.105  0.00  0.00    +0.000 C 
ENDROOT
BRANCH   5   9
ATOM      9  C   UNL     1       0.611  10.763  19.871  0.00  0.00    +0.000 A 
ATOM     10  C   UNL     1       1.343  11.734  20.569  0.00  0.00    +0.000 A 
ATOM     11  C   UNL     1       0.738  12.902  21.046  0.00  0.00    +0.000 A 
ATOM     12  C   UNL     1      -0.620  13.123  20.835  0.00  0.00    +0.000 A 
ATOM     13 CL   UNL     1      -1.315  14.558  21.500  0.00  0.00    +0.000 Cl
ATOM     14  C   UNL     1      -1.363  12.187  20.110  0.00  0.00    +0.000 A 
ATOM     15 CL   UNL     1      -3.056  12.386  19.818  0.00  0.00    +0.000 Cl
ATOM     16  C   UNL     1      -0.746  11.028  19.614  0.00  0.00    +0.000 A 
ENDBRANCH   5   9
BRANCH   1  21
ATOM     17  C   UNL     1       4.959   4.345  18.449  0.00  0.00    +0.000 A 
ATOM     18  C   UNL     1       4.247   3.393  17.723  0.00  0.00    +0.000 A 
ATOM     19  C   UNL     1       2.922   3.640  17.362  0.00  0.00    +0.000 A 
ATOM     20  C   UNL     1       2.305   4.833  17.738  0.00  0.00    +0.000 A 
ATOM     21  C   UNL     1       3.003   5.777  18.504  0.00  0.00    +0.000 A 
ATOM     22  C   UNL     1       4.334   5.522  18.868  0.00  0.00    +0.000 A 
BRANCH  17  23
ATOM     23  N   UNL     1       6.339   4.114  18.764  0.00  0.00    +0.000 N 
ATOM     24  H   UNL     1       6.552   3.116  18.838  0.00  0.00    +0.000 HD
BRANCH  23  25
ATOM     25  S   UNL     1       7.475   4.804  17.696  0.00  0.00    +0.000 S 
ATOM     26  O   UNL     1       6.839   5.090  16.429  0.00  0.00    +0.000 OA
ATOM     27  O   UNL     1       8.655   3.975  17.794  0.00  0.00    +0.000 OA
BRANCH  25  29
ATOM     28  C   UNL     1       7.565   7.540  17.625  0.00  0.00    +0.000 C 
ATOM     29  C   UNL     1       7.784   6.351  18.538  0.00  0.00    +0.000 C 
ENDBRANCH  25  29
ENDBRANCH  23  25
ENDBRANCH  17  23
ENDBRANCH   1  21
TORSDOF 5
ENDMDL
MODEL 2
REMARK VINA RESULT:      -8.5      0.667      1.415
REMARK  Name = 
REMARK  7 active torsions:
REMARK  status: ('A' for Active; 'I' for Inactive)
REMARK    1  A    between atoms: C_1  and  C_2
REMARK    2  A    between atoms: C_2  and  S_3
REMARK    3  A    between atoms: S_3  and  N_6
REMARK    4  A    between atoms: N_6  and  C_7
REMARK    5  A    between atoms: C_11  and  C_12
REMARK    6  A    between atoms: N_16  and  C_17
REMARK    7  A    between atoms: C_26  and  C_27
REMARK                            x       y       z     vdW  Elec       q    Type
REMARK                         _______ _______ _______ _____ _____    ______ ____
ROOT
ATOM      1  C   UNL     1       2.349   7.130  18.853  0.00  0.00    +0.000 A 
ATOM      2  C   UNL     1       2.418   8.114  17.954  0.00  0.00    +0.000 A 
ATOM      3  C   UNL     1       1.836   9.444  18.209  0.00  0.00    +0.000 A 
ATOM      4  O   UNL     1       1.996  10.286  17.326  0.00  0.00    +0.000 OA
ATOM      5  N   UNL     1       1.217   9.619  19.449  0.00  0.00    +0.000 N 
ATOM      6  N   UNL     1       1.127   8.610  20.395  0.00  0.00    +0.000 NA
ATOM      7  C   UNL     1       1.629   7.447  20.112  0.00  0.00    +0.000 A 
ATOM      8  C   UNL     1       1.446   6.338  21.123  0.00  0.00    +0.000 C 
ENDROOT
BRANCH   5   9
ATOM      9  C   UNL     1       0.640  10.869  19.857  0.00  0.00    +0.000 A 
ATOM     10  C   UNL     1      -0.717  11.158  19.654  0.00  0.00    +0.000 A 
ATOM     11  C   UNL     1      -1.255  12.408  19.980  0.00  0.00    +0.000 A 
ATOM     12  C   UNL     1      -0.440  13.402  20.517  0.00  0.00    +0.000 A 
ATOM     13 CL   UNL     1      -1.155  14.940  20.843  0.00  0.00    +0.000 Cl
ATOM     14  C   UNL     1       0.907  13.125  20.763  0.00  0.00    +0.000 A 
ATOM     15 CL   UNL     1       1.983  14.311  21.417  0.00  0.00    +0.000 Cl
ATOM     16  C   UNL     1       1.436  11.862  20.455  0.00  0.00    +0.000 A 
ENDBRANCH   5   9
BRANCH   1  21
ATOM     17  C   UNL     1       4.901   4.384  18.472  0.00  0.00    +0.000 A 
ATOM     18  C   UNL     1       4.164   3.425  17.780  0.00  0.00    +0.000 A 
ATOM     19  C   UNL     1       2.835   3.678  17.441  0.00  0.00    +0.000 A 
ATOM     20  C   UNL     1       2.237   4.885  17.806  0.00  0.00    +0.000 A 
ATOM     21  C   UNL     1       2.960   5.836  18.538  0.00  0.00    +0.000 A 
ATOM     22  C   UNL     1       4.296   5.576  18.880  0.00  0.00    +0.000 A 
BRANCH  17  23
ATOM     23  N   UNL     1       6.284   4.146  18.762  0.00  0.00    +0.000 N 
ATOM     24  H   UNL     1       6.496   3.147  18.822  0.00  0.00    +0.000 HD
BRANCH  23  25
ATOM     25  S   UNL     1       7.406   4.844  17.684  0.00  0.00    +0.000 S 
ATOM     26  O   UNL     1       6.751   5.147  16.432  0.00  0.00    +0.000 OA
ATOM     27  O   UNL     1       8.583   4.009  17.753  0.00  0.00    +0.000 OA
BRANCH  25  29
ATOM     28  C   UNL     1       7.608   7.575  17.615  0.00  0.00    +0.000 C 
ATOM     29  C   UNL     1       7.735   6.380  18.540  0.00  0.00    +0.000 C 
ENDBRANCH  25  29
ENDBRANCH  23  25
ENDBRANCH  17  23
ENDBRANCH   1  21
TORSDOF 5
ENDMDL
MODEL 3
REMARK VINA RESULT:      -8.4      1.224      1.709
REMARK  Name = 
REMARK  7 active torsions:
REMARK  status: ('A' for Active; 'I' for Inactive)
REMARK    1  A    between atoms: C_1  and  C_2
REMARK    2  A    between atoms: C_2  and  S_3
REMARK    3  A    between atoms: S_3  and  N_6
REMARK    4  A    between atoms: N_6  and  C_7
REMARK    5  A    between atoms: C_11  and  C_12
REMARK    6  A    between atoms: N_16  and  C_17
REMARK    7  A    between atoms: C_26  and  C_27
REMARK                            x       y       z     vdW  Elec       q    Type
REMARK                         _______ _______ _______ _____ _____    ______ ____
ROOT
ATOM      1  C   UNL     1       2.254   6.931  19.521  0.00  0.00    +0.000 A 
ATOM      2  C   UNL     1       1.657   7.155  20.693  0.00  0.00    +0.000 A 
ATOM      3  C   UNL     1       1.000   8.440  21.000  0.00  0.00    +0.000 A 
ATOM      4  O   UNL     1       0.446   8.520  22.095  0.00  0.00    +0.000 OA
ATOM      5  N   UNL     1       1.032   9.404  19.990  0.00  0.00    +0.000 N 
ATOM      6  N   UNL     1       1.652   9.196  18.768  0.00  0.00    +0.000 NA
ATOM      7  C   UNL     1       2.242   8.059  18.557  0.00  0.00    +0.000 A 
ATOM      8  C   UNL     1       2.983   7.884  17.251  0.00  0.00    +0.000 C 
ENDROOT
BRANCH   5   9
ATOM      9  C   UNL     1       0.402  10.688  20.125  0.00  0.00    +0.000 A 
ATOM     10  C   UNL     1       1.065  11.778  20.709  0.00  0.00    +0.000 A 
ATOM     11  C   UNL     1       0.418  13.002  20.912  0.00  0.00    +0.000 A 
ATOM     12  C   UNL     1      -0.913  13.161  20.535  0.00  0.00    +0.000 A 
ATOM     13 CL   UNL     1      -1.666  14.680  20.866  0.00  0.00    +0.000 Cl
ATOM     14  C   UNL     1      -1.582  12.101  19.917  0.00  0.00    +0.000 A 
ATOM     15 CL   UNL     1      -3.238  12.220  19.432  0.00  0.00    +0.000 Cl
ATOM     16  C   UNL     1      -0.922  10.883  19.696  0.00  0.00    +0.000 A 
ENDBRANCH   5   9
BRANCH   1  21
ATOM     17  C   UNL     1       4.857   4.268  18.942  0.00  0.00    +0.000 A 
ATOM     18  C   UNL     1       4.056   3.166  18.649  0.00  0.00    +0.000 A 
ATOM     19  C   UNL     1       2.667   3.297  18.643  0.00  0.00    +0.000 A 
ATOM     20  C   UNL     1       2.077   4.525  18.943  0.00  0.00    +0.000 A 
ATOM     21  C   UNL     1       2.876   5.626  19.279  0.00  0.00    +0.000 A 
ATOM     22  C   UNL     1       4.273   5.490  19.288  0.00  0.00    +0.000 A 
BRANCH  17  23
ATOM     23  N   UNL     1       6.284   4.145  18.886  0.00  0.00    +0.000 N 
ATOM     24  H   UNL     1       6.583   3.168  18.861  0.00  0.00    +0.000 HD
BRANCH  23  25
ATOM     25  S   UNL     1       7.053   4.950  17.594  0.00  0.00    +0.000 S 
ATOM     26  O   UNL     1       6.070   5.330  16.605  0.00  0.00    +0.000 OA
ATOM     27  O   UNL     1       8.204   4.141  17.262  0.00  0.00    +0.000 OA
BRANCH  25  29
ATOM     28  C   UNL     1       7.650   7.622  17.512  0.00  0.00    +0.000 C 
ATOM     29  C   UNL     1       7.607   6.425  18.441  0.00  0.00    +0.000 C 
ENDBRANCH  25  29
ENDBRANCH  23  25
ENDBRANCH  17  23
ENDBRANCH   1  21
TORSDOF 5
ENDMDL
MODEL 4
REMARK VINA RESULT:      -8.3      1.356      2.180
REMARK  Name = 
REMARK  7 active torsions:
REMARK  status: ('A' for Active; 'I' for Inactive)
REMARK    1  A    between atoms: C_1  and  C_2
REMARK    2  A    between atoms: C_2  and  S_3
REMARK    3  A    between atoms: S_3  and  N_6
REMARK    4  A    between atoms: N_6  and  C_7
REMARK    5  A    between atoms: C_11  and  C_12
REMARK    6  A    between atoms: N_16  and  C_17
REMARK    7  A    between atoms: C_26  and  C_27
REMARK                            x       y       z     vdW  Elec       q    Type
REMARK                         _______ _______ _______ _____ _____    ______ ____
ROOT
ATOM      1  C   UNL     1       2.248   6.969  19.535  0.00  0.00    +0.000 A 
ATOM      2  C   UNL     1       1.662   7.181  20.716  0.00  0.00    +0.000 A 
ATOM      3  C   UNL     1       1.007   8.462  21.041  0.00  0.00    +0.000 A 
ATOM      4  O   UNL     1       0.464   8.530  22.143  0.00  0.00    +0.000 OA
ATOM      5  N   UNL     1       1.026   9.436  20.041  0.00  0.00    +0.000 N 
ATOM      6  N   UNL     1       1.634   9.241  18.811  0.00  0.00    +0.000 NA
ATOM      7  C   UNL     1       2.223   8.106  18.582  0.00  0.00    +0.000 A 
ATOM      8  C   UNL     1       2.952   7.945  17.267  0.00  0.00    +0.000 C 
ENDROOT
BRANCH   5   9
ATOM      9  C   UNL     1       0.396  10.717  20.195  0.00  0.00    +0.000 A 
ATOM     10  C   UNL     1      -0.916  10.952  19.757  0.00  0.00    +0.000 A 
ATOM     11  C   UNL     1      -1.496  12.223  19.836  0.00  0.00    +0.000 A 
ATOM     12  C   UNL     1      -0.770  13.292  20.356  0.00  0.00    +0.000 A 
ATOM     13 CL   UNL     1      -1.526  14.845  20.373  0.00  0.00    +0.000 Cl
ATOM     14  C   UNL     1       0.525  13.074  20.834  0.00  0.00    +0.000 A 
ATOM     15 CL   UNL     1       1.492  14.353  21.482  0.00  0.00    +0.000 Cl
ATOM     16  C   UNL     1       1.094  11.792  20.772  0.00  0.00    +0.000 A 
ENDBRANCH   5   9
BRANCH   1  21
ATOM     17  C   UNL     1       4.851   4.311  18.939  0.00  0.00    +0.000 A 
ATOM     18  C   UNL     1       4.051   3.218  18.609  0.00  0.00    +0.000 A 
ATOM     19  C   UNL     1       2.662   3.354  18.585  0.00  0.00    +0.000 A 
ATOM     20  C   UNL     1       2.072   4.577  18.903  0.00  0.00    +0.000 A 
ATOM     21  C   UNL     1       2.869   5.668  19.275  0.00  0.00    +0.000 A 
ATOM     22  C   UNL     1       4.266   5.527  19.302  0.00  0.00    +0.000 A 
BRANCH  17  23
ATOM     23  N   UNL     1       6.278   4.185  18.901  0.00  0.00    +0.000 N 
ATOM     24  H   UNL     1       6.575   3.206  18.884  0.00  0.00    +0.000 HD
BRANCH  23  25
ATOM     25  S   UNL     1       7.066   4.983  17.617  0.00  0.00    +0.000 S 
ATOM     26  O   UNL     1       6.091   5.406  16.637  0.00  0.00    +0.000 OA
ATOM     27  O   UNL     1       8.191   4.144  17.269  0.00  0.00    +0.000 OA
BRANCH  25  29
ATOM     28  C   UNL     1       7.663   7.656  17.591  0.00  0.00    +0.000 C 
ATOM     29  C   UNL     1       7.668   6.429  18.481  0.00  0.00    +0.000 C 
ENDBRANCH  25  29
ENDBRANCH  23  25
ENDBRANCH  17  23
ENDBRANCH   1  21
TORSDOF 5
ENDMDL
MODEL 5
REMARK VINA RESULT:      -8.2      1.012      1.108
REMARK  Name = 
REMARK  7 active torsions:
REMARK  status: ('A' for Active; 'I' for Inactive)
REMARK    1  A    between atoms: C_1  and  C_2
REMARK    2  A    between atoms: C_2  and  S_3
REMARK    3  A    between atoms: S_3  and  N_6
REMARK    4  A    between atoms: N_6  and  C_7
REMARK    5  A    between atoms: C_11  and  C_12
REMARK    6  A    between atoms: N_16  and  C_17
REMARK    7  A    between atoms: C_26  and  C_27
REMARK                            x       y       z     vdW  Elec       q    Type
REMARK                         _______ _______ _______ _____ _____    ______ ____
ROOT
ATOM      1  C   UNL     1       2.334   7.078  18.846  0.00  0.00    +0.000 A 
ATOM      2  C   UNL     1       2.393   8.063  17.947  0.00  0.00    +0.000 A 
ATOM      3  C   UNL     1       1.816   9.394  18.211  0.00  0.00    +0.000 A 
ATOM      4  O   UNL     1       1.965  10.236  17.327  0.00  0.00    +0.000 OA
ATOM      5  N   UNL     1       1.213   9.567  19.459  0.00  0.00    +0.000 N 
ATOM      6  N   UNL     1       1.134   8.558  20.405  0.00  0.00    +0.000 NA
ATOM      7  C   UNL     1       1.631   7.394  20.114  0.00  0.00    +0.000 A 
ATOM      8  C   UNL     1       1.461   6.284  21.127  0.00  0.00    +0.000 C 
ENDROOT
BRANCH   5   9
ATOM      9  C   UNL     1       0.643  10.818  19.876  0.00  0.00    +0.000 A 
ATOM     10  C   UNL     1       1.404  11.792  20.540  0.00  0.00    +0.000 A 
ATOM     11  C   UNL     1       0.824  12.973  21.016  0.00  0.00    +0.000 A 
ATOM     12  C   UNL     1      -0.538  13.205  20.837  0.00  0.00    +0.000 A 
ATOM     13 CL   UNL     1      -1.199  14.657  21.499  0.00  0.00    +0.000 Cl
ATOM     14  C   UNL     1      -1.308  12.267  20.146  0.00  0.00    +0.000 A 
ATOM     15 CL   UNL     1      -3.007  12.480  19.896  0.00  0.00    +0.000 Cl
ATOM     16  C   UNL     1      -0.717  11.094  19.652  0.00  0.00    +0.000 A 
ENDBRANCH   5   9
BRANCH   1  21
ATOM     17  C   UNL     1       4.875   4.325  18.442  0.00  0.00    +0.000 A 
ATOM     18  C   UNL     1       4.134   3.373  17.745  0.00  0.00    +0.000 A 
ATOM     19  C   UNL     1       2.804   3.633  17.411  0.00  0.00    +0.000 A 
ATOM     20  C   UNL     1       2.212   4.840  17.784  0.00  0.00    +0.000 A 
ATOM     21  C   UNL     1       2.940   5.784  18.521  0.00  0.00    +0.000 A 
ATOM     22  C   UNL     1       4.275   5.516  18.859  0.00  0.00    +0.000 A 
BRANCH  17  23
ATOM     23  N   UNL     1       6.258   4.080  18.728  0.00  0.00    +0.000 N 
ATOM     24  H   UNL     1       6.498   3.089  18.638  0.00  0.00    +0.000 HD
BRANCH  23  25
ATOM     25  S   UNL     1       7.382   4.966  17.802  0.00  0.00    +0.000 S 
ATOM     26  O   UNL     1       8.465   4.098  17.392  0.00  0.00    +0.000 OA
ATOM     27  O   UNL     1       7.613   6.189  18.535  0.00  0.00    +0.000 OA
BRANCH  25  29
ATOM     28  C   UNL     1       6.868   4.601  15.136  0.00  0.00    +0.000 C 
ATOM     29  C   UNL     1       6.375   5.331  16.369  0.00  0.00    +0.000 C 
ENDBRANCH  25  29
ENDBRANCH  23  25
ENDBRANCH  17  23
ENDBRANCH   1  21
TORSDOF 5
ENDMDL
MODEL 6
REMARK VINA RESULT:      -8.1      1.233      1.338
REMARK  Name = 
REMARK  7 active torsions:
REMARK  status: ('A' for Active; 'I' for Inactive)
REMARK    1  A    between atoms: C_1  and  C_2
REMARK    2  A    between atoms: C_2  and  S_3
REMARK    3  A    between atoms: S_3  and  N_6
REMARK    4  A    between atoms: N_6  and  C_7
REMARK    5  A    between atoms: C_11  and  C_12
REMARK    6  A    between atoms: N_16  and  C_17
REMARK    7  A    between atoms: C_26  and  C_27
REMARK                            x       y       z     vdW  Elec       q    Type
REMARK                         _______ _______ _______ _____ _____    ______ ____
ROOT
ATOM      1  C   UNL     1       2.334   6.796  18.655  0.00  0.00    +0.000 A 
ATOM      2  C   UNL     1       2.261   7.860  17.852  0.00  0.00    +0.000 A 
ATOM      3  C   UNL     1       1.741   9.157  18.323  0.00  0.00    +0.000 A 
ATOM      4  O   UNL     1       1.759  10.078  17.507  0.00  0.00    +0.000 OA
ATOM      5  N   UNL     1       1.339   9.212  19.659  0.00  0.00    +0.000 N 
ATOM      6  N   UNL     1       1.399   8.119  20.509  0.00  0.00    +0.000 NA
ATOM      7  C   UNL     1       1.837   6.991  20.040  0.00  0.00    +0.000 A 
ATOM      8  C   UNL     1       1.816   5.791  20.961  0.00  0.00    +0.000 C 
ENDROOT
BRANCH   5   9
ATOM      9  C   UNL     1       0.850  10.415  20.272  0.00  0.00    +0.000 A 
ATOM     10  C   UNL     1       1.371  11.676  19.944  0.00  0.00    +0.000 A 
ATOM     11  C   UNL     1       0.946  12.835  20.602  0.00  0.00    +0.000 A 
ATOM     12  C   UNL     1      -0.012  12.756  21.610  0.00  0.00    +0.000 A 
ATOM     13 CL   UNL     1      -0.448  14.218  22.420  0.00  0.00    +0.000 Cl
ATOM     14  C   UNL     1      -0.572  11.516  21.928  0.00  0.00    +0.000 A 
ATOM     15 CL   UNL     1      -1.758  11.338  23.175  0.00  0.00    +0.000 Cl
ATOM     16  C   UNL     1      -0.159  10.360  21.249  0.00  0.00    +0.000 A 
ENDBRANCH   5   9
BRANCH   1  21
ATOM     17  C   UNL     1       4.714   4.266  17.197  0.00  0.00    +0.000 A 
ATOM     18  C   UNL     1       3.855   3.196  16.952  0.00  0.00    +0.000 A 
ATOM     19  C   UNL     1       2.500   3.305  17.266  0.00  0.00    +0.000 A 
ATOM     20  C   UNL     1       2.006   4.478  17.837  0.00  0.00    +0.000 A 
ATOM     21  C   UNL     1       2.872   5.541  18.124  0.00  0.00    +0.000 A 
ATOM     22  C   UNL     1       4.236   5.426  17.811  0.00  0.00    +0.000 A 
BRANCH  17  23
ATOM     23  N   UNL     1       6.093   4.172  16.815  0.00  0.00    +0.000 N 
ATOM     24  H   UNL     1       6.278   4.651  15.931  0.00  0.00    +0.000 HD
BRANCH  23  25
ATOM     25  S   UNL     1       7.225   4.743  17.955  0.00  0.00    +0.000 S 
ATOM     26  O   UNL     1       8.499   4.095  17.740  0.00  0.00    +0.000 OA
ATOM     27  O   UNL     1       6.547   4.702  19.231  0.00  0.00    +0.000 OA
BRANCH  25  29
ATOM     28  C   UNL     1       8.117   7.289  18.430  0.00  0.00    +0.000 C 
ATOM     29  C   UNL     1       7.358   6.447  17.425  0.00  0.00    +0.000 C 
ENDBRANCH  25  29
ENDBRANCH  23  25
ENDBRANCH  17  23
ENDBRANCH   1  21
TORSDOF 5
ENDMDL
MODEL 7
REMARK VINA RESULT:      -8.1      1.014      1.095
REMARK  Name = 
REMARK  7 active torsions:
REMARK  status: ('A' for Active; 'I' for Inactive)
REMARK    1  A    between atoms: C_1  and  C_2
REMARK    2  A    between atoms: C_2  and  S_3
REMARK    3  A    between atoms: S_3  and  N_6
REMARK    4  A    between atoms: N_6  and  C_7
REMARK    5  A    between atoms: C_11  and  C_12
REMARK    6  A    between atoms: N_16  and  C_17
REMARK    7  A    between atoms: C_26  and  C_27
REMARK                            x       y       z     vdW  Elec       q    Type
REMARK                         _______ _______ _______ _____ _____    ______ ____
ROOT
ATOM      1  C   UNL     1       2.283   6.977  18.844  0.00  0.00    +0.000 A 
ATOM      2  C   UNL     1       2.300   8.008  17.997  0.00  0.00    +0.000 A 
ATOM      3  C   UNL     1       1.788   9.337  18.378  0.00  0.00    +0.000 A 
ATOM      4  O   UNL     1       1.892  10.223  17.531  0.00  0.00    +0.000 OA
ATOM      5  N   UNL     1       1.292   9.457  19.678  0.00  0.00    +0.000 N 
ATOM      6  N   UNL     1       1.257   8.399  20.572  0.00  0.00    +0.000 NA
ATOM      7  C   UNL     1       1.693   7.241  20.180  0.00  0.00    +0.000 A 
ATOM      8  C   UNL     1       1.570   6.081  21.142  0.00  0.00    +0.000 C 
ENDROOT
BRANCH   5   9
ATOM      9  C   UNL     1       0.796  10.697  20.206  0.00  0.00    +0.000 A 
ATOM     10  C   UNL     1       1.290  11.936  19.771  0.00  0.00    +0.000 A 
ATOM     11  C   UNL     1       0.861  13.137  20.347  0.00  0.00    +0.000 A 
ATOM     12  C   UNL     1      -0.075  13.123  21.377  0.00  0.00    +0.000 A 
ATOM     13 CL   UNL     1      -0.518  14.637  22.081  0.00  0.00    +0.000 Cl
ATOM     14  C   UNL     1      -0.610  11.904  21.802  0.00  0.00    +0.000 A 
ATOM     15 CL   UNL     1      -1.768  11.807  23.083  0.00  0.00    +0.000 Cl
ATOM     16  C   UNL     1      -0.192  10.704  21.205  0.00  0.00    +0.000 A 
ENDBRANCH   5   9
BRANCH   1  21
ATOM     17  C   UNL     1       4.709   4.227  17.979  0.00  0.00    +0.000 A 
ATOM     18  C   UNL     1       3.858   3.287  17.400  0.00  0.00    +0.000 A 
ATOM     19  C   UNL     1       2.492   3.555  17.297  0.00  0.00    +0.000 A 
ATOM     20  C   UNL     1       1.975   4.756  17.783  0.00  0.00    +0.000 A 
ATOM     21  C   UNL     1       2.820   5.687  18.403  0.00  0.00    +0.000 A 
ATOM     22  C   UNL     1       4.192   5.412  18.509  0.00  0.00    +0.000 A 
BRANCH  17  23
ATOM     23  N   UNL     1       6.119   3.974  18.026  0.00  0.00    +0.000 N 
ATOM     24  H   UNL     1       6.338   2.990  17.854  0.00  0.00    +0.000 HD
BRANCH  23  25
ATOM     25  S   UNL     1       7.082   4.906  16.972  0.00  0.00    +0.000 S 
ATOM     26  O   UNL     1       6.268   5.409  15.888  0.00  0.00    +0.000 OA
ATOM     27  O   UNL     1       8.274   4.124  16.739  0.00  0.00    +0.000 OA
BRANCH  25  29
ATOM     28  C   UNL     1       7.855   5.791  19.447  0.00  0.00    +0.000 C 
ATOM     29  C   UNL     1       7.488   6.270  18.057  0.00  0.00    +0.000 C 
ENDBRANCH  25  29
ENDBRANCH  23  25
ENDBRANCH  17  23
ENDBRANCH   1  21
TORSDOF 5
ENDMDL
MODEL 8
REMARK VINA RESULT:      -8.1      1.594      2.059
REMARK  Name = 
REMARK  7 active torsions:
REMARK  status: ('A' for Active; 'I' for Inactive)
REMARK    1  A    between atoms: C_1  and  C_2
REMARK    2  A    between atoms: C_2  and  S_3
REMARK    3  A    between atoms: S_3  and  N_6
REMARK    4  A    between atoms: N_6  and  C_7
REMARK    5  A    between atoms: C_11  and  C_12
REMARK    6  A    between atoms: N_16  and  C_17
REMARK    7  A    between atoms: C_26  and  C_27
REMARK                            x       y       z     vdW  Elec       q    Type
REMARK                         _______ _______ _______ _____ _____    ______ ____
ROOT
ATOM      1  C   UNL     1       2.215   6.951  19.573  0.00  0.00    +0.000 A 
ATOM      2  C   UNL     1       1.626   7.193  20.746  0.00  0.00    +0.000 A 
ATOM      3  C   UNL     1       0.995   8.491  21.048  0.00  0.00    +0.000 A 
ATOM      4  O   UNL     1       0.446   8.587  22.145  0.00  0.00    +0.000 OA
ATOM      5  N   UNL     1       1.041   9.450  20.033  0.00  0.00    +0.000 N 
ATOM      6  N   UNL     1       1.653   9.224  18.811  0.00  0.00    +0.000 NA
ATOM      7  C   UNL     1       2.220   8.075  18.603  0.00  0.00    +0.000 A 
ATOM      8  C   UNL     1       2.954   7.879  17.296  0.00  0.00    +0.000 C 
ENDROOT
BRANCH   5   9
ATOM      9  C   UNL     1       0.436  10.745  20.164  0.00  0.00    +0.000 A 
ATOM     10  C   UNL     1       1.141  11.842  20.682  0.00  0.00    +0.000 A 
ATOM     11  C   UNL     1       0.522  13.080  20.882  0.00  0.00    +0.000 A 
ATOM     12  C   UNL     1      -0.824  13.248  20.570  0.00  0.00    +0.000 A 
ATOM     13 CL   UNL     1      -1.540  14.786  20.896  0.00  0.00    +0.000 Cl
ATOM     14  C   UNL     1      -1.538  12.181  20.018  0.00  0.00    +0.000 A 
ATOM     15 CL   UNL     1      -3.216  12.310  19.616  0.00  0.00    +0.000 Cl
ATOM     16  C   UNL     1      -0.906  10.947  19.799  0.00  0.00    +0.000 A 
ENDBRANCH   5   9
BRANCH   1  21
ATOM     17  C   UNL     1       4.765   4.239  18.990  0.00  0.00    +0.000 A 
ATOM     18  C   UNL     1       3.942   3.149  18.714  0.00  0.00    +0.000 A 
ATOM     19  C   UNL     1       2.555   3.303  18.722  0.00  0.00    +0.000 A 
ATOM     20  C   UNL     1       1.991   4.545  19.017  0.00  0.00    +0.000 A 
ATOM     21  C   UNL     1       2.812   5.634  19.336  0.00  0.00    +0.000 A 
ATOM     22  C   UNL     1       4.207   5.474  19.332  0.00  0.00    +0.000 A 
BRANCH  17  23
ATOM     23  N   UNL     1       6.189   4.091  18.920  0.00  0.00    +0.000 N 
ATOM     24  H   UNL     1       6.472   3.108  18.910  0.00  0.00    +0.000 HD
BRANCH  23  25
ATOM     25  S   UNL     1       6.957   4.859  17.606  0.00  0.00    +0.000 S 
ATOM     26  O   UNL     1       8.224   4.214  17.339  0.00  0.00    +0.000 OA
ATOM     27  O   UNL     1       6.857   6.276  17.870  0.00  0.00    +0.000 OA
BRANCH  25  29
ATOM     28  C   UNL     1       5.415   5.648  15.484  0.00  0.00    +0.000 C 
ATOM     29  C   UNL     1       5.816   4.432  16.295  0.00  0.00    +0.000 C 
ENDBRANCH  25  29
ENDBRANCH  23  25
ENDBRANCH  17  23
ENDBRANCH   1  21
TORSDOF 5
ENDMDL
MODEL 9
REMARK VINA RESULT:      -8.1      1.699      2.468
REMARK  Name = 
REMARK  7 active torsions:
REMARK  status: ('A' for Active; 'I' for Inactive)
REMARK    1  A    between atoms: C_1  and  C_2
REMARK    2  A    between atoms: C_2  and  S_3
REMARK    3  A    between atoms: S_3  and  N_6
REMARK    4  A    between atoms: N_6  and  C_7
REMARK    5  A    between atoms: C_11  and  C_12
REMARK    6  A    between atoms: N_16  and  C_17
REMARK    7  A    between atoms: C_26  and  C_27
REMARK                            x       y       z     vdW  Elec       q    Type
REMARK                         _______ _______ _______ _____ _____    ______ ____
ROOT
ATOM      1  C   UNL     1       2.206   6.995  19.571  0.00  0.00    +0.000 A 
ATOM      2  C   UNL     1       1.627   7.227  20.751  0.00  0.00    +0.000 A 
ATOM      3  C   UNL     1       1.000   8.522  21.070  0.00  0.00    +0.000 A 
ATOM      4  O   UNL     1       0.461   8.609  22.173  0.00  0.00    +0.000 OA
ATOM      5  N   UNL     1       1.038   9.490  20.064  0.00  0.00    +0.000 N 
ATOM      6  N   UNL     1       1.639   9.275  18.834  0.00  0.00    +0.000 NA
ATOM      7  C   UNL     1       2.203   8.127  18.611  0.00  0.00    +0.000 A 
ATOM      8  C   UNL     1       2.926   7.943  17.295  0.00  0.00    +0.000 C 
ENDROOT
BRANCH   5   9
ATOM      9  C   UNL     1       0.435  10.785  20.212  0.00  0.00    +0.000 A 
ATOM     10  C   UNL     1      -0.866  11.050  19.758  0.00  0.00    +0.000 A 
ATOM     11  C   UNL     1      -1.418  12.334  19.832  0.00  0.00    +0.000 A 
ATOM     12  C   UNL     1      -0.674  13.386  20.362  0.00  0.00    +0.000 A 
ATOM     13 CL   UNL     1      -1.395  14.955  20.370  0.00  0.00    +0.000 Cl
ATOM     14  C   UNL     1       0.610  13.138  20.854  0.00  0.00    +0.000 A 
ATOM     15 CL   UNL     1       1.597  14.395  21.515  0.00  0.00    +0.000 Cl
ATOM     16  C   UNL     1       1.150  11.844  20.798  0.00  0.00    +0.000 A 
ENDBRANCH   5   9
BRANCH   1  21
ATOM     17  C   UNL     1       4.751   4.278  18.991  0.00  0.00    +0.000 A 
ATOM     18  C   UNL     1       3.929   3.202  18.664  0.00  0.00    +0.000 A 
ATOM     19  C   UNL     1       2.543   3.368  18.636  0.00  0.00    +0.000 A 
ATOM     20  C   UNL     1       1.980   4.605  18.947  0.00  0.00    +0.000 A 
ATOM     21  C   UNL     1       2.800   5.680  19.317  0.00  0.00    +0.000 A 
ATOM     22  C   UNL     1       4.192   5.508  19.348  0.00  0.00    +0.000 A 
BRANCH  17  23
ATOM     23  N   UNL     1       6.176   4.121  18.957  0.00  0.00    +0.000 N 
ATOM     24  H   UNL     1       6.452   3.136  18.965  0.00  0.00    +0.000 HD
BRANCH  23  25
ATOM     25  S   UNL     1       6.981   4.869  17.654  0.00  0.00    +0.000 S 
ATOM     26  O   UNL     1       8.239   4.199  17.411  0.00  0.00    +0.000 OA
ATOM     27  O   UNL     1       6.903   6.288  17.911  0.00  0.00    +0.000 OA
BRANCH  25  29
ATOM     28  C   UNL     1       5.406   5.695  15.571  0.00  0.00    +0.000 C 
ATOM     29  C   UNL     1       5.854   4.459  16.326  0.00  0.00    +0.000 C 
ENDBRANCH  25  29
ENDBRANCH  23  25
ENDBRANCH  17  23
ENDBRANCH   1  21
TORSDOF 5
ENDMDL
