MODEL 1
REMARK VINA RESULT:      -7.2      0.000      0.000
REMARK  Name = 
REMARK  13 active torsions:
REMARK  status: ('A' for Active; 'I' for Inactive)
REMARK    1  A    between atoms: C_1  and  C_2
REMARK    2  A    between atoms: C_2  and  C_3
REMARK    3  A    between atoms: C_3  and  N_4
REMARK    4  A    between atoms: N_7  and  C_8
REMARK    5  A    between atoms: N_7  and  C_9
REMARK    6  A    between atoms: C_9  and  C_10
REMARK    7  A    between atoms: C_15  and  C_16
REMARK    8  A    between atoms: C_17  and  C_18
REMARK    9  A    between atoms: N_28  and  C_29
REMARK   10  A    between atoms: C_29  and  C_30
REMARK   11  A    between atoms: C_29  and  C_31
REMARK   12  A    between atoms: C_31  and  O_32
REMARK   13  A    between atoms: C_34  and  C_35
REMARK                            x       y       z     vdW  Elec       q    Type
REMARK                         _______ _______ _______ _____ _____    ______ ____
ROOT
ATOM      1  C   UNL     1       5.213   4.067  17.448  0.00  0.00    +0.000 C 
ATOM      2  O   UNL     1       4.517   4.913  16.524  0.00  0.00    +0.000 OA
ATOM      3  C   UNL     1       3.582   5.763  16.987  0.00  0.00    +0.000 A 
ATOM      4  N   UNL     1       3.880   7.052  16.692  0.00  0.00    +0.000 NA
ATOM      5  C   UNL     1       3.240   8.005  17.401  0.00  0.00    +0.000 A 
ATOM      6  C   UNL     1       2.322   7.707  18.392  0.00  0.00    +0.000 A 
ATOM      7  C   UNL     1       1.909   6.391  18.559  0.00  0.00    +0.000 A 
ATOM      8  C   UNL     1       2.562   5.389  17.842  0.00  0.00    +0.000 A 
ATOM      9  C   UNL     1       2.279   3.973  18.126  0.00  0.00    +0.000 C 
ATOM     10  O   UNL     1       1.573   3.344  17.357  0.00  0.00    +0.000 OA
ATOM     11  N   UNL     1       2.696   3.530  19.393  0.00  0.00    +0.000 N 
ATOM     12  C   UNL     1       4.135   3.380  19.650  0.00  0.00    +0.000 C 
ATOM     13  C   UNL     1       5.161   4.324  18.993  0.00  0.00    +0.000 C 
ATOM     14  C   UNL     1       5.085   5.736  19.580  0.00  0.00    +0.000 C 
ENDROOT
BRANCH   6  15
ATOM     15  C   UNL     1       1.845   8.730  19.259  0.00  0.00    +0.000 C 
ATOM     16  C   UNL     1       1.307   9.531  20.136  0.00  0.00    +0.000 C 
BRANCH  16  17
ATOM     17  C   UNL     1       0.679  10.465  21.158  0.00  0.00    +0.000 C 
ATOM     18  C   UNL     1       1.441  11.745  20.474  0.00  0.00    +0.000 C 
ATOM     19  C   UNL     1       0.935  11.983  19.011  0.00  0.00    +0.000 C 
ATOM     20  C   UNL     1      -0.516  12.409  19.024  0.00  0.00    +0.000 C 
ATOM     21  C   UNL     1      -1.389  11.505  19.898  0.00  0.00    +0.000 C 
ATOM     22  C   UNL     1      -0.756  10.974  21.195  0.00  0.00    +0.000 C 
ENDBRANCH  16  17
ENDBRANCH   6  15
BRANCH  11  23
ATOM     23  C   UNL     1       1.813   2.491  20.006  0.00  0.00    +0.000 C 
ATOM     24  C   UNL     1       0.355   2.978  19.973  0.00  0.00    +0.000 C 
BRANCH  23  25
ATOM     25  C   UNL     1       2.141   2.134  21.480  0.00  0.00    +0.000 C 
BRANCH  25  26
ATOM     26  O   UNL     1       2.173   3.271  22.341  0.00  0.00    +0.000 OA
ATOM     27  H   UNL     1       1.267   3.615  22.414  0.00  0.00    +0.000 HD
ENDBRANCH  25  26
ENDBRANCH  23  25
ENDBRANCH  11  23
BRANCH   1  28
ATOM     28  C   UNL     1       6.688   4.008  16.960  0.00  0.00    +0.000 C 
BRANCH  28  32
ATOM     29  N   UNL     1       6.556   3.876  14.137  0.00  0.00    +0.000 N 
ATOM     30  C   UNL     1       7.103   5.016  14.672  0.00  0.00    +0.000 C 
ATOM     31  O   UNL     1       7.647   5.858  13.964  0.00  0.00    +0.000 OA
ATOM     32  N   UNL     1       7.011   5.124  16.052  0.00  0.00    +0.000 N 
ATOM     33  C   UNL     1       7.637   6.286  16.664  0.00  0.00    +0.000 C 
ATOM     34  H   UNL     1       6.501   3.081  14.760  0.00  0.00    +0.000 HD
BRANCH  29  35
ATOM     35  C   UNL     1       6.819   3.456  12.778  0.00  0.00    +0.000 C 
BRANCH  35  37
ATOM     36  C   UNL     1       5.627   1.743  11.355  0.00  0.00    +0.000 C 
ATOM     37  C   UNL     1       5.538   3.101  12.038  0.00  0.00    +0.000 C 
ENDBRANCH  35  37
ENDBRANCH  29  35
ENDBRANCH  28  32
ENDBRANCH   1  28
TORSDOF 9
ENDMDL
MODEL 2
REMARK VINA RESULT:      -7.0      5.766     11.159
REMARK  Name = 
REMARK  13 active torsions:
REMARK  status: ('A' for Active; 'I' for Inactive)
REMARK    1  A    between atoms: C_1  and  C_2
REMARK    2  A    between atoms: C_2  and  C_3
REMARK    3  A    between atoms: C_3  and  N_4
REMARK    4  A    between atoms: N_7  and  C_8
REMARK    5  A    between atoms: N_7  and  C_9
REMARK    6  A    between atoms: C_9  and  C_10
REMARK    7  A    between atoms: C_15  and  C_16
REMARK    8  A    between atoms: C_17  and  C_18
REMARK    9  A    between atoms: N_28  and  C_29
REMARK   10  A    between atoms: C_29  and  C_30
REMARK   11  A    between atoms: C_29  and  C_31
REMARK   12  A    between atoms: C_31  and  O_32
REMARK   13  A    between atoms: C_34  and  C_35
REMARK                            x       y       z     vdW  Elec       q    Type
REMARK                         _______ _______ _______ _____ _____    ______ ____
ROOT
ATOM      1  C   UNL     1      -1.934  12.849  20.432  0.00  0.00    +0.000 C 
ATOM      2  O   UNL     1      -1.948  12.409  19.068  0.00  0.00    +0.000 OA
ATOM      3  C   UNL     1      -0.912  11.691  18.598  0.00  0.00    +0.000 A 
ATOM      4  N   UNL     1      -1.304  10.474  18.147  0.00  0.00    +0.000 NA
ATOM      5  C   UNL     1      -0.344   9.539  18.001  0.00  0.00    +0.000 A 
ATOM      6  C   UNL     1       0.986   9.781  18.296  0.00  0.00    +0.000 A 
ATOM      7  C   UNL     1       1.388  11.078  18.593  0.00  0.00    +0.000 A 
ATOM      8  C   UNL     1       0.411  12.059  18.756  0.00  0.00    +0.000 A 
ATOM      9  C   UNL     1       0.782  13.397  19.248  0.00  0.00    +0.000 C 
ATOM     10  O   UNL     1       0.844  14.323  18.458  0.00  0.00    +0.000 OA
ATOM     11  N   UNL     1       1.236  13.431  20.578  0.00  0.00    +0.000 N 
ATOM     12  C   UNL     1       0.267  13.210  21.661  0.00  0.00    +0.000 C 
ATOM     13  C   UNL     1      -0.927  12.253  21.475  0.00  0.00    +0.000 C 
ATOM     14  C   UNL     1      -0.474  10.792  21.424  0.00  0.00    +0.000 C 
ENDROOT
BRANCH   6  15
ATOM     15  C   UNL     1       1.919   8.707  18.342  0.00  0.00    +0.000 C 
ATOM     16  C   UNL     1       2.705   7.675  18.217  0.00  0.00    +0.000 C 
BRANCH  16  17
ATOM     17  C   UNL     1       3.621   6.471  18.071  0.00  0.00    +0.000 C 
ATOM     18  C   UNL     1       3.437   6.121  19.661  0.00  0.00    +0.000 C 
ATOM     19  C   UNL     1       1.951   5.744  19.983  0.00  0.00    +0.000 C 
ATOM     20  C   UNL     1       1.581   4.448  19.298  0.00  0.00    +0.000 C 
ATOM     21  C   UNL     1       1.972   4.431  17.817  0.00  0.00    +0.000 C 
ATOM     22  C   UNL     1       3.292   5.123  17.442  0.00  0.00    +0.000 C 
ENDBRANCH  16  17
ENDBRANCH   6  15
BRANCH  11  23
ATOM     23  C   UNL     1       2.288  14.459  20.845  0.00  0.00    +0.000 C 
ATOM     24  C   UNL     1       3.554  13.765  21.374  0.00  0.00    +0.000 C 
BRANCH  23  25
ATOM     25  C   UNL     1       1.898  15.546  21.881  0.00  0.00    +0.000 C 
BRANCH  25  26
ATOM     26  O   UNL     1       2.737  15.552  23.035  0.00  0.00    +0.000 OA
ATOM     27  H   UNL     1       3.319  16.327  22.976  0.00  0.00    +0.000 HD
ENDBRANCH  25  26
ENDBRANCH  23  25
ENDBRANCH  11  23
BRANCH   1  28
ATOM     28  C   UNL     1      -3.393  12.709  20.951  0.00  0.00    +0.000 C 
BRANCH  28  32
ATOM     29  N   UNL     1      -6.130  12.995  20.292  0.00  0.00    +0.000 N 
ATOM     30  C   UNL     1      -5.409  14.155  20.433  0.00  0.00    +0.000 C 
ATOM     31  O   UNL     1      -5.886  15.245  20.134  0.00  0.00    +0.000 OA
ATOM     32  N   UNL     1      -4.116  13.994  20.909  0.00  0.00    +0.000 N 
ATOM     33  C   UNL     1      -3.297  15.192  21.011  0.00  0.00    +0.000 C 
ATOM     34  H   UNL     1      -5.585  12.152  20.164  0.00  0.00    +0.000 HD
BRANCH  29  35
ATOM     35  C   UNL     1      -7.364  12.938  19.540  0.00  0.00    +0.000 C 
BRANCH  35  37
ATOM     36  C   UNL     1      -6.576  10.842  18.372  0.00  0.00    +0.000 C 
ATOM     37  C   UNL     1      -7.181  12.230  18.207  0.00  0.00    +0.000 C 
ENDBRANCH  35  37
ENDBRANCH  29  35
ENDBRANCH  28  32
ENDBRANCH   1  28
TORSDOF 9
ENDMDL
MODEL 3
REMARK VINA RESULT:      -6.9      3.366      7.761
REMARK  Name = 
REMARK  13 active torsions:
REMARK  status: ('A' for Active; 'I' for Inactive)
REMARK    1  A    between atoms: C_1  and  C_2
REMARK    2  A    between atoms: C_2  and  C_3
REMARK    3  A    between atoms: C_3  and  N_4
REMARK    4  A    between atoms: N_7  and  C_8
REMARK    5  A    between atoms: N_7  and  C_9
REMARK    6  A    between atoms: C_9  and  C_10
REMARK    7  A    between atoms: C_15  and  C_16
REMARK    8  A    between atoms: C_17  and  C_18
REMARK    9  A    between atoms: N_28  and  C_29
REMARK   10  A    between atoms: C_29  and  C_30
REMARK   11  A    between atoms: C_29  and  C_31
REMARK   12  A    between atoms: C_31  and  O_32
REMARK   13  A    between atoms: C_34  and  C_35
REMARK                            x       y       z     vdW  Elec       q    Type
REMARK                         _______ _______ _______ _____ _____    ______ ____
ROOT
ATOM      1  C   UNL     1       5.151   3.911  18.315  0.00  0.00    +0.000 C 
ATOM      2  O   UNL     1       6.460   4.000  18.890  0.00  0.00    +0.000 OA
ATOM      3  C   UNL     1       7.229   5.069  18.611  0.00  0.00    +0.000 A 
ATOM      4  N   UNL     1       7.573   5.750  19.732  0.00  0.00    +0.000 NA
ATOM      5  C   UNL     1       8.014   7.014  19.568  0.00  0.00    +0.000 A 
ATOM      6  C   UNL     1       8.115   7.614  18.325  0.00  0.00    +0.000 A 
ATOM      7  C   UNL     1       7.920   6.844  17.184  0.00  0.00    +0.000 A 
ATOM      8  C   UNL     1       7.456   5.537  17.331  0.00  0.00    +0.000 A 
ATOM      9  C   UNL     1       7.065   4.755  16.147  0.00  0.00    +0.000 C 
ATOM     10  O   UNL     1       7.817   3.891  15.732  0.00  0.00    +0.000 OA
ATOM     11  N   UNL     1       5.925   5.231  15.475  0.00  0.00    +0.000 N 
ATOM     12  C   UNL     1       4.611   5.075  16.116  0.00  0.00    +0.000 C 
ATOM     13  C   UNL     1       4.462   5.150  17.648  0.00  0.00    +0.000 C 
ATOM     14  C   UNL     1       4.676   6.575  18.166  0.00  0.00    +0.000 C 
ENDROOT
BRANCH   6  15
ATOM     15  C   UNL     1       8.367   9.010  18.220  0.00  0.00    +0.000 C 
ATOM     16  C   UNL     1       8.755  10.241  18.033  0.00  0.00    +0.000 C 
BRANCH  16  17
ATOM     17  C   UNL     1       9.208  11.675  17.815  0.00  0.00    +0.000 C 
ATOM     18  C   UNL     1       8.910  12.023  19.388  0.00  0.00    +0.000 C 
ATOM     19  C   UNL     1       9.853  11.203  20.331  0.00  0.00    +0.000 C 
ATOM     20  C   UNL     1      11.288  11.644  20.145  0.00  0.00    +0.000 C 
ATOM     21  C   UNL     1      11.700  11.705  18.671  0.00  0.00    +0.000 C 
ATOM     22  C   UNL     1      10.635  12.189  17.674  0.00  0.00    +0.000 C 
ENDBRANCH  16  17
ENDBRANCH   6  15
BRANCH  11  23
ATOM     23  C   UNL     1       5.954   5.036  13.994  0.00  0.00    +0.000 C 
ATOM     24  C   UNL     1       5.320   3.678  13.647  0.00  0.00    +0.000 C 
BRANCH  23  25
ATOM     25  C   UNL     1       7.368   5.054  13.354  0.00  0.00    +0.000 C 
BRANCH  25  26
ATOM     26  O   UNL     1       7.389   4.554  12.018  0.00  0.00    +0.000 OA
ATOM     27  H   UNL     1       7.739   5.255  11.444  0.00  0.00    +0.000 HD
ENDBRANCH  25  26
ENDBRANCH  23  25
ENDBRANCH  11  23
BRANCH   1  28
ATOM     28  C   UNL     1       4.231   3.310  19.416  0.00  0.00    +0.000 C 
BRANCH  28  32
ATOM     29  N   UNL     1       2.314   5.252  20.165  0.00  0.00    +0.000 N 
ATOM     30  C   UNL     1       1.841   4.151  19.494  0.00  0.00    +0.000 C 
ATOM     31  O   UNL     1       0.638   3.947  19.368  0.00  0.00    +0.000 OA
ATOM     32  N   UNL     1       2.816   3.296  19.001  0.00  0.00    +0.000 N 
ATOM     33  C   UNL     1       2.355   2.084  18.341  0.00  0.00    +0.000 C 
ATOM     34  H   UNL     1       3.236   5.156  20.572  0.00  0.00    +0.000 HD
BRANCH  29  35
ATOM     35  C   UNL     1       1.464   6.079  20.992  0.00  0.00    +0.000 C 
BRANCH  35  37
ATOM     36  C   UNL     1       0.603   8.415  21.413  0.00  0.00    +0.000 C 
ATOM     37  C   UNL     1       1.587   7.552  20.635  0.00  0.00    +0.000 C 
ENDBRANCH  35  37
ENDBRANCH  29  35
ENDBRANCH  28  32
ENDBRANCH   1  28
TORSDOF 9
ENDMDL
MODEL 4
REMARK VINA RESULT:      -6.9      5.921     11.642
REMARK  Name = 
REMARK  13 active torsions:
REMARK  status: ('A' for Active; 'I' for Inactive)
REMARK    1  A    between atoms: C_1  and  C_2
REMARK    2  A    between atoms: C_2  and  C_3
REMARK    3  A    between atoms: C_3  and  N_4
REMARK    4  A    between atoms: N_7  and  C_8
REMARK    5  A    between atoms: N_7  and  C_9
REMARK    6  A    between atoms: C_9  and  C_10
REMARK    7  A    between atoms: C_15  and  C_16
REMARK    8  A    between atoms: C_17  and  C_18
REMARK    9  A    between atoms: N_28  and  C_29
REMARK   10  A    between atoms: C_29  and  C_30
REMARK   11  A    between atoms: C_29  and  C_31
REMARK   12  A    between atoms: C_31  and  O_32
REMARK   13  A    between atoms: C_34  and  C_35
REMARK                            x       y       z     vdW  Elec       q    Type
REMARK                         _______ _______ _______ _____ _____    ______ ____
ROOT
ATOM      1  C   UNL     1      -1.662  12.831  20.527  0.00  0.00    +0.000 C 
ATOM      2  O   UNL     1      -1.778  12.386  19.170  0.00  0.00    +0.000 OA
ATOM      3  C   UNL     1      -0.775  11.675  18.624  0.00  0.00    +0.000 A 
ATOM      4  N   UNL     1      -1.189  10.453  18.208  0.00  0.00    +0.000 NA
ATOM      5  C   UNL     1      -0.235   9.525  17.992  0.00  0.00    +0.000 A 
ATOM      6  C   UNL     1       1.112   9.780  18.183  0.00  0.00    +0.000 A 
ATOM      7  C   UNL     1       1.523  11.082  18.444  0.00  0.00    +0.000 A 
ATOM      8  C   UNL     1       0.553  12.055  18.679  0.00  0.00    +0.000 A 
ATOM      9  C   UNL     1       0.949  13.398  19.135  0.00  0.00    +0.000 C 
ATOM     10  O   UNL     1       0.941  14.321  18.340  0.00  0.00    +0.000 OA
ATOM     11  N   UNL     1       1.504  13.442  20.426  0.00  0.00    +0.000 N 
ATOM     12  C   UNL     1       0.623  13.217  21.582  0.00  0.00    +0.000 C 
ATOM     13  C   UNL     1      -0.573  12.249  21.491  0.00  0.00    +0.000 C 
ATOM     14  C   UNL     1      -0.113  10.791  21.410  0.00  0.00    +0.000 C 
ENDROOT
BRANCH   6  15
ATOM     15  C   UNL     1       2.055   8.715  18.161  0.00  0.00    +0.000 C 
ATOM     16  C   UNL     1       2.776   7.631  18.083  0.00  0.00    +0.000 C 
BRANCH  16  17
ATOM     17  C   UNL     1       3.617   6.368  17.992  0.00  0.00    +0.000 C 
ATOM     18  C   UNL     1       3.514   6.167  19.615  0.00  0.00    +0.000 C 
ATOM     19  C   UNL     1       2.034   5.906  20.055  0.00  0.00    +0.000 C 
ATOM     20  C   UNL     1       1.554   4.579  19.510  0.00  0.00    +0.000 C 
ATOM     21  C   UNL     1       1.850   4.413  18.017  0.00  0.00    +0.000 C 
ATOM     22  C   UNL     1       3.179   4.993  17.506  0.00  0.00    +0.000 C 
ENDBRANCH  16  17
ENDBRANCH   6  15
BRANCH  11  23
ATOM     23  C   UNL     1       2.564  14.480  20.608  0.00  0.00    +0.000 C 
ATOM     24  C   UNL     1       3.665  13.927  21.528  0.00  0.00    +0.000 C 
BRANCH  23  25
ATOM     25  C   UNL     1       2.078  15.815  21.231  0.00  0.00    +0.000 C 
BRANCH  25  26
ATOM     26  O   UNL     1       1.381  16.648  20.306  0.00  0.00    +0.000 OA
ATOM     27  H   UNL     1       1.565  16.317  19.411  0.00  0.00    +0.000 HD
ENDBRANCH  25  26
ENDBRANCH  23  25
ENDBRANCH  11  23
BRANCH   1  28
ATOM     28  C   UNL     1      -3.076  12.681  21.158  0.00  0.00    +0.000 C 
BRANCH  28  32
ATOM     29  N   UNL     1      -5.777  13.059  21.913  0.00  0.00    +0.000 N 
ATOM     30  C   UNL     1      -5.048  14.194  21.655  0.00  0.00    +0.000 C 
ATOM     31  O   UNL     1      -5.581  15.298  21.600  0.00  0.00    +0.000 OA
ATOM     32  N   UNL     1      -3.692  13.990  21.443  0.00  0.00    +0.000 N 
ATOM     33  C   UNL     1      -2.896  15.159  21.101  0.00  0.00    +0.000 C 
ATOM     34  H   UNL     1      -5.387  12.196  21.556  0.00  0.00    +0.000 HD
BRANCH  29  35
ATOM     35  C   UNL     1      -7.222  13.040  21.862  0.00  0.00    +0.000 C 
BRANCH  35  37
ATOM     36  C   UNL     1      -7.629  13.638  24.281  0.00  0.00    +0.000 C 
ATOM     37  C   UNL     1      -7.828  12.600  23.185  0.00  0.00    +0.000 C 
ENDBRANCH  35  37
ENDBRANCH  29  35
ENDBRANCH  28  32
ENDBRANCH   1  28
TORSDOF 9
ENDMDL
MODEL 5
REMARK VINA RESULT:      -6.9      0.976      1.084
REMARK  Name = 
REMARK  13 active torsions:
REMARK  status: ('A' for Active; 'I' for Inactive)
REMARK    1  A    between atoms: C_1  and  C_2
REMARK    2  A    between atoms: C_2  and  C_3
REMARK    3  A    between atoms: C_3  and  N_4
REMARK    4  A    between atoms: N_7  and  C_8
REMARK    5  A    between atoms: N_7  and  C_9
REMARK    6  A    between atoms: C_9  and  C_10
REMARK    7  A    between atoms: C_15  and  C_16
REMARK    8  A    between atoms: C_17  and  C_18
REMARK    9  A    between atoms: N_28  and  C_29
REMARK   10  A    between atoms: C_29  and  C_30
REMARK   11  A    between atoms: C_29  and  C_31
REMARK   12  A    between atoms: C_31  and  O_32
REMARK   13  A    between atoms: C_34  and  C_35
REMARK                            x       y       z     vdW  Elec       q    Type
REMARK                         _______ _______ _______ _____ _____    ______ ____
ROOT
ATOM      1  C   UNL     1       4.845   4.222  17.668  0.00  0.00    +0.000 C 
ATOM      2  O   UNL     1       4.295   5.109  16.686  0.00  0.00    +0.000 OA
ATOM      3  C   UNL     1       3.401   6.040  17.067  0.00  0.00    +0.000 A 
ATOM      4  N   UNL     1       3.827   7.296  16.786  0.00  0.00    +0.000 NA
ATOM      5  C   UNL     1       3.217   8.308  17.434  0.00  0.00    +0.000 A 
ATOM      6  C   UNL     1       2.204   8.102  18.354  0.00  0.00    +0.000 A 
ATOM      7  C   UNL     1       1.671   6.827  18.499  0.00  0.00    +0.000 A 
ATOM      8  C   UNL     1       2.292   5.764  17.844  0.00  0.00    +0.000 A 
ATOM      9  C   UNL     1       1.870   4.380  18.117  0.00  0.00    +0.000 C 
ATOM     10  O   UNL     1       1.175   3.800  17.301  0.00  0.00    +0.000 OA
ATOM     11  N   UNL     1       2.150   3.924  19.416  0.00  0.00    +0.000 N 
ATOM     12  C   UNL     1       3.549   3.659  19.786  0.00  0.00    +0.000 C 
ATOM     13  C   UNL     1       4.697   4.505  19.202  0.00  0.00    +0.000 C 
ATOM     14  C   UNL     1       4.694   5.927  19.769  0.00  0.00    +0.000 C 
ENDROOT
BRANCH   6  15
ATOM     15  C   UNL     1       1.749   9.173  19.173  0.00  0.00    +0.000 C 
ATOM     16  C   UNL     1       1.256  10.021  20.032  0.00  0.00    +0.000 C 
BRANCH  16  17
ATOM     17  C   UNL     1       0.682  11.010  21.034  0.00  0.00    +0.000 C 
ATOM     18  C   UNL     1       1.314  12.259  20.183  0.00  0.00    +0.000 C 
ATOM     19  C   UNL     1       0.664  12.355  18.762  0.00  0.00    +0.000 C 
ATOM     20  C   UNL     1      -0.799  12.722  18.881  0.00  0.00    +0.000 C 
ATOM     21  C   UNL     1      -1.542  11.857  19.903  0.00  0.00    +0.000 C 
ATOM     22  C   UNL     1      -0.766  11.461  21.170  0.00  0.00    +0.000 C 
ENDBRANCH  16  17
ENDBRANCH   6  15
BRANCH  11  23
ATOM     23  C   UNL     1       1.140   2.970  19.968  0.00  0.00    +0.000 C 
ATOM     24  C   UNL     1       1.389   2.780  21.473  0.00  0.00    +0.000 C 
BRANCH  23  25
ATOM     25  C   UNL     1       1.146   1.558  19.323  0.00  0.00    +0.000 C 
BRANCH  25  26
ATOM     26  O   UNL     1       0.225   1.429  18.242  0.00  0.00    +0.000 OA
ATOM     27  H   UNL     1       0.612   1.870  17.467  0.00  0.00    +0.000 HD
ENDBRANCH  25  26
ENDBRANCH  23  25
ENDBRANCH  11  23
BRANCH   1  28
ATOM     28  C   UNL     1       6.344   4.035  17.296  0.00  0.00    +0.000 C 
BRANCH  28  32
ATOM     29  N   UNL     1       6.347   4.015  14.467  0.00  0.00    +0.000 N 
ATOM     30  C   UNL     1       6.993   5.065  15.073  0.00  0.00    +0.000 C 
ATOM     31  O   UNL     1       7.668   5.860  14.427  0.00  0.00    +0.000 OA
ATOM     32  N   UNL     1       6.841   5.135  16.450  0.00  0.00    +0.000 N 
ATOM     33  C   UNL     1       7.564   6.194  17.139  0.00  0.00    +0.000 C 
ATOM     34  H   UNL     1       6.166   3.211  15.054  0.00  0.00    +0.000 HD
BRANCH  29  35
ATOM     35  C   UNL     1       6.631   3.614  13.107  0.00  0.00    +0.000 C 
BRANCH  35  37
ATOM     36  C   UNL     1       5.463   2.112  11.446  0.00  0.00    +0.000 C 
ATOM     37  C   UNL     1       5.358   3.358  12.315  0.00  0.00    +0.000 C 
ENDBRANCH  35  37
ENDBRANCH  29  35
ENDBRANCH  28  32
ENDBRANCH   1  28
TORSDOF 9
ENDMDL
MODEL 6
REMARK VINA RESULT:      -6.9      4.984      9.094
REMARK  Name = 
REMARK  13 active torsions:
REMARK  status: ('A' for Active; 'I' for Inactive)
REMARK    1  A    between atoms: C_1  and  C_2
REMARK    2  A    between atoms: C_2  and  C_3
REMARK    3  A    between atoms: C_3  and  N_4
REMARK    4  A    between atoms: N_7  and  C_8
REMARK    5  A    between atoms: N_7  and  C_9
REMARK    6  A    between atoms: C_9  and  C_10
REMARK    7  A    between atoms: C_15  and  C_16
REMARK    8  A    between atoms: C_17  and  C_18
REMARK    9  A    between atoms: N_28  and  C_29
REMARK   10  A    between atoms: C_29  and  C_30
REMARK   11  A    between atoms: C_29  and  C_31
REMARK   12  A    between atoms: C_31  and  O_32
REMARK   13  A    between atoms: C_34  and  C_35
REMARK                            x       y       z     vdW  Elec       q    Type
REMARK                         _______ _______ _______ _____ _____    ______ ____
ROOT
ATOM      1  C   UNL     1       0.574  10.816  19.983  0.00  0.00    +0.000 C 
ATOM      2  O   UNL     1       0.548  10.710  21.412  0.00  0.00    +0.000 OA
ATOM      3  C   UNL     1      -0.248  11.535  22.117  0.00  0.00    +0.000 A 
ATOM      4  N   UNL     1      -1.154  10.851  22.859  0.00  0.00    +0.000 NA
ATOM      5  C   UNL     1      -2.222  11.541  23.307  0.00  0.00    +0.000 A 
ATOM      6  C   UNL     1      -2.412  12.884  23.033  0.00  0.00    +0.000 A 
ATOM      7  C   UNL     1      -1.391  13.600  22.418  0.00  0.00    +0.000 A 
ATOM      8  C   UNL     1      -0.282  12.905  21.940  0.00  0.00    +0.000 A 
ATOM      9  C   UNL     1       0.730  13.599  21.126  0.00  0.00    +0.000 C 
ATOM     10  O   UNL     1       1.792  13.908  21.637  0.00  0.00    +0.000 OA
ATOM     11  N   UNL     1       0.280  14.026  19.864  0.00  0.00    +0.000 N 
ATOM     12  C   UNL     1       0.018  13.016  18.829  0.00  0.00    +0.000 C 
ATOM     13  C   UNL     1      -0.519  11.620  19.200  0.00  0.00    +0.000 C 
ATOM     14  C   UNL     1      -1.974  11.683  19.671  0.00  0.00    +0.000 C 
ENDROOT
BRANCH   6  15
ATOM     15  C   UNL     1      -3.655  13.510  23.332  0.00  0.00    +0.000 C 
ATOM     16  C   UNL     1      -4.869  13.961  23.485  0.00  0.00    +0.000 C 
BRANCH  16  17
ATOM     17  C   UNL     1      -6.284  14.487  23.663  0.00  0.00    +0.000 C 
ATOM     18  C   UNL     1      -6.504  14.480  22.039  0.00  0.00    +0.000 C 
ATOM     19  C   UNL     1      -6.443  13.022  21.471  0.00  0.00    +0.000 C 
ATOM     20  C   UNL     1      -7.614  12.213  21.984  0.00  0.00    +0.000 C 
ATOM     21  C   UNL     1      -7.798  12.336  23.498  0.00  0.00    +0.000 C 
ATOM     22  C   UNL     1      -7.513  13.712  24.121  0.00  0.00    +0.000 C 
ENDBRANCH  16  17
ENDBRANCH   6  15
BRANCH  11  23
ATOM     23  C   UNL     1       0.896  15.302  19.388  0.00  0.00    +0.000 C 
ATOM     24  C   UNL     1      -0.161  16.128  18.636  0.00  0.00    +0.000 C 
BRANCH  23  25
ATOM     25  C   UNL     1       2.107  15.132  18.432  0.00  0.00    +0.000 C 
BRANCH  25  26
ATOM     26  O   UNL     1       3.310  14.769  19.105  0.00  0.00    +0.000 OA
ATOM     27  H   UNL     1       3.065  14.330  19.937  0.00  0.00    +0.000 HD
ENDBRANCH  25  26
ENDBRANCH  23  25
ENDBRANCH  11  23
BRANCH   1  28
ATOM     28  C   UNL     1       0.667   9.361  19.439  0.00  0.00    +0.000 C 
BRANCH  28  32
ATOM     29  N   UNL     1       1.894   6.909  18.741  0.00  0.00    +0.000 N 
ATOM     30  C   UNL     1       2.454   8.046  18.214  0.00  0.00    +0.000 C 
ATOM     31  O   UNL     1       3.519   8.012  17.606  0.00  0.00    +0.000 OA
ATOM     32  N   UNL     1       1.742   9.215  18.441  0.00  0.00    +0.000 N 
ATOM     33  C   UNL     1       2.335  10.452  17.955  0.00  0.00    +0.000 C 
ATOM     34  H   UNL     1       1.280   7.048  19.534  0.00  0.00    +0.000 HD
BRANCH  29  35
ATOM     35  C   UNL     1       2.628   5.670  18.863  0.00  0.00    +0.000 C 
BRANCH  35  37
ATOM     36  C   UNL     1       1.506   3.456  18.396  0.00  0.00    +0.000 C 
ATOM     37  C   UNL     1       2.219   4.663  17.800  0.00  0.00    +0.000 C 
ENDBRANCH  35  37
ENDBRANCH  29  35
ENDBRANCH  28  32
ENDBRANCH   1  28
TORSDOF 9
ENDMDL
MODEL 7
REMARK VINA RESULT:      -6.9      5.450     10.705
REMARK  Name = 
REMARK  13 active torsions:
REMARK  status: ('A' for Active; 'I' for Inactive)
REMARK    1  A    between atoms: C_1  and  C_2
REMARK    2  A    between atoms: C_2  and  C_3
REMARK    3  A    between atoms: C_3  and  N_4
REMARK    4  A    between atoms: N_7  and  C_8
REMARK    5  A    between atoms: N_7  and  C_9
REMARK    6  A    between atoms: C_9  and  C_10
REMARK    7  A    between atoms: C_15  and  C_16
REMARK    8  A    between atoms: C_17  and  C_18
REMARK    9  A    between atoms: N_28  and  C_29
REMARK   10  A    between atoms: C_29  and  C_30
REMARK   11  A    between atoms: C_29  and  C_31
REMARK   12  A    between atoms: C_31  and  O_32
REMARK   13  A    between atoms: C_34  and  C_35
REMARK                            x       y       z     vdW  Elec       q    Type
REMARK                         _______ _______ _______ _____ _____    ______ ____
ROOT
ATOM      1  C   UNL     1      -1.764  12.618  20.794  0.00  0.00    +0.000 C 
ATOM      2  O   UNL     1      -1.973  12.146  19.457  0.00  0.00    +0.000 OA
ATOM      3  C   UNL     1      -0.978  11.493  18.828  0.00  0.00    +0.000 A 
ATOM      4  N   UNL     1      -1.348  10.241  18.463  0.00  0.00    +0.000 NA
ATOM      5  C   UNL     1      -0.360   9.372  18.169  0.00  0.00    +0.000 A 
ATOM      6  C   UNL     1       0.980   9.716  18.235  0.00  0.00    +0.000 A 
ATOM      7  C   UNL     1       1.328  11.045  18.446  0.00  0.00    +0.000 A 
ATOM      8  C   UNL     1       0.321  11.958  18.759  0.00  0.00    +0.000 A 
ATOM      9  C   UNL     1       0.669  13.329  19.166  0.00  0.00    +0.000 C 
ATOM     10  O   UNL     1       0.530  14.238  18.367  0.00  0.00    +0.000 OA
ATOM     11  N   UNL     1       1.333  13.427  20.401  0.00  0.00    +0.000 N 
ATOM     12  C   UNL     1       0.576  13.164  21.633  0.00  0.00    +0.000 C 
ATOM     13  C   UNL     1      -0.557  12.120  21.660  0.00  0.00    +0.000 C 
ATOM     14  C   UNL     1      -0.013  10.694  21.551  0.00  0.00    +0.000 C 
ENDROOT
BRANCH   6  15
ATOM     15  C   UNL     1       1.984   8.713  18.137  0.00  0.00    +0.000 C 
ATOM     16  C   UNL     1       2.768   7.672  18.093  0.00  0.00    +0.000 C 
BRANCH  16  17
ATOM     17  C   UNL     1       3.683   6.459  18.042  0.00  0.00    +0.000 C 
ATOM     18  C   UNL     1       3.410   6.170  19.632  0.00  0.00    +0.000 C 
ATOM     19  C   UNL     1       1.907   5.813  19.887  0.00  0.00    +0.000 C 
ATOM     20  C   UNL     1       1.565   4.494  19.232  0.00  0.00    +0.000 C 
ATOM     21  C   UNL     1       2.036   4.419  17.776  0.00  0.00    +0.000 C 
ATOM     22  C   UNL     1       3.379   5.090  17.447  0.00  0.00    +0.000 C 
ENDBRANCH  16  17
ENDBRANCH   6  15
BRANCH  11  23
ATOM     23  C   UNL     1       2.336  14.533  20.477  0.00  0.00    +0.000 C 
ATOM     24  C   UNL     1       3.507  14.098  21.373  0.00  0.00    +0.000 C 
BRANCH  23  25
ATOM     25  C   UNL     1       1.798  15.872  21.050  0.00  0.00    +0.000 C 
BRANCH  25  26
ATOM     26  O   UNL     1       1.293  16.752  20.047  0.00  0.00    +0.000 OA
ATOM     27  H   UNL     1       1.033  16.212  19.282  0.00  0.00    +0.000 HD
ENDBRANCH  25  26
ENDBRANCH  23  25
ENDBRANCH  11  23
BRANCH   1  28
ATOM     28  C   UNL     1      -3.103  12.387  21.552  0.00  0.00    +0.000 C 
BRANCH  28  32
ATOM     29  N   UNL     1      -5.001  11.792  19.539  0.00  0.00    +0.000 N 
ATOM     30  C   UNL     1      -4.985  13.084  20.003  0.00  0.00    +0.000 C 
ATOM     31  O   UNL     1      -5.645  13.966  19.463  0.00  0.00    +0.000 OA
ATOM     32  N   UNL     1      -4.159  13.310  21.095  0.00  0.00    +0.000 N 
ATOM     33  C   UNL     1      -4.063  14.679  21.576  0.00  0.00    +0.000 C 
ATOM     34  H   UNL     1      -4.177  11.241  19.743  0.00  0.00    +0.000 HD
BRANCH  29  35
ATOM     35  C   UNL     1      -5.557  11.440  18.251  0.00  0.00    +0.000 C 
BRANCH  35  37
ATOM     36  C   UNL     1      -4.172  10.674  16.283  0.00  0.00    +0.000 C 
ATOM     37  C   UNL     1      -4.648  11.863  17.108  0.00  0.00    +0.000 C 
ENDBRANCH  35  37
ENDBRANCH  29  35
ENDBRANCH  28  32
ENDBRANCH   1  28
TORSDOF 9
ENDMDL
MODEL 8
REMARK VINA RESULT:      -6.8      8.092     10.603
REMARK  Name = 
REMARK  13 active torsions:
REMARK  status: ('A' for Active; 'I' for Inactive)
REMARK    1  A    between atoms: C_1  and  C_2
REMARK    2  A    between atoms: C_2  and  C_3
REMARK    3  A    between atoms: C_3  and  N_4
REMARK    4  A    between atoms: N_7  and  C_8
REMARK    5  A    between atoms: N_7  and  C_9
REMARK    6  A    between atoms: C_9  and  C_10
REMARK    7  A    between atoms: C_15  and  C_16
REMARK    8  A    between atoms: C_17  and  C_18
REMARK    9  A    between atoms: N_28  and  C_29
REMARK   10  A    between atoms: C_29  and  C_30
REMARK   11  A    between atoms: C_29  and  C_31
REMARK   12  A    between atoms: C_31  and  O_32
REMARK   13  A    between atoms: C_34  and  C_35
REMARK                            x       y       z     vdW  Elec       q    Type
REMARK                         _______ _______ _______ _____ _____    ______ ____
ROOT
ATOM      1  C   UNL     1       1.698  13.397  20.158  0.00  0.00    +0.000 C 
ATOM      2  O   UNL     1       1.422  12.047  19.765  0.00  0.00    +0.000 OA
ATOM      3  C   UNL     1       0.144  11.657  19.608  0.00  0.00    +0.000 A 
ATOM      4  N   UNL     1      -0.099  11.216  18.348  0.00  0.00    +0.000 NA
ATOM      5  C   UNL     1      -1.388  11.152  17.962  0.00  0.00    +0.000 A 
ATOM      6  C   UNL     1      -2.436  11.517  18.790  0.00  0.00    +0.000 A 
ATOM      7  C   UNL     1      -2.175  11.801  20.125  0.00  0.00    +0.000 A 
ATOM      8  C   UNL     1      -0.847  11.881  20.544  0.00  0.00    +0.000 A 
ATOM      9  C   UNL     1      -0.528  12.358  21.900  0.00  0.00    +0.000 C 
ATOM     10  O   UNL     1      -0.207  11.548  22.753  0.00  0.00    +0.000 OA
ATOM     11  N   UNL     1      -0.830  13.710  22.137  0.00  0.00    +0.000 N 
ATOM     12  C   UNL     1      -0.005  14.741  21.491  0.00  0.00    +0.000 C 
ATOM     13  C   UNL     1       0.599  14.512  20.091  0.00  0.00    +0.000 C 
ATOM     14  C   UNL     1      -0.478  14.526  19.004  0.00  0.00    +0.000 C 
ENDROOT
BRANCH   6  15
ATOM     15  C   UNL     1      -3.753  11.646  18.267  0.00  0.00    +0.000 C 
ATOM     16  C   UNL     1      -5.011  11.805  17.965  0.00  0.00    +0.000 C 
BRANCH  16  17
ATOM     17  C   UNL     1      -6.478  11.990  17.612  0.00  0.00    +0.000 C 
ATOM     18  C   UNL     1      -6.901  10.860  18.720  0.00  0.00    +0.000 C 
ATOM     19  C   UNL     1      -6.539  11.332  20.169  0.00  0.00    +0.000 C 
ATOM     20  C   UNL     1      -7.381  12.527  20.554  0.00  0.00    +0.000 C 
ATOM     21  C   UNL     1      -7.390  13.614  19.476  0.00  0.00    +0.000 C 
ATOM     22  C   UNL     1      -7.393  13.140  18.014  0.00  0.00    +0.000 C 
ENDBRANCH  16  17
ENDBRANCH   6  15
BRANCH  11  23
ATOM     23  C   UNL     1      -1.271  14.010  23.533  0.00  0.00    +0.000 C 
ATOM     24  C   UNL     1      -2.794  13.825  23.637  0.00  0.00    +0.000 C 
BRANCH  23  25
ATOM     25  C   UNL     1      -0.951  15.445  24.031  0.00  0.00    +0.000 C 
BRANCH  25  26
ATOM     26  O   UNL     1      -0.501  15.484  25.384  0.00  0.00    +0.000 OA
ATOM     27  H   UNL     1      -0.422  16.417  25.644  0.00  0.00    +0.000 HD
ENDBRANCH  25  26
ENDBRANCH  23  25
ENDBRANCH  11  23
BRANCH   1  28
ATOM     28  C   UNL     1       2.959  13.835  19.359  0.00  0.00    +0.000 C 
BRANCH  28  32
ATOM     29  N   UNL     1       2.498  16.303  18.055  0.00  0.00    +0.000 N 
ATOM     30  C   UNL     1       3.389  16.319  19.100  0.00  0.00    +0.000 C 
ATOM     31  O   UNL     1       4.064  17.313  19.349  0.00  0.00    +0.000 OA
ATOM     32  N   UNL     1       3.477  15.136  19.820  0.00  0.00    +0.000 N 
ATOM     33  C   UNL     1       4.457  15.091  20.894  0.00  0.00    +0.000 C 
ATOM     34  H   UNL     1       2.294  15.391  17.666  0.00  0.00    +0.000 HD
BRANCH  29  35
ATOM     35  C   UNL     1       2.490  17.322  17.029  0.00  0.00    +0.000 C 
BRANCH  35  37
ATOM     36  C   UNL     1       0.204  18.149  16.346  0.00  0.00    +0.000 C 
ATOM     37  C   UNL     1       1.400  18.355  17.266  0.00  0.00    +0.000 C 
ENDBRANCH  35  37
ENDBRANCH  29  35
ENDBRANCH  28  32
ENDBRANCH   1  28
TORSDOF 9
ENDMDL
MODEL 9
REMARK VINA RESULT:      -6.7      5.671     11.123
REMARK  Name = 
REMARK  13 active torsions:
REMARK  status: ('A' for Active; 'I' for Inactive)
REMARK    1  A    between atoms: C_1  and  C_2
REMARK    2  A    between atoms: C_2  and  C_3
REMARK    3  A    between atoms: C_3  and  N_4
REMARK    4  A    between atoms: N_7  and  C_8
REMARK    5  A    between atoms: N_7  and  C_9
REMARK    6  A    between atoms: C_9  and  C_10
REMARK    7  A    between atoms: C_15  and  C_16
REMARK    8  A    between atoms: C_17  and  C_18
REMARK    9  A    between atoms: N_28  and  C_29
REMARK   10  A    between atoms: C_29  and  C_30
REMARK   11  A    between atoms: C_29  and  C_31
REMARK   12  A    between atoms: C_31  and  O_32
REMARK   13  A    between atoms: C_34  and  C_35
REMARK                            x       y       z     vdW  Elec       q    Type
REMARK                         _______ _______ _______ _____ _____    ______ ____
ROOT
ATOM      1  C   UNL     1      -1.821  12.758  20.364  0.00  0.00    +0.000 C 
ATOM      2  O   UNL     1      -1.805  12.395  18.977  0.00  0.00    +0.000 OA
ATOM      3  C   UNL     1      -0.791  11.647  18.505  0.00  0.00    +0.000 A 
ATOM      4  N   UNL     1      -1.230  10.480  17.971  0.00  0.00    +0.000 NA
ATOM      5  C   UNL     1      -0.318   9.501  17.808  0.00  0.00    +0.000 A 
ATOM      6  C   UNL     1       1.011   9.652  18.165  0.00  0.00    +0.000 A 
ATOM      7  C   UNL     1       1.470  10.906  18.550  0.00  0.00    +0.000 A 
ATOM      8  C   UNL     1       0.542  11.930  18.733  0.00  0.00    +0.000 A 
ATOM      9  C   UNL     1       0.965  13.215  19.313  0.00  0.00    +0.000 C 
ATOM     10  O   UNL     1       1.109  14.178  18.580  0.00  0.00    +0.000 OA
ATOM     11  N   UNL     1       1.367  13.151  20.659  0.00  0.00    +0.000 N 
ATOM     12  C   UNL     1       0.345  12.926  21.691  0.00  0.00    +0.000 C 
ATOM     13  C   UNL     1      -0.890  12.050  21.407  0.00  0.00    +0.000 C 
ATOM     14  C   UNL     1      -0.516  10.570  21.289  0.00  0.00    +0.000 C 
ENDROOT
BRANCH   6  15
ATOM     15  C   UNL     1       1.881   8.526  18.184  0.00  0.00    +0.000 C 
ATOM     16  C   UNL     1       2.547   7.408  18.099  0.00  0.00    +0.000 C 
BRANCH  16  17
ATOM     17  C   UNL     1       3.323   6.105  18.001  0.00  0.00    +0.000 C 
ATOM     18  C   UNL     1       3.414   6.021  19.635  0.00  0.00    +0.000 C 
ATOM     19  C   UNL     1       1.991   5.858  20.269  0.00  0.00    +0.000 C 
ATOM     20  C   UNL     1       1.399   4.521  19.885  0.00  0.00    +0.000 C 
ATOM     21  C   UNL     1       1.502   4.238  18.384  0.00  0.00    +0.000 C 
ATOM     22  C   UNL     1       2.778   4.721  17.674  0.00  0.00    +0.000 C 
ENDBRANCH  16  17
ENDBRANCH   6  15
BRANCH  11  23
ATOM     23  C   UNL     1       2.462  14.102  21.023  0.00  0.00    +0.000 C 
ATOM     24  C   UNL     1       1.853  15.472  21.363  0.00  0.00    +0.000 C 
BRANCH  23  25
ATOM     25  C   UNL     1       3.524  14.338  19.917  0.00  0.00    +0.000 C 
BRANCH  25  26
ATOM     26  O   UNL     1       3.530  15.674  19.417  0.00  0.00    +0.000 OA
ATOM     27  H   UNL     1       3.198  15.652  18.504  0.00  0.00    +0.000 HD
ENDBRANCH  25  26
ENDBRANCH  23  25
ENDBRANCH  11  23
BRANCH   1  28
ATOM     28  C   UNL     1      -3.305  12.672  20.820  0.00  0.00    +0.000 C 
BRANCH  28  32
ATOM     29  N   UNL     1      -5.995  13.250  20.155  0.00  0.00    +0.000 N 
ATOM     30  C   UNL     1      -5.191  14.325  20.445  0.00  0.00    +0.000 C 
ATOM     31  O   UNL     1      -5.575  15.476  20.271  0.00  0.00    +0.000 OA
ATOM     32  N   UNL     1      -3.927  14.006  20.920  0.00  0.00    +0.000 N 
ATOM     33  C   UNL     1      -3.021  15.115  21.177  0.00  0.00    +0.000 C 
ATOM     34  H   UNL     1      -5.513  12.387  19.936  0.00  0.00    +0.000 HD
BRANCH  29  35
ATOM     35  C   UNL     1      -7.210  13.379  19.382  0.00  0.00    +0.000 C 
BRANCH  35  37
ATOM     36  C   UNL     1      -6.246  12.634  17.170  0.00  0.00    +0.000 C 
ATOM     37  C   UNL     1      -7.275  12.357  18.258  0.00  0.00    +0.000 C 
ENDBRANCH  35  37
ENDBRANCH  29  35
ENDBRANCH  28  32
ENDBRANCH   1  28
TORSDOF 9
ENDMDL
