MODEL 1
REMARK VINA RESULT:      -6.4      0.000      0.000
REMARK  Name = 
REMARK  0 active torsions:
REMARK  status: ('A' for Active; 'I' for Inactive)
REMARK                            x       y       z     vdW  Elec       q    Type
REMARK                         _______ _______ _______ _____ _____    ______ ____
ROOT
ATOM      1 CL   UNL     1      -7.364  13.928  24.020  0.00  0.00    +0.000 Cl
ATOM      2  C   UNL     1      -5.809  13.339  23.570  0.00  0.00    +0.000 A 
ATOM      3  C   UNL     1      -5.010  12.715  24.524  0.00  0.00    +0.000 A 
ATOM      4  C   UNL     1      -3.742  12.229  24.180  0.00  0.00    +0.000 A 
ATOM      5  C   UNL     1      -3.278  12.374  22.858  0.00  0.00    +0.000 A 
ATOM      6  C   UNL     1      -2.077  12.027  22.181  0.00  0.00    +0.000 A 
ATOM      7  C   UNL     1      -2.208  12.442  20.872  0.00  0.00    +0.000 A 
ATOM      8  N   UNL     1      -3.427  13.032  20.723  0.00  0.00    +0.000 N 
ATOM      9  C   UNL     1      -4.106  13.007  21.921  0.00  0.00    +0.000 A 
ATOM     10  C   UNL     1      -5.375  13.499  22.249  0.00  0.00    +0.000 A 
ATOM     11  C   UNL     1      -1.167  12.289  19.822  0.00  0.00    +0.000 C 
ATOM     12  N   UNL     1       0.149  12.073  20.430  0.00  0.00    +0.000 N 
ATOM     13  C   UNL     1       1.146  12.996  20.307  0.00  0.00    +0.000 A 
ATOM     14  N   UNL     1       2.121  13.143  21.179  0.00  0.00    +0.000 NA
ATOM     15  C   UNL     1       3.067  14.046  20.727  0.00  0.00    +0.000 A 
ATOM     16  C   UNL     1       4.272  14.388  21.373  0.00  0.00    +0.000 A 
ATOM     17  C   UNL     1       5.146  15.302  20.773  0.00  0.00    +0.000 A 
ATOM     18  C   UNL     1       4.824  15.888  19.555  0.00  0.00    +0.000 A 
ATOM     19 CL   UNL     1       5.905  17.014  18.834  0.00  0.00    +0.000 Cl
ATOM     20  C   UNL     1       3.634  15.573  18.895  0.00  0.00    +0.000 A 
ATOM     21  C   UNL     1       2.779  14.638  19.502  0.00  0.00    +0.000 A 
ATOM     22  S   UNL     1       1.297  14.020  18.917  0.00  0.00    +0.000 S 
ATOM     23  C   UNL     1       0.196  11.102  21.543  0.00  0.00    +0.000 C 
ATOM     24  C   UNL     1      -0.820  11.392  22.678  0.00  0.00    +0.000 C 
ATOM     25  H   UNL     1      -3.785  13.447  19.869  0.00  0.00    +0.000 HD
ENDROOT
TORSDOF 0
ENDMDL
MODEL 2
REMARK VINA RESULT:      -6.4      4.871      8.039
REMARK  Name = 
REMARK  0 active torsions:
REMARK  status: ('A' for Active; 'I' for Inactive)
REMARK                            x       y       z     vdW  Elec       q    Type
REMARK                         _______ _______ _______ _____ _____    ______ ____
ROOT
ATOM      1 CL   UNL     1       4.796  17.427  20.894  0.00  0.00    +0.000 Cl
ATOM      2  C   UNL     1       3.809  16.027  20.711  0.00  0.00    +0.000 A 
ATOM      3  C   UNL     1       2.920  15.679  21.724  0.00  0.00    +0.000 A 
ATOM      4  C   UNL     1       2.109  14.544  21.597  0.00  0.00    +0.000 A 
ATOM      5  C   UNL     1       2.196  13.755  20.433  0.00  0.00    +0.000 A 
ATOM      6  C   UNL     1       1.558  12.566  19.987  0.00  0.00    +0.000 A 
ATOM      7  C   UNL     1       2.075  12.263  18.744  0.00  0.00    +0.000 A 
ATOM      8  N   UNL     1       3.003  13.206  18.418  0.00  0.00    +0.000 N 
ATOM      9  C   UNL     1       3.101  14.133  19.432  0.00  0.00    +0.000 A 
ATOM     10  C   UNL     1       3.919  15.263  19.544  0.00  0.00    +0.000 A 
ATOM     11  C   UNL     1       1.692  11.081  17.927  0.00  0.00    +0.000 C 
ATOM     12  N   UNL     1       1.064  10.057  18.767  0.00  0.00    +0.000 N 
ATOM     13  C   UNL     1       1.662   8.850  18.978  0.00  0.00    +0.000 A 
ATOM     14  N   UNL     1       1.464   8.109  20.048  0.00  0.00    +0.000 NA
ATOM     15  C   UNL     1       2.078   6.875  19.927  0.00  0.00    +0.000 A 
ATOM     16  C   UNL     1       2.013   5.815  20.852  0.00  0.00    +0.000 A 
ATOM     17  C   UNL     1       2.669   4.610  20.573  0.00  0.00    +0.000 A 
ATOM     18  C   UNL     1       3.399   4.461  19.400  0.00  0.00    +0.000 A 
ATOM     19 CL   UNL     1       4.204   2.976  19.076  0.00  0.00    +0.000 Cl
ATOM     20  C   UNL     1       3.487   5.497  18.469  0.00  0.00    +0.000 A 
ATOM     21  C   UNL     1       2.805   6.692  18.755  0.00  0.00    +0.000 A 
ATOM     22  S   UNL     1       2.684   8.100  17.796  0.00  0.00    +0.000 S 
ATOM     23  C   UNL     1       0.052  10.541  19.730  0.00  0.00    +0.000 C 
ATOM     24  C   UNL     1       0.554  11.682  20.652  0.00  0.00    +0.000 C 
ATOM     25  H   UNL     1       3.557  13.224  17.568  0.00  0.00    +0.000 HD
ENDROOT
TORSDOF 0
ENDMDL
MODEL 3
REMARK VINA RESULT:      -6.4      5.113      7.539
REMARK  Name = 
REMARK  0 active torsions:
REMARK  status: ('A' for Active; 'I' for Inactive)
REMARK                            x       y       z     vdW  Elec       q    Type
REMARK                         _______ _______ _______ _____ _____    ______ ____
ROOT
ATOM      1 CL   UNL     1       4.515   2.879  19.974  0.00  0.00    +0.000 Cl
ATOM      2  C   UNL     1       3.751   4.343  19.483  0.00  0.00    +0.000 A 
ATOM      3  C   UNL     1       3.773   4.711  18.141  0.00  0.00    +0.000 A 
ATOM      4  C   UNL     1       3.160   5.897  17.719  0.00  0.00    +0.000 A 
ATOM      5  C   UNL     1       2.515   6.719  18.665  0.00  0.00    +0.000 A 
ATOM      6  C   UNL     1       1.824   7.960  18.598  0.00  0.00    +0.000 A 
ATOM      7  C   UNL     1       1.417   8.273  19.879  0.00  0.00    +0.000 A 
ATOM      8  N   UNL     1       1.833   7.286  20.721  0.00  0.00    +0.000 N 
ATOM      9  C   UNL     1       2.509   6.321  20.008  0.00  0.00    +0.000 A 
ATOM     10  C   UNL     1       3.119   5.138  20.446  0.00  0.00    +0.000 A 
ATOM     11  C   UNL     1       0.674   9.503  20.259  0.00  0.00    +0.000 C 
ATOM     12  N   UNL     1       0.825  10.535  19.229  0.00  0.00    +0.000 N 
ATOM     13  C   UNL     1       1.496  11.695  19.482  0.00  0.00    +0.000 A 
ATOM     14  N   UNL     1       2.102  12.409  18.556  0.00  0.00    +0.000 NA
ATOM     15  C   UNL     1       2.569  13.606  19.070  0.00  0.00    +0.000 A 
ATOM     16  C   UNL     1       3.201  14.636  18.346  0.00  0.00    +0.000 A 
ATOM     17  C   UNL     1       3.594  15.807  19.005  0.00  0.00    +0.000 A 
ATOM     18  C   UNL     1       3.381  15.951  20.371  0.00  0.00    +0.000 A 
ATOM     19 CL   UNL     1       3.875  17.393  21.166  0.00  0.00    +0.000 Cl
ATOM     20  C   UNL     1       2.764  14.944  21.114  0.00  0.00    +0.000 A 
ATOM     21  C   UNL     1       2.357  13.785  20.433  0.00  0.00    +0.000 A 
ATOM     22  S   UNL     1       1.538  12.420  21.055  0.00  0.00    +0.000 S 
ATOM     23  C   UNL     1       0.666  10.082  17.831  0.00  0.00    +0.000 C 
ATOM     24  C   UNL     1       1.569   8.880  17.450  0.00  0.00    +0.000 C 
ATOM     25  H   UNL     1       1.690   7.264  21.725  0.00  0.00    +0.000 HD
ENDROOT
TORSDOF 0
ENDMDL
MODEL 4
REMARK VINA RESULT:      -6.0      3.560      4.772
REMARK  Name = 
REMARK  0 active torsions:
REMARK  status: ('A' for Active; 'I' for Inactive)
REMARK                            x       y       z     vdW  Elec       q    Type
REMARK                         _______ _______ _______ _____ _____    ______ ____
ROOT
ATOM      1 CL   UNL     1      -4.147   9.999  14.125  0.00  0.00    +0.000 Cl
ATOM      2  C   UNL     1      -3.611  10.532  15.673  0.00  0.00    +0.000 A 
ATOM      3  C   UNL     1      -4.496  11.200  16.513  0.00  0.00    +0.000 A 
ATOM      4  C   UNL     1      -4.081  11.643  17.775  0.00  0.00    +0.000 A 
ATOM      5  C   UNL     1      -2.757  11.405  18.193  0.00  0.00    +0.000 A 
ATOM      6  C   UNL     1      -2.011  11.717  19.363  0.00  0.00    +0.000 A 
ATOM      7  C   UNL     1      -0.736  11.224  19.181  0.00  0.00    +0.000 A 
ATOM      8  N   UNL     1      -0.668  10.634  17.954  0.00  0.00    +0.000 N 
ATOM      9  C   UNL     1      -1.889  10.730  17.324  0.00  0.00    +0.000 A 
ATOM     10  C   UNL     1      -2.288  10.282  16.059  0.00  0.00    +0.000 A 
ATOM     11  C   UNL     1       0.374  11.351  20.161  0.00  0.00    +0.000 C 
ATOM     12  N   UNL     1       0.098  12.431  21.114  0.00  0.00    +0.000 N 
ATOM     13  C   UNL     1       0.864  13.559  21.145  0.00  0.00    +0.000 A 
ATOM     14  N   UNL     1       0.428  14.730  21.564  0.00  0.00    +0.000 NA
ATOM     15  C   UNL     1       1.456  15.655  21.628  0.00  0.00    +0.000 A 
ATOM     16  C   UNL     1       1.360  16.979  22.097  0.00  0.00    +0.000 A 
ATOM     17  C   UNL     1       2.501  17.789  22.127  0.00  0.00    +0.000 A 
ATOM     18  C   UNL     1       3.723  17.301  21.679  0.00  0.00    +0.000 A 
ATOM     19 CL   UNL     1       5.114  18.311  21.717  0.00  0.00    +0.000 Cl
ATOM     20  C   UNL     1       3.846  15.995  21.202  0.00  0.00    +0.000 A 
ATOM     21  C   UNL     1       2.695  15.190  21.199  0.00  0.00    +0.000 A 
ATOM     22  S   UNL     1       2.546  13.553  20.730  0.00  0.00    +0.000 S 
ATOM     23  C   UNL     1      -1.271  12.470  21.669  0.00  0.00    +0.000 C 
ATOM     24  C   UNL     1      -2.388  12.475  20.593  0.00  0.00    +0.000 C 
ATOM     25  H   UNL     1       0.156  10.203  17.548  0.00  0.00    +0.000 HD
ENDROOT
TORSDOF 0
ENDMDL
MODEL 5
REMARK VINA RESULT:      -5.9      1.235      1.506
REMARK  Name = 
REMARK  0 active torsions:
REMARK  status: ('A' for Active; 'I' for Inactive)
REMARK                            x       y       z     vdW  Elec       q    Type
REMARK                         _______ _______ _______ _____ _____    ______ ____
ROOT
ATOM      1 CL   UNL     1      -7.769  13.813  20.623  0.00  0.00    +0.000 Cl
ATOM      2  C   UNL     1      -6.144  13.294  20.865  0.00  0.00    +0.000 A 
ATOM      3  C   UNL     1      -5.663  13.131  22.160  0.00  0.00    +0.000 A 
ATOM      4  C   UNL     1      -4.344  12.713  22.381  0.00  0.00    +0.000 A 
ATOM      5  C   UNL     1      -3.505  12.454  21.279  0.00  0.00    +0.000 A 
ATOM      6  C   UNL     1      -2.151  12.043  21.134  0.00  0.00    +0.000 A 
ATOM      7  C   UNL     1      -1.887  11.970  19.782  0.00  0.00    +0.000 A 
ATOM      8  N   UNL     1      -3.012  12.324  19.099  0.00  0.00    +0.000 N 
ATOM      9  C   UNL     1      -4.019  12.627  19.988  0.00  0.00    +0.000 A 
ATOM     10  C   UNL     1      -5.334  13.047  19.750  0.00  0.00    +0.000 A 
ATOM     11  C   UNL     1      -0.576  11.594  19.190  0.00  0.00    +0.000 C 
ATOM     12  N   UNL     1       0.498  11.755  20.174  0.00  0.00    +0.000 N 
ATOM     13  C   UNL     1       1.474  12.693  20.009  0.00  0.00    +0.000 A 
ATOM     14  N   UNL     1       2.140  13.243  21.003  0.00  0.00    +0.000 NA
ATOM     15  C   UNL     1       3.168  14.044  20.537  0.00  0.00    +0.000 A 
ATOM     16  C   UNL     1       4.117  14.726  21.324  0.00  0.00    +0.000 A 
ATOM     17  C   UNL     1       5.120  15.479  20.702  0.00  0.00    +0.000 A 
ATOM     18  C   UNL     1       5.174  15.574  19.317  0.00  0.00    +0.000 A 
ATOM     19 CL   UNL     1       6.409  16.507  18.569  0.00  0.00    +0.000 Cl
ATOM     20  C   UNL     1       4.242  14.914  18.513  0.00  0.00    +0.000 A 
ATOM     21  C   UNL     1       3.255  14.146  19.153  0.00  0.00    +0.000 A 
ATOM     22  S   UNL     1       2.025  13.195  18.444  0.00  0.00    +0.000 S 
ATOM     23  C   UNL     1       0.219  11.233  21.528  0.00  0.00    +0.000 C 
ATOM     24  C   UNL     1      -1.095  11.769  22.153  0.00  0.00    +0.000 C 
ATOM     25  H   UNL     1      -3.100  12.378  18.089  0.00  0.00    +0.000 HD
ENDROOT
TORSDOF 0
ENDMDL
MODEL 6
REMARK VINA RESULT:      -5.9      4.206      6.243
REMARK  Name = 
REMARK  0 active torsions:
REMARK  status: ('A' for Active; 'I' for Inactive)
REMARK                            x       y       z     vdW  Elec       q    Type
REMARK                         _______ _______ _______ _____ _____    ______ ____
ROOT
ATOM      1 CL   UNL     1      -4.171  10.031  14.279  0.00  0.00    +0.000 Cl
ATOM      2  C   UNL     1      -3.318  10.302  15.751  0.00  0.00    +0.000 A 
ATOM      3  C   UNL     1      -3.405   9.366  16.777  0.00  0.00    +0.000 A 
ATOM      4  C   UNL     1      -2.721   9.567  17.982  0.00  0.00    +0.000 A 
ATOM      5  C   UNL     1      -1.938  10.726  18.151  0.00  0.00    +0.000 A 
ATOM      6  C   UNL     1      -1.147  11.247  19.211  0.00  0.00    +0.000 A 
ATOM      7  C   UNL     1      -0.622  12.447  18.780  0.00  0.00    +0.000 A 
ATOM      8  N   UNL     1      -1.061  12.685  17.513  0.00  0.00    +0.000 N 
ATOM      9  C   UNL     1      -1.870  11.649  17.100  0.00  0.00    +0.000 A 
ATOM     10  C   UNL     1      -2.549  11.464  15.889  0.00  0.00    +0.000 A 
ATOM     11  C   UNL     1       0.254  13.334  19.591  0.00  0.00    +0.000 C 
ATOM     12  N   UNL     1       0.120  13.023  21.018  0.00  0.00    +0.000 N 
ATOM     13  C   UNL     1      -0.425  13.919  21.890  0.00  0.00    +0.000 A 
ATOM     14  N   UNL     1      -1.031  13.579  23.009  0.00  0.00    +0.000 NA
ATOM     15  C   UNL     1      -1.351  14.693  23.765  0.00  0.00    +0.000 A 
ATOM     16  C   UNL     1      -1.940  14.692  25.045  0.00  0.00    +0.000 A 
ATOM     17  C   UNL     1      -2.178  15.907  25.700  0.00  0.00    +0.000 A 
ATOM     18  C   UNL     1      -1.855  17.112  25.087  0.00  0.00    +0.000 A 
ATOM     19 CL   UNL     1      -2.159  18.595  25.902  0.00  0.00    +0.000 Cl
ATOM     20  C   UNL     1      -1.276  17.143  23.817  0.00  0.00    +0.000 A 
ATOM     21  C   UNL     1      -1.025  15.914  23.184  0.00  0.00    +0.000 A 
ATOM     22  S   UNL     1      -0.288  15.632  21.668  0.00  0.00    +0.000 S 
ATOM     23  C   UNL     1       0.136  11.588  21.372  0.00  0.00    +0.000 C 
ATOM     24  C   UNL     1      -0.896  10.733  20.591  0.00  0.00    +0.000 C 
ATOM     25  H   UNL     1      -0.847  13.505  16.954  0.00  0.00    +0.000 HD
ENDROOT
TORSDOF 0
ENDMDL
MODEL 7
REMARK VINA RESULT:      -5.9      1.478      8.503
REMARK  Name = 
REMARK  0 active torsions:
REMARK  status: ('A' for Active; 'I' for Inactive)
REMARK                            x       y       z     vdW  Elec       q    Type
REMARK                         _______ _______ _______ _____ _____    ______ ____
ROOT
ATOM      1 CL   UNL     1       5.906  16.768  19.191  0.00  0.00    +0.000 Cl
ATOM      2  C   UNL     1       4.520  15.748  19.102  0.00  0.00    +0.000 A 
ATOM      3  C   UNL     1       3.792  15.684  17.918  0.00  0.00    +0.000 A 
ATOM      4  C   UNL     1       2.660  14.863  17.824  0.00  0.00    +0.000 A 
ATOM      5  C   UNL     1       2.264  14.098  18.939  0.00  0.00    +0.000 A 
ATOM      6  C   UNL     1       1.194  13.198  19.198  0.00  0.00    +0.000 A 
ATOM      7  C   UNL     1       1.329  12.763  20.500  0.00  0.00    +0.000 A 
ATOM      8  N   UNL     1       2.425  13.361  21.046  0.00  0.00    +0.000 N 
ATOM      9  C   UNL     1       3.018  14.185  20.116  0.00  0.00    +0.000 A 
ATOM     10  C   UNL     1       4.150  15.001  20.227  0.00  0.00    +0.000 A 
ATOM     11  C   UNL     1       0.405  11.820  21.183  0.00  0.00    +0.000 C 
ATOM     12  N   UNL     1      -0.885  11.769  20.488  0.00  0.00    +0.000 N 
ATOM     13  C   UNL     1      -2.025  12.229  21.078  0.00  0.00    +0.000 A 
ATOM     14  N   UNL     1      -3.065  12.684  20.410  0.00  0.00    +0.000 NA
ATOM     15  C   UNL     1      -4.132  12.939  21.254  0.00  0.00    +0.000 A 
ATOM     16  C   UNL     1      -5.417  13.367  20.869  0.00  0.00    +0.000 A 
ATOM     17  C   UNL     1      -6.406  13.557  21.842  0.00  0.00    +0.000 A 
ATOM     18  C   UNL     1      -6.121  13.345  23.185  0.00  0.00    +0.000 A 
ATOM     19 CL   UNL     1      -7.344  13.588  24.369  0.00  0.00    +0.000 Cl
ATOM     20  C   UNL     1      -4.854  12.927  23.596  0.00  0.00    +0.000 A 
ATOM     21  C   UNL     1      -3.880  12.721  22.604  0.00  0.00    +0.000 A 
ATOM     22  S   UNL     1      -2.275  12.167  22.791  0.00  0.00    +0.000 S 
ATOM     23  C   UNL     1      -0.822  11.670  19.015  0.00  0.00    +0.000 C 
ATOM     24  C   UNL     1       0.047  12.765  18.344  0.00  0.00    +0.000 C 
ATOM     25  H   UNL     1       2.754  13.239  21.999  0.00  0.00    +0.000 HD
ENDROOT
TORSDOF 0
ENDMDL
MODEL 8
REMARK VINA RESULT:      -5.8      4.996      7.750
REMARK  Name = 
REMARK  0 active torsions:
REMARK  status: ('A' for Active; 'I' for Inactive)
REMARK                            x       y       z     vdW  Elec       q    Type
REMARK                         _______ _______ _______ _____ _____    ______ ____
ROOT
ATOM      1 CL   UNL     1       5.683   4.280  18.956  0.00  0.00    +0.000 Cl
ATOM      2  C   UNL     1       4.504   5.518  18.740  0.00  0.00    +0.000 A 
ATOM      3  C   UNL     1       4.363   6.120  17.494  0.00  0.00    +0.000 A 
ATOM      4  C   UNL     1       3.412   7.130  17.296  0.00  0.00    +0.000 A 
ATOM      5  C   UNL     1       2.594   7.532  18.371  0.00  0.00    +0.000 A 
ATOM      6  C   UNL     1       1.568   8.504  18.531  0.00  0.00    +0.000 A 
ATOM      7  C   UNL     1       1.141   8.438  19.840  0.00  0.00    +0.000 A 
ATOM      8  N   UNL     1       1.862   7.478  20.486  0.00  0.00    +0.000 N 
ATOM      9  C   UNL     1       2.761   6.907  19.613  0.00  0.00    +0.000 A 
ATOM     10  C   UNL     1       3.707   5.897  19.827  0.00  0.00    +0.000 A 
ATOM     11  C   UNL     1       0.086   9.300  20.437  0.00  0.00    +0.000 C 
ATOM     12  N   UNL     1      -0.114  10.504  19.624  0.00  0.00    +0.000 N 
ATOM     13  C   UNL     1       0.198  11.741  20.105  0.00  0.00    +0.000 A 
ATOM     14  N   UNL     1       0.530  12.763  19.342  0.00  0.00    +0.000 NA
ATOM     15  C   UNL     1       0.646  13.926  20.083  0.00  0.00    +0.000 A 
ATOM     16  C   UNL     1       0.919  15.213  19.578  0.00  0.00    +0.000 A 
ATOM     17  C   UNL     1       0.978  16.303  20.455  0.00  0.00    +0.000 A 
ATOM     18  C   UNL     1       0.790  16.120  21.820  0.00  0.00    +0.000 A 
ATOM     19 CL   UNL     1       0.872  17.468  22.884  0.00  0.00    +0.000 Cl
ATOM     20  C   UNL     1       0.525  14.855  22.348  0.00  0.00    +0.000 A 
ATOM     21  C   UNL     1       0.448  13.776  21.451  0.00  0.00    +0.000 A 
ATOM     22  S   UNL     1       0.091  12.139  21.788  0.00  0.00    +0.000 S 
ATOM     23  C   UNL     1      -0.191  10.293  18.164  0.00  0.00    +0.000 C 
ATOM     24  C   UNL     1       1.008   9.505  17.575  0.00  0.00    +0.000 C 
ATOM     25  H   UNL     1       1.772   7.227  21.465  0.00  0.00    +0.000 HD
ENDROOT
TORSDOF 0
ENDMDL
MODEL 9
REMARK VINA RESULT:      -5.8      3.976      9.619
REMARK  Name = 
REMARK  0 active torsions:
REMARK  status: ('A' for Active; 'I' for Inactive)
REMARK                            x       y       z     vdW  Elec       q    Type
REMARK                         _______ _______ _______ _____ _____    ______ ____
ROOT
ATOM      1 CL   UNL     1      10.904  15.953  17.529  0.00  0.00    +0.000 Cl
ATOM      2  C   UNL     1       9.486  15.666  18.466  0.00  0.00    +0.000 A 
ATOM      3  C   UNL     1       9.582  14.938  19.648  0.00  0.00    +0.000 A 
ATOM      4  C   UNL     1       8.443  14.691  20.425  0.00  0.00    +0.000 A 
ATOM      5  C   UNL     1       7.194  15.188  20.001  0.00  0.00    +0.000 A 
ATOM      6  C   UNL     1       5.869  15.118  20.514  0.00  0.00    +0.000 A 
ATOM      7  C   UNL     1       5.053  15.801  19.638  0.00  0.00    +0.000 A 
ATOM      8  N   UNL     1       5.815  16.277  18.614  0.00  0.00    +0.000 N 
ATOM      9  C   UNL     1       7.131  15.917  18.807  0.00  0.00    +0.000 A 
ATOM     10  C   UNL     1       8.260  16.172  18.019  0.00  0.00    +0.000 A 
ATOM     11  C   UNL     1       3.582  15.956  19.788  0.00  0.00    +0.000 C 
ATOM     12  N   UNL     1       3.048  14.938  20.699  0.00  0.00    +0.000 N 
ATOM     13  C   UNL     1       2.204  13.964  20.254  0.00  0.00    +0.000 A 
ATOM     14  N   UNL     1       2.085  12.781  20.820  0.00  0.00    +0.000 NA
ATOM     15  C   UNL     1       1.052  12.054  20.254  0.00  0.00    +0.000 A 
ATOM     16  C   UNL     1       0.605  10.782  20.661  0.00  0.00    +0.000 A 
ATOM     17  C   UNL     1      -0.477  10.184  20.004  0.00  0.00    +0.000 A 
ATOM     18  C   UNL     1      -1.099  10.829  18.942  0.00  0.00    +0.000 A 
ATOM     19 CL   UNL     1      -2.423  10.078  18.142  0.00  0.00    +0.000 Cl
ATOM     20  C   UNL     1      -0.673  12.087  18.513  0.00  0.00    +0.000 A 
ATOM     21  C   UNL     1       0.401  12.681  19.197  0.00  0.00    +0.000 A 
ATOM     22  S   UNL     1       1.103  14.218  18.940  0.00  0.00    +0.000 S 
ATOM     23  C   UNL     1       3.813  14.719  21.944  0.00  0.00    +0.000 C 
ATOM     24  C   UNL     1       5.319  14.424  21.717  0.00  0.00    +0.000 C 
ATOM     25  H   UNL     1       5.475  16.803  17.815  0.00  0.00    +0.000 HD
ENDROOT
TORSDOF 0
ENDMDL
