MODEL 1
REMARK VINA RESULT:      -8.7      0.000      0.000
REMARK  Name = 
REMARK  6 active torsions:
REMARK  status: ('A' for Active; 'I' for Inactive)
REMARK    1  A    between atoms: C_1  and  O_2
REMARK    2  A    between atoms: O_2  and  C_3
REMARK    3  A    between atoms: C_6  and  C_7
REMARK    4  A    between atoms: C_7  and  N_8
REMARK    5  A    between atoms: C_17  and  C_19
REMARK    6  A    between atoms: N_21  and  C_22
REMARK                            x       y       z     vdW  Elec       q    Type
REMARK                         _______ _______ _______ _____ _____    ______ ____
ROOT
ATOM      1  N   UNL     1       1.547   4.897  19.157  0.00  0.00    +0.000 NA
ATOM      2  C   UNL     1       2.095   4.508  17.820  0.00  0.00    +0.000 C 
ATOM      3  C   UNL     1       3.304   3.489  17.737  0.00  0.00    +0.000 C 
ATOM      4  C   UNL     1       2.978   2.008  17.791  0.00  0.00    +0.000 C 
ATOM      5  C   UNL     1       2.521   1.530  19.174  0.00  0.00    +0.000 C 
ATOM      6  C   UNL     1       2.474   2.696  20.180  0.00  0.00    +0.000 C 
ATOM      7  C   UNL     1       1.305   3.680  19.927  0.00  0.00    +0.000 C 
ATOM      8  C   UNL     1       3.864   3.363  20.163  0.00  0.00    +0.000 C 
ATOM      9  N   UNL     1       4.285   3.761  18.801  0.00  0.00    +0.000 N 
ATOM     10  C   UNL     1       5.350   4.655  18.609  0.00  0.00    +0.000 C 
ATOM     11  O   UNL     1       5.844   5.269  19.555  0.00  0.00    +0.000 OA
ENDROOT
BRANCH  10  12
ATOM     12  C   UNL     1       5.870   4.852  17.232  0.00  0.00    +0.000 A 
ATOM     13  N   UNL     1       5.497   4.053  16.205  0.00  0.00    +0.000 NA
ATOM     14  N   UNL     1       6.259   4.454  15.171  0.00  0.00    +0.000 N 
ATOM     15  C   UNL     1       6.207   3.737  13.919  0.00  0.00    +0.000 C 
ATOM     16  C   UNL     1       7.057   5.518  15.460  0.00  0.00    +0.000 A 
ATOM     17  C   UNL     1       6.839   5.794  16.790  0.00  0.00    +0.000 A 
ATOM     18 CL   UNL     1       7.583   7.025  17.689  0.00  0.00    +0.000 Cl
ENDBRANCH  10  12
BRANCH   1  19
ATOM     19  C   UNL     1       2.333   6.020  19.748  0.00  0.00    +0.000 C 
BRANCH  19  23
ATOM     20  C   UNL     1       1.128  10.205  19.160  0.00  0.00    +0.000 A 
ATOM     21  C   UNL     1       0.965   9.631  20.415  0.00  0.00    +0.000 A 
ATOM     22  C   UNL     1       1.385   8.292  20.679  0.00  0.00    +0.000 A 
ATOM     23  C   UNL     1       1.997   7.519  19.691  0.00  0.00    +0.000 A 
ATOM     24  C   UNL     1       2.180   8.154  18.427  0.00  0.00    +0.000 A 
ATOM     25  C   UNL     1       1.776   9.468  18.165  0.00  0.00    +0.000 A 
BRANCH  20  27
ATOM     26  C   UNL     1       0.725  12.471  19.789  0.00  0.00    +0.000 C 
ATOM     27  O   UNL     1       0.737  11.457  18.783  0.00  0.00    +0.000 OA
ENDBRANCH  20  27
ENDBRANCH  19  23
ENDBRANCH   1  19
TORSDOF 4
ENDMDL
MODEL 2
REMARK VINA RESULT:      -8.1      2.345      4.668
REMARK  Name = 
REMARK  6 active torsions:
REMARK  status: ('A' for Active; 'I' for Inactive)
REMARK    1  A    between atoms: C_1  and  O_2
REMARK    2  A    between atoms: O_2  and  C_3
REMARK    3  A    between atoms: C_6  and  C_7
REMARK    4  A    between atoms: C_7  and  N_8
REMARK    5  A    between atoms: C_17  and  C_19
REMARK    6  A    between atoms: N_21  and  C_22
REMARK                            x       y       z     vdW  Elec       q    Type
REMARK                         _______ _______ _______ _____ _____    ______ ____
ROOT
ATOM      1  N   UNL     1       4.925   7.031  17.382  0.00  0.00    +0.000 NA
ATOM      2  C   UNL     1       5.522   6.177  18.455  0.00  0.00    +0.000 C 
ATOM      3  C   UNL     1       5.803   4.646  18.170  0.00  0.00    +0.000 C 
ATOM      4  C   UNL     1       7.101   4.289  17.466  0.00  0.00    +0.000 C 
ATOM      5  C   UNL     1       7.126   4.687  15.986  0.00  0.00    +0.000 C 
ATOM      6  C   UNL     1       5.818   5.392  15.576  0.00  0.00    +0.000 C 
ATOM      7  C   UNL     1       5.683   6.823  16.151  0.00  0.00    +0.000 C 
ATOM      8  C   UNL     1       4.659   4.452  15.963  0.00  0.00    +0.000 C 
ATOM      9  N   UNL     1       4.705   4.054  17.388  0.00  0.00    +0.000 N 
ATOM     10  C   UNL     1       3.587   3.476  18.010  0.00  0.00    +0.000 C 
ATOM     11  O   UNL     1       2.490   3.449  17.451  0.00  0.00    +0.000 OA
ENDROOT
BRANCH  10  12
ATOM     12  C   UNL     1       3.752   2.900  19.369  0.00  0.00    +0.000 A 
ATOM     13  N   UNL     1       4.834   2.161  19.707  0.00  0.00    +0.000 NA
ATOM     14  N   UNL     1       4.567   1.718  20.949  0.00  0.00    +0.000 N 
ATOM     15  C   UNL     1       5.470   0.793  21.592  0.00  0.00    +0.000 C 
ATOM     16  C   UNL     1       3.396   2.188  21.458  0.00  0.00    +0.000 A 
ATOM     17  C   UNL     1       2.836   2.949  20.456  0.00  0.00    +0.000 A 
ATOM     18 CL   UNL     1       1.356   3.773  20.537  0.00  0.00    +0.000 Cl
ENDBRANCH  10  12
BRANCH   1  19
ATOM     19  C   UNL     1       3.435   6.917  17.378  0.00  0.00    +0.000 C 
BRANCH  19  23
ATOM     20  C   UNL     1       0.936   9.274  20.119  0.00  0.00    +0.000 A 
ATOM     21  C   UNL     1       1.051   9.684  18.797  0.00  0.00    +0.000 A 
ATOM     22  C   UNL     1       1.807   8.930  17.848  0.00  0.00    +0.000 A 
ATOM     23  C   UNL     1       2.440   7.740  18.211  0.00  0.00    +0.000 A 
ATOM     24  C   UNL     1       2.270   7.333  19.567  0.00  0.00    +0.000 A 
ATOM     25  C   UNL     1       1.525   8.064  20.499  0.00  0.00    +0.000 A 
BRANCH  20  27
ATOM     26  C   UNL     1       0.117   9.238  22.359  0.00  0.00    +0.000 C 
ATOM     27  O   UNL     1       0.272   9.926  21.118  0.00  0.00    +0.000 OA
ENDBRANCH  20  27
ENDBRANCH  19  23
ENDBRANCH   1  19
TORSDOF 4
ENDMDL
MODEL 3
REMARK VINA RESULT:      -8.1      0.892      1.319
REMARK  Name = 
REMARK  6 active torsions:
REMARK  status: ('A' for Active; 'I' for Inactive)
REMARK    1  A    between atoms: C_1  and  O_2
REMARK    2  A    between atoms: O_2  and  C_3
REMARK    3  A    between atoms: C_6  and  C_7
REMARK    4  A    between atoms: C_7  and  N_8
REMARK    5  A    between atoms: C_17  and  C_19
REMARK    6  A    between atoms: N_21  and  C_22
REMARK                            x       y       z     vdW  Elec       q    Type
REMARK                         _______ _______ _______ _____ _____    ______ ____
ROOT
ATOM      1  N   UNL     1       1.394   5.082  19.083  0.00  0.00    +0.000 NA
ATOM      2  C   UNL     1       1.985   4.650  17.779  0.00  0.00    +0.000 C 
ATOM      3  C   UNL     1       3.178   3.610  17.766  0.00  0.00    +0.000 C 
ATOM      4  C   UNL     1       2.825   2.136  17.845  0.00  0.00    +0.000 C 
ATOM      5  C   UNL     1       2.309   1.701  19.221  0.00  0.00    +0.000 C 
ATOM      6  C   UNL     1       2.245   2.894  20.195  0.00  0.00    +0.000 C 
ATOM      7  C   UNL     1       1.103   3.890  19.874  0.00  0.00    +0.000 C 
ATOM      8  C   UNL     1       3.646   3.537  20.213  0.00  0.00    +0.000 C 
ATOM      9  N   UNL     1       4.123   3.893  18.859  0.00  0.00    +0.000 N 
ATOM     10  C   UNL     1       5.210   4.764  18.684  0.00  0.00    +0.000 C 
ATOM     11  O   UNL     1       5.679   5.395  19.632  0.00  0.00    +0.000 OA
ENDROOT
BRANCH  10  12
ATOM     12  C   UNL     1       5.784   4.918  17.323  0.00  0.00    +0.000 A 
ATOM     13  N   UNL     1       5.407   4.124  16.294  0.00  0.00    +0.000 NA
ATOM     14  N   UNL     1       6.221   4.474  15.282  0.00  0.00    +0.000 N 
ATOM     15  C   UNL     1       6.176   3.743  14.037  0.00  0.00    +0.000 C 
ATOM     16  C   UNL     1       7.060   5.501  15.584  0.00  0.00    +0.000 A 
ATOM     17  C   UNL     1       6.811   5.807  16.903  0.00  0.00    +0.000 A 
ATOM     18 CL   UNL     1       7.584   7.012  17.811  0.00  0.00    +0.000 Cl
ENDBRANCH  10  12
BRANCH   1  19
ATOM     19  C   UNL     1       2.178   6.207  19.676  0.00  0.00    +0.000 C 
BRANCH  19  23
ATOM     20  C   UNL     1       1.042  10.231  21.030  0.00  0.00    +0.000 A 
ATOM     21  C   UNL     1       1.249  10.015  19.673  0.00  0.00    +0.000 A 
ATOM     22  C   UNL     1       1.570   8.717  19.169  0.00  0.00    +0.000 A 
ATOM     23  C   UNL     1       1.664   7.615  20.020  0.00  0.00    +0.000 A 
ATOM     24  C   UNL     1       1.409   7.869  21.399  0.00  0.00    +0.000 A 
ATOM     25  C   UNL     1       1.088   9.137  21.898  0.00  0.00    +0.000 A 
BRANCH  20  27
ATOM     26  C   UNL     1      -0.598  11.694  21.957  0.00  0.00    +0.000 C 
ATOM     27  O   UNL     1       0.766  11.426  21.629  0.00  0.00    +0.000 OA
ENDBRANCH  20  27
ENDBRANCH  19  23
ENDBRANCH   1  19
TORSDOF 4
ENDMDL
MODEL 4
REMARK VINA RESULT:      -8.1      1.295      1.647
REMARK  Name = 
REMARK  6 active torsions:
REMARK  status: ('A' for Active; 'I' for Inactive)
REMARK    1  A    between atoms: C_1  and  O_2
REMARK    2  A    between atoms: O_2  and  C_3
REMARK    3  A    between atoms: C_6  and  C_7
REMARK    4  A    between atoms: C_7  and  N_8
REMARK    5  A    between atoms: C_17  and  C_19
REMARK    6  A    between atoms: N_21  and  C_22
REMARK                            x       y       z     vdW  Elec       q    Type
REMARK                         _______ _______ _______ _____ _____    ______ ____
ROOT
ATOM      1  N   UNL     1       1.098   4.900  19.724  0.00  0.00    +0.000 NA
ATOM      2  C   UNL     1       1.504   4.639  18.309  0.00  0.00    +0.000 C 
ATOM      3  C   UNL     1       2.736   3.691  18.011  0.00  0.00    +0.000 C 
ATOM      4  C   UNL     1       2.479   2.194  17.984  0.00  0.00    +0.000 C 
ATOM      5  C   UNL     1       2.206   1.594  19.368  0.00  0.00    +0.000 C 
ATOM      6  C   UNL     1       2.227   2.680  20.461  0.00  0.00    +0.000 C 
ATOM      7  C   UNL     1       0.997   3.620  20.419  0.00  0.00    +0.000 C 
ATOM      8  C   UNL     1       3.577   3.415  20.340  0.00  0.00    +0.000 C 
ATOM      9  N   UNL     1       3.821   3.932  18.976  0.00  0.00    +0.000 N 
ATOM     10  C   UNL     1       4.819   4.890  18.736  0.00  0.00    +0.000 C 
ATOM     11  O   UNL     1       5.393   5.457  19.666  0.00  0.00    +0.000 OA
ENDROOT
BRANCH  10  12
ATOM     12  C   UNL     1       5.167   5.213  17.329  0.00  0.00    +0.000 A 
ATOM     13  N   UNL     1       5.974   4.417  16.590  0.00  0.00    +0.000 NA
ATOM     14  N   UNL     1       6.155   5.093  15.441  0.00  0.00    +0.000 N 
ATOM     15  C   UNL     1       7.067   4.584  14.443  0.00  0.00    +0.000 C 
ATOM     16  C   UNL     1       5.451   6.255  15.372  0.00  0.00    +0.000 A 
ATOM     17  C   UNL     1       4.808   6.370  16.584  0.00  0.00    +0.000 A 
ATOM     18 CL   UNL     1       3.790   7.642  17.057  0.00  0.00    +0.000 Cl
ENDBRANCH  10  12
BRANCH   1  19
ATOM     19  C   UNL     1       1.901   6.015  20.311  0.00  0.00    +0.000 C 
BRANCH  19  23
ATOM     20  C   UNL     1       1.019  10.253  21.072  0.00  0.00    +0.000 A 
ATOM     21  C   UNL     1       1.285   9.847  19.770  0.00  0.00    +0.000 A 
ATOM     22  C   UNL     1       1.527   8.475  19.455  0.00  0.00    +0.000 A 
ATOM     23  C   UNL     1       1.484   7.489  20.441  0.00  0.00    +0.000 A 
ATOM     24  C   UNL     1       1.173   7.938  21.758  0.00  0.00    +0.000 A 
ATOM     25  C   UNL     1       0.928   9.280  22.072  0.00  0.00    +0.000 A 
BRANCH  20  27
ATOM     26  C   UNL     1       1.191  12.587  20.615  0.00  0.00    +0.000 C 
ATOM     27  O   UNL     1       0.807  11.533  21.498  0.00  0.00    +0.000 OA
ENDBRANCH  20  27
ENDBRANCH  19  23
ENDBRANCH   1  19
TORSDOF 4
ENDMDL
MODEL 5
REMARK VINA RESULT:      -7.8      2.324      4.541
REMARK  Name = 
REMARK  6 active torsions:
REMARK  status: ('A' for Active; 'I' for Inactive)
REMARK    1  A    between atoms: C_1  and  O_2
REMARK    2  A    between atoms: O_2  and  C_3
REMARK    3  A    between atoms: C_6  and  C_7
REMARK    4  A    between atoms: C_7  and  N_8
REMARK    5  A    between atoms: C_17  and  C_19
REMARK    6  A    between atoms: N_21  and  C_22
REMARK                            x       y       z     vdW  Elec       q    Type
REMARK                         _______ _______ _______ _____ _____    ______ ____
ROOT
ATOM      1  N   UNL     1       5.013   7.085  17.343  0.00  0.00    +0.000 NA
ATOM      2  C   UNL     1       5.602   6.184  18.382  0.00  0.00    +0.000 C 
ATOM      3  C   UNL     1       5.770   4.641  18.075  0.00  0.00    +0.000 C 
ATOM      4  C   UNL     1       7.008   4.208  17.310  0.00  0.00    +0.000 C 
ATOM      5  C   UNL     1       6.992   4.618  15.834  0.00  0.00    +0.000 C 
ATOM      6  C   UNL     1       5.716   5.409  15.488  0.00  0.00    +0.000 C 
ATOM      7  C   UNL     1       5.700   6.841  16.078  0.00  0.00    +0.000 C 
ATOM      8  C   UNL     1       4.517   4.542  15.922  0.00  0.00    +0.000 C 
ATOM      9  N   UNL     1       4.601   4.128  17.340  0.00  0.00    +0.000 N 
ATOM     10  C   UNL     1       3.477   3.618  18.009  0.00  0.00    +0.000 C 
ATOM     11  O   UNL     1       2.357   3.667  17.501  0.00  0.00    +0.000 OA
ENDROOT
BRANCH  10  12
ATOM     12  C   UNL     1       3.666   3.020  19.355  0.00  0.00    +0.000 A 
ATOM     13  N   UNL     1       4.751   2.271  19.660  0.00  0.00    +0.000 NA
ATOM     14  N   UNL     1       4.505   1.809  20.900  0.00  0.00    +0.000 N 
ATOM     15  C   UNL     1       5.416   0.870  21.511  0.00  0.00    +0.000 C 
ATOM     16  C   UNL     1       3.347   2.277  21.439  0.00  0.00    +0.000 A 
ATOM     17  C   UNL     1       2.771   3.055  20.460  0.00  0.00    +0.000 A 
ATOM     18 CL   UNL     1       1.298   3.886  20.584  0.00  0.00    +0.000 Cl
ENDBRANCH  10  12
BRANCH   1  19
ATOM     19  C   UNL     1       3.521   7.068  17.407  0.00  0.00    +0.000 C 
BRANCH  19  23
ATOM     20  C   UNL     1       0.620   9.362  19.781  0.00  0.00    +0.000 A 
ATOM     21  C   UNL     1       1.248   8.269  20.365  0.00  0.00    +0.000 A 
ATOM     22  C   UNL     1       2.237   7.517  19.660  0.00  0.00    +0.000 A 
ATOM     23  C   UNL     1       2.624   7.867  18.366  0.00  0.00    +0.000 A 
ATOM     24  C   UNL     1       1.984   9.016  17.814  0.00  0.00    +0.000 A 
ATOM     25  C   UNL     1       1.020   9.761  18.502  0.00  0.00    +0.000 A 
BRANCH  20  27
ATOM     26  C   UNL     1      -1.051  11.038  19.481  0.00  0.00    +0.000 C 
ATOM     27  O   UNL     1      -0.358  10.132  20.341  0.00  0.00    +0.000 OA
ENDBRANCH  20  27
ENDBRANCH  19  23
ENDBRANCH   1  19
TORSDOF 4
ENDMDL
MODEL 6
REMARK VINA RESULT:      -7.6      0.890      1.281
REMARK  Name = 
REMARK  6 active torsions:
REMARK  status: ('A' for Active; 'I' for Inactive)
REMARK    1  A    between atoms: C_1  and  O_2
REMARK    2  A    between atoms: O_2  and  C_3
REMARK    3  A    between atoms: C_6  and  C_7
REMARK    4  A    between atoms: C_7  and  N_8
REMARK    5  A    between atoms: C_17  and  C_19
REMARK    6  A    between atoms: N_21  and  C_22
REMARK                            x       y       z     vdW  Elec       q    Type
REMARK                         _______ _______ _______ _____ _____    ______ ____
ROOT
ATOM      1  N   UNL     1       1.289   5.052  19.022  0.00  0.00    +0.000 NA
ATOM      2  C   UNL     1       1.909   4.430  17.811  0.00  0.00    +0.000 C 
ATOM      3  C   UNL     1       3.096   3.397  17.982  0.00  0.00    +0.000 C 
ATOM      4  C   UNL     1       2.731   1.952  18.269  0.00  0.00    +0.000 C 
ATOM      5  C   UNL     1       2.180   1.726  19.681  0.00  0.00    +0.000 C 
ATOM      6  C   UNL     1       2.099   3.050  20.466  0.00  0.00    +0.000 C 
ATOM      7  C   UNL     1       0.971   3.990  19.973  0.00  0.00    +0.000 C 
ATOM      8  C   UNL     1       3.503   3.685  20.424  0.00  0.00    +0.000 C 
ATOM      9  N   UNL     1       4.016   3.836  19.044  0.00  0.00    +0.000 N 
ATOM     10  C   UNL     1       5.112   4.669  18.771  0.00  0.00    +0.000 C 
ATOM     11  O   UNL     1       5.561   5.431  19.627  0.00  0.00    +0.000 OA
ENDROOT
BRANCH  10  12
ATOM     12  C   UNL     1       5.719   4.619  17.417  0.00  0.00    +0.000 A 
ATOM     13  N   UNL     1       4.965   4.631  16.293  0.00  0.00    +0.000 NA
ATOM     14  N   UNL     1       5.846   4.446  15.293  0.00  0.00    +0.000 N 
ATOM     15  C   UNL     1       5.373   4.292  13.937  0.00  0.00    +0.000 C 
ATOM     16  C   UNL     1       7.140   4.382  15.708  0.00  0.00    +0.000 A 
ATOM     17  C   UNL     1       7.094   4.479  17.080  0.00  0.00    +0.000 A 
ATOM     18 CL   UNL     1       8.427   4.448  18.128  0.00  0.00    +0.000 Cl
ENDBRANCH  10  12
BRANCH   1  19
ATOM     19  C   UNL     1       2.065   6.250  19.462  0.00  0.00    +0.000 C 
BRANCH  19  23
ATOM     20  C   UNL     1       1.427  10.569  18.957  0.00  0.00    +0.000 A 
ATOM     21  C   UNL     1       1.908   9.833  17.881  0.00  0.00    +0.000 A 
ATOM     22  C   UNL     1       2.087   8.418  17.970  0.00  0.00    +0.000 A 
ATOM     23  C   UNL     1       1.762   7.721  19.135  0.00  0.00    +0.000 A 
ATOM     24  C   UNL     1       1.237   8.506  20.204  0.00  0.00    +0.000 A 
ATOM     25  C   UNL     1       1.054   9.890  20.120  0.00  0.00    +0.000 A 
BRANCH  20  27
ATOM     26  C   UNL     1       2.340  12.740  18.576  0.00  0.00    +0.000 C 
ATOM     27  O   UNL     1       1.249  11.922  19.000  0.00  0.00    +0.000 OA
ENDBRANCH  20  27
ENDBRANCH  19  23
ENDBRANCH   1  19
TORSDOF 4
ENDMDL
MODEL 7
REMARK VINA RESULT:      -7.3      5.428     10.474
REMARK  Name = 
REMARK  6 active torsions:
REMARK  status: ('A' for Active; 'I' for Inactive)
REMARK    1  A    between atoms: C_1  and  O_2
REMARK    2  A    between atoms: O_2  and  C_3
REMARK    3  A    between atoms: C_6  and  C_7
REMARK    4  A    between atoms: C_7  and  N_8
REMARK    5  A    between atoms: C_17  and  C_19
REMARK    6  A    between atoms: N_21  and  C_22
REMARK                            x       y       z     vdW  Elec       q    Type
REMARK                         _______ _______ _______ _____ _____    ______ ____
ROOT
ATOM      1  N   UNL     1      -0.051  12.263  18.568  0.00  0.00    +0.000 NA
ATOM      2  C   UNL     1      -1.050  13.230  19.120  0.00  0.00    +0.000 C 
ATOM      3  C   UNL     1      -0.711  14.037  20.439  0.00  0.00    +0.000 C 
ATOM      4  C   UNL     1       0.111  15.305  20.294  0.00  0.00    +0.000 C 
ATOM      5  C   UNL     1       1.579  15.048  19.938  0.00  0.00    +0.000 C 
ATOM      6  C   UNL     1       1.859  13.540  19.780  0.00  0.00    +0.000 C 
ATOM      7  C   UNL     1       1.245  12.931  18.496  0.00  0.00    +0.000 C 
ATOM      8  C   UNL     1       1.388  12.857  21.080  0.00  0.00    +0.000 C 
ATOM      9  N   UNL     1      -0.018  13.176  21.411  0.00  0.00    +0.000 N 
ATOM     10  C   UNL     1      -0.726  12.415  22.356  0.00  0.00    +0.000 C 
ATOM     11  O   UNL     1      -0.266  11.363  22.800  0.00  0.00    +0.000 OA
ENDROOT
BRANCH  10  12
ATOM     12  C   UNL     1      -2.053  12.905  22.808  0.00  0.00    +0.000 A 
ATOM     13  N   UNL     1      -3.208  12.393  22.322  0.00  0.00    +0.000 NA
ATOM     14  N   UNL     1      -4.172  13.162  22.861  0.00  0.00    +0.000 N 
ATOM     15  C   UNL     1      -5.548  12.970  22.469  0.00  0.00    +0.000 C 
ATOM     16  C   UNL     1      -3.702  14.102  23.725  0.00  0.00    +0.000 A 
ATOM     17  C   UNL     1      -2.332  13.972  23.705  0.00  0.00    +0.000 A 
ATOM     18 CL   UNL     1      -1.228  14.903  24.594  0.00  0.00    +0.000 Cl
ENDBRANCH  10  12
BRANCH   1  19
ATOM     19  C   UNL     1      -0.177  10.931  19.232  0.00  0.00    +0.000 C 
BRANCH  19  23
ATOM     20  C   UNL     1       2.340   7.329  19.295  0.00  0.00    +0.000 A 
ATOM     21  C   UNL     1       2.229   8.049  18.111  0.00  0.00    +0.000 A 
ATOM     22  C   UNL     1       1.467   9.255  18.044  0.00  0.00    +0.000 A 
ATOM     23  C   UNL     1       0.824   9.767  19.172  0.00  0.00    +0.000 A 
ATOM     24  C   UNL     1       0.991   9.021  20.376  0.00  0.00    +0.000 A 
ATOM     25  C   UNL     1       1.742   7.842  20.449  0.00  0.00    +0.000 A 
BRANCH  20  27
ATOM     26  C   UNL     1       2.383   5.160  20.284  0.00  0.00    +0.000 C 
ATOM     27  O   UNL     1       3.009   6.152  19.470  0.00  0.00    +0.000 OA
ENDBRANCH  20  27
ENDBRANCH  19  23
ENDBRANCH   1  19
TORSDOF 4
ENDMDL
MODEL 8
REMARK VINA RESULT:      -7.3      2.573      6.720
REMARK  Name = 
REMARK  6 active torsions:
REMARK  status: ('A' for Active; 'I' for Inactive)
REMARK    1  A    between atoms: C_1  and  O_2
REMARK    2  A    between atoms: O_2  and  C_3
REMARK    3  A    between atoms: C_6  and  C_7
REMARK    4  A    between atoms: C_7  and  N_8
REMARK    5  A    between atoms: C_17  and  C_19
REMARK    6  A    between atoms: N_21  and  C_22
REMARK                            x       y       z     vdW  Elec       q    Type
REMARK                         _______ _______ _______ _____ _____    ______ ____
ROOT
ATOM      1  N   UNL     1       4.249   4.044  19.685  0.00  0.00    +0.000 NA
ATOM      2  C   UNL     1       3.351   4.758  20.646  0.00  0.00    +0.000 C 
ATOM      3  C   UNL     1       1.892   5.170  20.194  0.00  0.00    +0.000 C 
ATOM      4  C   UNL     1       0.802   4.118  20.296  0.00  0.00    +0.000 C 
ATOM      5  C   UNL     1       0.931   2.999  19.257  0.00  0.00    +0.000 C 
ATOM      6  C   UNL     1       2.174   3.202  18.369  0.00  0.00    +0.000 C 
ATOM      7  C   UNL     1       3.508   2.927  19.106  0.00  0.00    +0.000 C 
ATOM      8  C   UNL     1       2.072   4.619  17.770  0.00  0.00    +0.000 C 
ATOM      9  N   UNL     1       1.898   5.661  18.806  0.00  0.00    +0.000 N 
ATOM     10  C   UNL     1       2.105   7.017  18.506  0.00  0.00    +0.000 C 
ATOM     11  O   UNL     1       2.607   7.362  17.436  0.00  0.00    +0.000 OA
ENDROOT
BRANCH  10  12
ATOM     12  C   UNL     1       1.709   8.033  19.513  0.00  0.00    +0.000 A 
ATOM     13  N   UNL     1       1.947   7.862  20.835  0.00  0.00    +0.000 NA
ATOM     14  N   UNL     1       1.343   8.909  21.425  0.00  0.00    +0.000 N 
ATOM     15  C   UNL     1       1.297   8.994  22.866  0.00  0.00    +0.000 C 
ATOM     16  C   UNL     1       0.785   9.786  20.547  0.00  0.00    +0.000 A 
ATOM     17  C   UNL     1       0.994   9.244  19.299  0.00  0.00    +0.000 A 
ATOM     18 CL   UNL     1       0.496   9.914  17.823  0.00  0.00    +0.000 Cl
ENDBRANCH  10  12
BRANCH   1  19
ATOM     19  C   UNL     1       4.963   5.015  18.802  0.00  0.00    +0.000 C 
BRANCH  19  23
ATOM     20  C   UNL     1       6.680   4.475  14.793  0.00  0.00    +0.000 A 
ATOM     21  C   UNL     1       7.538   4.653  15.871  0.00  0.00    +0.000 A 
ATOM     22  C   UNL     1       7.040   4.782  17.204  0.00  0.00    +0.000 A 
ATOM     23  C   UNL     1       5.672   4.711  17.473  0.00  0.00    +0.000 A 
ATOM     24  C   UNL     1       4.826   4.492  16.347  0.00  0.00    +0.000 A 
ATOM     25  C   UNL     1       5.309   4.358  15.040  0.00  0.00    +0.000 A 
BRANCH  20  27
ATOM     26  C   UNL     1       6.222   3.552  12.642  0.00  0.00    +0.000 C 
ATOM     27  O   UNL     1       7.036   4.374  13.479  0.00  0.00    +0.000 OA
ENDBRANCH  20  27
ENDBRANCH  19  23
ENDBRANCH   1  19
TORSDOF 4
ENDMDL
MODEL 9
REMARK VINA RESULT:      -7.2      5.084      9.154
REMARK  Name = 
REMARK  6 active torsions:
REMARK  status: ('A' for Active; 'I' for Inactive)
REMARK    1  A    between atoms: C_1  and  O_2
REMARK    2  A    between atoms: O_2  and  C_3
REMARK    3  A    between atoms: C_6  and  C_7
REMARK    4  A    between atoms: C_7  and  N_8
REMARK    5  A    between atoms: C_17  and  C_19
REMARK    6  A    between atoms: N_21  and  C_22
REMARK                            x       y       z     vdW  Elec       q    Type
REMARK                         _______ _______ _______ _____ _____    ______ ____
ROOT
ATOM      1  N   UNL     1      -0.565  13.977  21.232  0.00  0.00    +0.000 NA
ATOM      2  C   UNL     1       0.613  13.073  21.420  0.00  0.00    +0.000 C 
ATOM      3  C   UNL     1       1.323  12.441  20.155  0.00  0.00    +0.000 C 
ATOM      4  C   UNL     1       2.362  13.285  19.439  0.00  0.00    +0.000 C 
ATOM      5  C   UNL     1       1.764  14.461  18.657  0.00  0.00    +0.000 C 
ATOM      6  C   UNL     1       0.233  14.517  18.819  0.00  0.00    +0.000 C 
ATOM      7  C   UNL     1      -0.221  14.978  20.227  0.00  0.00    +0.000 C 
ATOM      8  C   UNL     1      -0.315  13.135  18.410  0.00  0.00    +0.000 C 
ATOM      9  N   UNL     1       0.327  12.029  19.153  0.00  0.00    +0.000 N 
ATOM     10  C   UNL     1      -0.241  10.745  19.165  0.00  0.00    +0.000 C 
ATOM     11  O   UNL     1      -1.369  10.544  18.716  0.00  0.00    +0.000 OA
ENDROOT
BRANCH  10  12
ATOM     12  C   UNL     1       0.549   9.626  19.740  0.00  0.00    +0.000 A 
ATOM     13  N   UNL     1       1.426   8.913  18.996  0.00  0.00    +0.000 NA
ATOM     14  N   UNL     1       1.840   7.928  19.814  0.00  0.00    +0.000 N 
ATOM     15  C   UNL     1       2.713   6.894  19.309  0.00  0.00    +0.000 C 
ATOM     16  C   UNL     1       1.326   8.008  21.071  0.00  0.00    +0.000 A 
ATOM     17  C   UNL     1       0.476   9.091  21.055  0.00  0.00    +0.000 A 
ATOM     18 CL   UNL     1      -0.448   9.653  22.361  0.00  0.00    +0.000 Cl
ENDBRANCH  10  12
BRANCH   1  19
ATOM     19  C   UNL     1      -1.827  13.187  21.109  0.00  0.00    +0.000 C 
BRANCH  19  23
ATOM     20  C   UNL     1      -5.295  12.589  23.742  0.00  0.00    +0.000 A 
ATOM     21  C   UNL     1      -4.019  12.409  24.262  0.00  0.00    +0.000 A 
ATOM     22  C   UNL     1      -2.854  12.639  23.469  0.00  0.00    +0.000 A 
ATOM     23  C   UNL     1      -2.955  13.075  22.147  0.00  0.00    +0.000 A 
ATOM     24  C   UNL     1      -4.278  13.284  21.659  0.00  0.00    +0.000 A 
ATOM     25  C   UNL     1      -5.423  13.066  22.434  0.00  0.00    +0.000 A 
BRANCH  20  27
ATOM     26  C   UNL     1      -7.555  13.259  24.105  0.00  0.00    +0.000 C 
ATOM     27  O   UNL     1      -6.476  12.368  24.390  0.00  0.00    +0.000 OA
ENDBRANCH  20  27
ENDBRANCH  19  23
ENDBRANCH   1  19
TORSDOF 4
ENDMDL
