MODEL 1
REMARK VINA RESULT:      -7.0      0.000      0.000
REMARK  Name = 
REMARK  16 active torsions:
REMARK  status: ('A' for Active; 'I' for Inactive)
REMARK    1  A    between atoms: C_1  and  O_2
REMARK    2  A    between atoms: O_2  and  C_3
REMARK    3  A    between atoms: C_6  and  C_7
REMARK    4  A    between atoms: C_8  and  C_9
REMARK    5  A    between atoms: C_11  and  O_12
REMARK    6  A    between atoms: O_12  and  C_13
REMARK    7  A    between atoms: C_14  and  O_15
REMARK    8  A    between atoms: O_15  and  C_16
REMARK    9  A    between atoms: C_17  and  O_18
REMARK   10  A    between atoms: O_18  and  C_19
REMARK   11  A    between atoms: C_22  and  N_23
REMARK   12  A    between atoms: N_23  and  CA_24
REMARK   13  A    between atoms: CA_24  and  CB_25
REMARK   14  A    between atoms: CA_24  and  C_27
REMARK   15  A    between atoms: CB_25  and  O_26
REMARK   16  A    between atoms: C_27  and  OXT_29
REMARK                            x       y       z     vdW  Elec       q    Type
REMARK                         _______ _______ _______ _____ _____    ______ ____
ROOT
ATOM      1  C   UNL     1       0.154   9.505  20.983  0.00  0.00    +0.000 A 
ATOM      2  C   UNL     1       1.159   8.542  21.046  0.00  0.00    +0.000 A 
ATOM      3  C   UNL     1       1.919   8.265  19.909  0.00  0.00    +0.000 A 
ATOM      4  C   UNL     1       1.679   8.945  18.707  0.00  0.00    +0.000 A 
ATOM      5  C   UNL     1       0.674   9.911  18.651  0.00  0.00    +0.000 A 
ATOM      6  C   ACE A   0      -0.104  10.199  19.778  0.00  0.00    +0.000 A 
ENDROOT
BRANCH   1   8
ATOM      7  C   UNL     1      -0.130   9.616  23.337  0.00  0.00    +0.000 C 
ATOM      8  O   UNL     1      -0.678   9.819  22.039  0.00  0.00    +0.000 OA
ENDBRANCH   1   8
BRANCH   4   9
ATOM      9  C   UNL     1       2.507   8.603  17.546  0.00  0.00    +0.000 C 
ATOM     10  C   UNL     1       3.181   7.470  17.257  0.00  0.00    +0.000 C 
BRANCH  10  11
ATOM     11  C   UNL     1       3.299   6.174  17.953  0.00  0.00    +0.000 A 
ATOM     12  C   UNL     1       2.239   5.291  18.138  0.00  0.00    +0.000 A 
ATOM     13  C   UNL     1       2.419   3.995  18.657  0.00  0.00    +0.000 A 
ATOM     14  C   UNL     1       3.691   3.578  19.096  0.00  0.00    +0.000 A 
ATOM     15  C   UNL     1       4.756   4.499  19.010  0.00  0.00    +0.000 A 
ATOM     16  C   UNL     1       4.553   5.763  18.425  0.00  0.00    +0.000 A 
BRANCH  13  17
ATOM     17  O   UNL     1       1.344   3.146  18.775  0.00  0.00    +0.000 OA
ATOM     18  C   UNL     1       0.761   3.066  20.077  0.00  0.00    +0.000 C 
ENDBRANCH  13  17
BRANCH  14  19
ATOM     19  O   UNL     1       4.013   2.333  19.568  0.00  0.00    +0.000 OA
ATOM     20  C   UNL     1       3.984   1.204  18.712  0.00  0.00    +0.000 C 
ENDBRANCH  14  19
BRANCH  15  21
ATOM     21  O   UNL     1       6.064   4.319  19.399  0.00  0.00    +0.000 OA
ATOM     22  C   UNL     1       6.955   5.424  19.318  0.00  0.00    +0.000 C 
ENDBRANCH  15  21
ENDBRANCH  10  11
ENDBRANCH   4   9
BRANCH   6  23
ATOM     23  N   UNL     1      -1.192  11.058  19.761  0.00  0.00    +0.000 N 
ATOM     24  H   UNL     1      -1.997  10.639  20.241  0.00  0.00    +0.000 HD
BRANCH  23  25
ATOM     25  CA  UNL     1      -1.148  12.519  19.918  0.00  0.00    +0.000 C 
BRANCH  25  26
ATOM     26  C   UNL     1      -0.589  13.069  18.600  0.00  0.00    +0.000 C 
ATOM     27  O   UNL     1       0.432  13.718  18.438  0.00  0.00    +0.000 OA
BRANCH  26  28
ATOM     28  OXT UNL     1      -1.345  12.680  17.535  0.00  0.00    +0.000 OA
ATOM     29  HXT UNL     1      -0.715  12.619  16.787  0.00  0.00    +0.000 HD
ENDBRANCH  26  28
ENDBRANCH  25  26
BRANCH  25  30
ATOM     30  CB  UNL     1      -2.530  13.139  20.192  0.00  0.00    +0.000 C 
BRANCH  30  31
ATOM     31  O   UNL     1      -3.589  12.606  19.391  0.00  0.00    +0.000 OA
ATOM     32  H   UNL     1      -4.191  13.335  19.157  0.00  0.00    +0.000 HD
ENDBRANCH  30  31
ENDBRANCH  25  30
ENDBRANCH  23  25
ENDBRANCH   6  23
TORSDOF 12
ENDMDL
MODEL 2
REMARK VINA RESULT:      -6.9      3.140      8.243
REMARK  Name = 
REMARK  16 active torsions:
REMARK  status: ('A' for Active; 'I' for Inactive)
REMARK    1  A    between atoms: C_1  and  O_2
REMARK    2  A    between atoms: O_2  and  C_3
REMARK    3  A    between atoms: C_6  and  C_7
REMARK    4  A    between atoms: C_8  and  C_9
REMARK    5  A    between atoms: C_11  and  O_12
REMARK    6  A    between atoms: O_12  and  C_13
REMARK    7  A    between atoms: C_14  and  O_15
REMARK    8  A    between atoms: O_15  and  C_16
REMARK    9  A    between atoms: C_17  and  O_18
REMARK   10  A    between atoms: O_18  and  C_19
REMARK   11  A    between atoms: C_22  and  N_23
REMARK   12  A    between atoms: N_23  and  CA_24
REMARK   13  A    between atoms: CA_24  and  CB_25
REMARK   14  A    between atoms: CA_24  and  C_27
REMARK   15  A    between atoms: CB_25  and  O_26
REMARK   16  A    between atoms: C_27  and  OXT_29
REMARK                            x       y       z     vdW  Elec       q    Type
REMARK                         _______ _______ _______ _____ _____    ______ ____
ROOT
ATOM      1  C   UNL     1       4.903   4.012  16.924  0.00  0.00    +0.000 A 
ATOM      2  C   UNL     1       3.519   3.854  16.887  0.00  0.00    +0.000 A 
ATOM      3  C   UNL     1       2.783   3.946  18.070  0.00  0.00    +0.000 A 
ATOM      4  C   UNL     1       3.425   4.194  19.292  0.00  0.00    +0.000 A 
ATOM      5  C   UNL     1       4.811   4.356  19.322  0.00  0.00    +0.000 A 
ATOM      6  C   ACE A   0       5.567   4.261  18.149  0.00  0.00    +0.000 A 
ENDROOT
BRANCH   1   8
ATOM      7  C   UNL     1       5.218   4.477  14.619  0.00  0.00    +0.000 C 
ATOM      8  O   UNL     1       5.720   3.898  15.818  0.00  0.00    +0.000 OA
ENDBRANCH   1   8
BRANCH   4   9
ATOM      9  C   UNL     1       2.598   4.272  20.500  0.00  0.00    +0.000 C 
ATOM     10  C   UNL     1       1.896   5.304  21.013  0.00  0.00    +0.000 C 
BRANCH  10  11
ATOM     11  C   UNL     1       1.667   6.685  20.546  0.00  0.00    +0.000 A 
ATOM     12  C   UNL     1       1.117   7.692  21.336  0.00  0.00    +0.000 A 
ATOM     13  C   UNL     1       1.065   9.035  20.918  0.00  0.00    +0.000 A 
ATOM     14  C   UNL     1       1.498   9.392  19.625  0.00  0.00    +0.000 A 
ATOM     15  C   UNL     1       1.962   8.366  18.775  0.00  0.00    +0.000 A 
ATOM     16  C   UNL     1       2.061   7.044  19.250  0.00  0.00    +0.000 A 
BRANCH  13  17
ATOM     17  O   UNL     1       0.556   9.997  21.756  0.00  0.00    +0.000 OA
ATOM     18  C   UNL     1      -0.602   9.614  22.501  0.00  0.00    +0.000 C 
ENDBRANCH  13  17
BRANCH  14  19
ATOM     19  O   UNL     1       1.552  10.661  19.114  0.00  0.00    +0.000 OA
ATOM     20  C   UNL     1       0.369  11.330  18.709  0.00  0.00    +0.000 C 
ENDBRANCH  14  19
BRANCH  15  21
ATOM     21  O   UNL     1       2.405   8.477  17.477  0.00  0.00    +0.000 OA
ATOM     22  C   UNL     1       3.444   7.613  17.036  0.00  0.00    +0.000 C 
ENDBRANCH  15  21
ENDBRANCH  10  11
ENDBRANCH   4   9
BRANCH   6  23
ATOM     23  N   UNL     1       6.953   4.292  18.123  0.00  0.00    +0.000 N 
ATOM     24  H   UNL     1       7.319   3.680  17.386  0.00  0.00    +0.000 HD
BRANCH  23  25
ATOM     25  CA  UNL     1       7.798   5.476  18.337  0.00  0.00    +0.000 C 
BRANCH  25  26
ATOM     26  C   UNL     1       7.323   6.524  17.322  0.00  0.00    +0.000 C 
ATOM     27  O   UNL     1       6.759   7.581  17.553  0.00  0.00    +0.000 OA
BRANCH  26  28
ATOM     28  OXT UNL     1       7.678   6.186  16.050  0.00  0.00    +0.000 OA
ATOM     29  HXT UNL     1       8.516   6.668  15.886  0.00  0.00    +0.000 HD
ENDBRANCH  26  28
ENDBRANCH  25  26
BRANCH  25  30
ATOM     30  CB  UNL     1       7.684   6.049  19.761  0.00  0.00    +0.000 C 
BRANCH  30  31
ATOM     31  O   UNL     1       8.340   5.272  20.768  0.00  0.00    +0.000 OA
ATOM     32  H   UNL     1       9.150   5.741  21.036  0.00  0.00    +0.000 HD
ENDBRANCH  30  31
ENDBRANCH  25  30
ENDBRANCH  23  25
ENDBRANCH   6  23
TORSDOF 12
ENDMDL
MODEL 3
REMARK VINA RESULT:      -6.8      2.302      8.769
REMARK  Name = 
REMARK  16 active torsions:
REMARK  status: ('A' for Active; 'I' for Inactive)
REMARK    1  A    between atoms: C_1  and  O_2
REMARK    2  A    between atoms: O_2  and  C_3
REMARK    3  A    between atoms: C_6  and  C_7
REMARK    4  A    between atoms: C_8  and  C_9
REMARK    5  A    between atoms: C_11  and  O_12
REMARK    6  A    between atoms: O_12  and  C_13
REMARK    7  A    between atoms: C_14  and  O_15
REMARK    8  A    between atoms: O_15  and  C_16
REMARK    9  A    between atoms: C_17  and  O_18
REMARK   10  A    between atoms: O_18  and  C_19
REMARK   11  A    between atoms: C_22  and  N_23
REMARK   12  A    between atoms: N_23  and  CA_24
REMARK   13  A    between atoms: CA_24  and  CB_25
REMARK   14  A    between atoms: CA_24  and  C_27
REMARK   15  A    between atoms: CB_25  and  O_26
REMARK   16  A    between atoms: C_27  and  OXT_29
REMARK                            x       y       z     vdW  Elec       q    Type
REMARK                         _______ _______ _______ _____ _____    ______ ____
ROOT
ATOM      1  C   UNL     1       1.728   4.862  20.145  0.00  0.00    +0.000 A 
ATOM      2  C   UNL     1       1.555   6.118  20.722  0.00  0.00    +0.000 A 
ATOM      3  C   UNL     1       1.884   7.263  19.994  0.00  0.00    +0.000 A 
ATOM      4  C   UNL     1       2.387   7.157  18.689  0.00  0.00    +0.000 A 
ATOM      5  C   UNL     1       2.554   5.897  18.115  0.00  0.00    +0.000 A 
ATOM      6  C   ACE A   0       2.237   4.737  18.831  0.00  0.00    +0.000 A 
ENDROOT
BRANCH   1   8
ATOM      7  C   UNL     1       2.255   3.428  21.961  0.00  0.00    +0.000 C 
ATOM      8  O   UNL     1       1.472   3.673  20.798  0.00  0.00    +0.000 OA
ENDBRANCH   1   8
BRANCH   4   9
ATOM      9  C   UNL     1       2.720   8.396  17.979  0.00  0.00    +0.000 C 
ATOM     10  C   UNL     1       2.070   9.578  17.931  0.00  0.00    +0.000 C 
BRANCH  10  11
ATOM     11  C   UNL     1       0.843  10.069  18.587  0.00  0.00    +0.000 A 
ATOM     12  C   UNL     1       0.817  10.647  19.854  0.00  0.00    +0.000 A 
ATOM     13  C   UNL     1      -0.338  11.254  20.383  0.00  0.00    +0.000 A 
ATOM     14  C   UNL     1      -1.550  11.215  19.665  0.00  0.00    +0.000 A 
ATOM     15  C   UNL     1      -1.565  10.542  18.425  0.00  0.00    +0.000 A 
ATOM     16  C   UNL     1      -0.375  10.004  17.898  0.00  0.00    +0.000 A 
BRANCH  13  17
ATOM     17  O   UNL     1      -0.296  11.852  21.619  0.00  0.00    +0.000 OA
ATOM     18  C   UNL     1      -0.676  11.023  22.718  0.00  0.00    +0.000 C 
ENDBRANCH  13  17
BRANCH  14  19
ATOM     19  O   UNL     1      -2.727  11.809  20.037  0.00  0.00    +0.000 OA
ATOM     20  C   UNL     1      -2.829  13.220  20.128  0.00  0.00    +0.000 C 
ENDBRANCH  14  19
BRANCH  15  21
ATOM     21  O   UNL     1      -2.631  10.358  17.574  0.00  0.00    +0.000 OA
ATOM     22  C   UNL     1      -2.632  11.043  16.328  0.00  0.00    +0.000 C 
ENDBRANCH  15  21
ENDBRANCH  10  11
ENDBRANCH   4   9
BRANCH   6  23
ATOM     23  N   UNL     1       2.489   3.455  18.367  0.00  0.00    +0.000 N 
ATOM     24  H   UNL     1       1.684   3.090  17.846  0.00  0.00    +0.000 HD
BRANCH  23  25
ATOM     25  CA  UNL     1       3.767   2.959  17.840  0.00  0.00    +0.000 C 
BRANCH  25  26
ATOM     26  C   UNL     1       4.789   3.135  18.971  0.00  0.00    +0.000 C 
ATOM     27  O   UNL     1       4.783   2.600  20.067  0.00  0.00    +0.000 OA
BRANCH  26  28
ATOM     28  OXT UNL     1       5.821   3.940  18.592  0.00  0.00    +0.000 OA
ATOM     29  HXT UNL     1       5.995   4.510  19.369  0.00  0.00    +0.000 HD
ENDBRANCH  26  28
ENDBRANCH  25  26
BRANCH  25  30
ATOM     30  CB  UNL     1       3.713   1.479  17.419  0.00  0.00    +0.000 C 
BRANCH  30  31
ATOM     31  O   UNL     1       4.105   0.557  18.441  0.00  0.00    +0.000 OA
ATOM     32  H   UNL     1       3.449  -0.162  18.470  0.00  0.00    +0.000 HD
ENDBRANCH  30  31
ENDBRANCH  25  30
ENDBRANCH  23  25
ENDBRANCH   6  23
TORSDOF 12
ENDMDL
MODEL 4
REMARK VINA RESULT:      -6.7      2.364      8.850
REMARK  Name = 
REMARK  16 active torsions:
REMARK  status: ('A' for Active; 'I' for Inactive)
REMARK    1  A    between atoms: C_1  and  O_2
REMARK    2  A    between atoms: O_2  and  C_3
REMARK    3  A    between atoms: C_6  and  C_7
REMARK    4  A    between atoms: C_8  and  C_9
REMARK    5  A    between atoms: C_11  and  O_12
REMARK    6  A    between atoms: O_12  and  C_13
REMARK    7  A    between atoms: C_14  and  O_15
REMARK    8  A    between atoms: O_15  and  C_16
REMARK    9  A    between atoms: C_17  and  O_18
REMARK   10  A    between atoms: O_18  and  C_19
REMARK   11  A    between atoms: C_22  and  N_23
REMARK   12  A    between atoms: N_23  and  CA_24
REMARK   13  A    between atoms: CA_24  and  CB_25
REMARK   14  A    between atoms: CA_24  and  C_27
REMARK   15  A    between atoms: CB_25  and  O_26
REMARK   16  A    between atoms: C_27  and  OXT_29
REMARK                            x       y       z     vdW  Elec       q    Type
REMARK                         _______ _______ _______ _____ _____    ______ ____
ROOT
ATOM      1  C   UNL     1       3.409   6.684  17.886  0.00  0.00    +0.000 A 
ATOM      2  C   UNL     1       2.843   7.956  17.878  0.00  0.00    +0.000 A 
ATOM      3  C   UNL     1       2.062   8.370  18.959  0.00  0.00    +0.000 A 
ATOM      4  C   UNL     1       1.842   7.515  20.048  0.00  0.00    +0.000 A 
ATOM      5  C   UNL     1       2.415   6.242  20.052  0.00  0.00    +0.000 A 
ATOM      6  C   ACE A   0       3.195   5.807  18.976  0.00  0.00    +0.000 A 
ENDROOT
BRANCH   1   8
ATOM      7  C   UNL     1       5.442   6.759  16.664  0.00  0.00    +0.000 C 
ATOM      8  O   UNL     1       4.160   6.169  16.849  0.00  0.00    +0.000 OA
ENDBRANCH   1   8
BRANCH   4   9
ATOM      9  C   UNL     1       1.006   8.005  21.149  0.00  0.00    +0.000 C 
ATOM     10  C   UNL     1       0.345   9.173  21.291  0.00  0.00    +0.000 C 
BRANCH  10  11
ATOM     11  C   UNL     1       0.182  10.341  20.404  0.00  0.00    +0.000 A 
ATOM     12  C   UNL     1      -0.919  10.541  19.575  0.00  0.00    +0.000 A 
ATOM     13  C   UNL     1      -1.123  11.741  18.869  0.00  0.00    +0.000 A 
ATOM     14  C   UNL     1      -0.154  12.763  18.912  0.00  0.00    +0.000 A 
ATOM     15  C   UNL     1       1.017  12.534  19.666  0.00  0.00    +0.000 A 
ATOM     16  C   UNL     1       1.157  11.348  20.412  0.00  0.00    +0.000 A 
BRANCH  13  17
ATOM     17  O   UNL     1      -2.252  11.904  18.102  0.00  0.00    +0.000 OA
ATOM     18  C   UNL     1      -2.344  11.059  16.953  0.00  0.00    +0.000 C 
ENDBRANCH  13  17
BRANCH  14  19
ATOM     19  O   UNL     1      -0.251  13.993  18.319  0.00  0.00    +0.000 OA
ATOM     20  C   UNL     1      -0.529  15.149  19.091  0.00  0.00    +0.000 C 
ENDBRANCH  14  19
BRANCH  15  21
ATOM     21  O   UNL     1       2.097  13.371  19.827  0.00  0.00    +0.000 OA
ATOM     22  C   UNL     1       2.986  13.553  18.732  0.00  0.00    +0.000 C 
ENDBRANCH  15  21
ENDBRANCH  10  11
ENDBRANCH   4   9
BRANCH   6  23
ATOM     23  N   UNL     1       3.694   4.518  18.860  0.00  0.00    +0.000 N 
ATOM     24  H   UNL     1       4.714   4.509  18.973  0.00  0.00    +0.000 HD
BRANCH  23  25
ATOM     25  CA  UNL     1       3.064   3.295  19.377  0.00  0.00    +0.000 C 
BRANCH  25  26
ATOM     26  C   UNL     1       2.242   2.719  18.216  0.00  0.00    +0.000 C 
ATOM     27  O   UNL     1       2.207   3.115  17.062  0.00  0.00    +0.000 OA
BRANCH  26  28
ATOM     28  OXT UNL     1       1.563   1.599  18.591  0.00  0.00    +0.000 OA
ATOM     29  HXT UNL     1       0.752   1.600  18.042  0.00  0.00    +0.000 HD
ENDBRANCH  26  28
ENDBRANCH  25  26
BRANCH  25  30
ATOM     30  CB  UNL     1       4.085   2.246  19.856  0.00  0.00    +0.000 C 
BRANCH  30  31
ATOM     31  O   UNL     1       4.398   1.238  18.889  0.00  0.00    +0.000 OA
ATOM     32  H   UNL     1       3.674   1.203  18.240  0.00  0.00    +0.000 HD
ENDBRANCH  30  31
ENDBRANCH  25  30
ENDBRANCH  23  25
ENDBRANCH   6  23
TORSDOF 12
ENDMDL
MODEL 5
REMARK VINA RESULT:      -6.6      0.994      1.230
REMARK  Name = 
REMARK  16 active torsions:
REMARK  status: ('A' for Active; 'I' for Inactive)
REMARK    1  A    between atoms: C_1  and  O_2
REMARK    2  A    between atoms: O_2  and  C_3
REMARK    3  A    between atoms: C_6  and  C_7
REMARK    4  A    between atoms: C_8  and  C_9
REMARK    5  A    between atoms: C_11  and  O_12
REMARK    6  A    between atoms: O_12  and  C_13
REMARK    7  A    between atoms: C_14  and  O_15
REMARK    8  A    between atoms: O_15  and  C_16
REMARK    9  A    between atoms: C_17  and  O_18
REMARK   10  A    between atoms: O_18  and  C_19
REMARK   11  A    between atoms: C_22  and  N_23
REMARK   12  A    between atoms: N_23  and  CA_24
REMARK   13  A    between atoms: CA_24  and  CB_25
REMARK   14  A    between atoms: CA_24  and  C_27
REMARK   15  A    between atoms: CB_25  and  O_26
REMARK   16  A    between atoms: C_27  and  OXT_29
REMARK                            x       y       z     vdW  Elec       q    Type
REMARK                         _______ _______ _______ _____ _____    ______ ____
ROOT
ATOM      1  C   UNL     1       0.271   9.353  21.266  0.00  0.00    +0.000 A 
ATOM      2  C   UNL     1       1.020   8.190  21.107  0.00  0.00    +0.000 A 
ATOM      3  C   UNL     1       1.731   7.984  19.924  0.00  0.00    +0.000 A 
ATOM      4  C   UNL     1       1.695   8.937  18.896  0.00  0.00    +0.000 A 
ATOM      5  C   UNL     1       0.946  10.102  19.062  0.00  0.00    +0.000 A 
ATOM      6  C   ACE A   0       0.222  10.324  20.238  0.00  0.00    +0.000 A 
ENDROOT
BRANCH   1   8
ATOM      7  C   UNL     1       0.120   9.364  23.635  0.00  0.00    +0.000 C 
ATOM      8  O   UNL     1      -0.497   9.628  22.379  0.00  0.00    +0.000 OA
ENDBRANCH   1   8
BRANCH   4   9
ATOM      9  C   UNL     1       2.457   8.659  17.674  0.00  0.00    +0.000 C 
ATOM     10  C   UNL     1       3.157   7.563  17.311  0.00  0.00    +0.000 C 
BRANCH  10  11
ATOM     11  C   UNL     1       3.377   6.258  17.963  0.00  0.00    +0.000 A 
ATOM     12  C   UNL     1       2.402   5.269  18.071  0.00  0.00    +0.000 A 
ATOM     13  C   UNL     1       2.689   3.976  18.548  0.00  0.00    +0.000 A 
ATOM     14  C   UNL     1       3.979   3.667  19.025  0.00  0.00    +0.000 A 
ATOM     15  C   UNL     1       4.950   4.691  19.019  0.00  0.00    +0.000 A 
ATOM     16  C   UNL     1       4.645   5.952  18.473  0.00  0.00    +0.000 A 
BRANCH  13  17
ATOM     17  O   UNL     1       1.701   3.023  18.588  0.00  0.00    +0.000 OA
ATOM     18  C   UNL     1       0.872   3.043  19.752  0.00  0.00    +0.000 C 
ENDBRANCH  13  17
BRANCH  14  19
ATOM     19  O   UNL     1       4.404   2.442  19.464  0.00  0.00    +0.000 OA
ATOM     20  C   UNL     1       4.271   2.075  20.827  0.00  0.00    +0.000 C 
ENDBRANCH  14  19
BRANCH  15  21
ATOM     21  O   UNL     1       6.254   4.624  19.456  0.00  0.00    +0.000 OA
ATOM     22  C   UNL     1       7.204   5.524  18.901  0.00  0.00    +0.000 C 
ENDBRANCH  15  21
ENDBRANCH  10  11
ENDBRANCH   4   9
BRANCH   6  23
ATOM     23  N   UNL     1      -0.634  11.399  20.422  0.00  0.00    +0.000 N 
ATOM     24  H   UNL     1      -1.443  11.129  20.992  0.00  0.00    +0.000 HD
BRANCH  23  25
ATOM     25  CA  UNL     1      -0.237  12.797  20.641  0.00  0.00    +0.000 C 
BRANCH  25  26
ATOM     26  C   UNL     1      -0.787  13.586  19.446  0.00  0.00    +0.000 C 
ATOM     27  O   UNL     1      -0.432  14.686  19.054  0.00  0.00    +0.000 OA
BRANCH  26  28
ATOM     28  OXT UNL     1      -1.722  12.869  18.760  0.00  0.00    +0.000 OA
ATOM     29  HXT UNL     1      -1.486  11.932  18.918  0.00  0.00    +0.000 HD
ENDBRANCH  26  28
ENDBRANCH  25  26
BRANCH  25  30
ATOM     30  CB  UNL     1      -0.798  13.385  21.949  0.00  0.00    +0.000 C 
BRANCH  30  31
ATOM     31  O   UNL     1      -0.604  12.561  23.102  0.00  0.00    +0.000 OA
ATOM     32  H   UNL     1      -1.325  11.909  23.136  0.00  0.00    +0.000 HD
ENDBRANCH  30  31
ENDBRANCH  25  30
ENDBRANCH  23  25
ENDBRANCH   6  23
TORSDOF 12
ENDMDL
MODEL 6
REMARK VINA RESULT:      -6.5      1.039      1.257
REMARK  Name = 
REMARK  16 active torsions:
REMARK  status: ('A' for Active; 'I' for Inactive)
REMARK    1  A    between atoms: C_1  and  O_2
REMARK    2  A    between atoms: O_2  and  C_3
REMARK    3  A    between atoms: C_6  and  C_7
REMARK    4  A    between atoms: C_8  and  C_9
REMARK    5  A    between atoms: C_11  and  O_12
REMARK    6  A    between atoms: O_12  and  C_13
REMARK    7  A    between atoms: C_14  and  O_15
REMARK    8  A    between atoms: O_15  and  C_16
REMARK    9  A    between atoms: C_17  and  O_18
REMARK   10  A    between atoms: O_18  and  C_19
REMARK   11  A    between atoms: C_22  and  N_23
REMARK   12  A    between atoms: N_23  and  CA_24
REMARK   13  A    between atoms: CA_24  and  CB_25
REMARK   14  A    between atoms: CA_24  and  C_27
REMARK   15  A    between atoms: CB_25  and  O_26
REMARK   16  A    between atoms: C_27  and  OXT_29
REMARK                            x       y       z     vdW  Elec       q    Type
REMARK                         _______ _______ _______ _____ _____    ______ ____
ROOT
ATOM      1  C   UNL     1       0.213   9.020  21.209  0.00  0.00    +0.000 A 
ATOM      2  C   UNL     1       1.143   7.987  21.112  0.00  0.00    +0.000 A 
ATOM      3  C   UNL     1       1.904   7.851  19.950  0.00  0.00    +0.000 A 
ATOM      4  C   UNL     1       1.739   8.744  18.882  0.00  0.00    +0.000 A 
ATOM      5  C   UNL     1       0.809   9.779  18.986  0.00  0.00    +0.000 A 
ATOM      6  C   ACE A   0       0.032   9.928  20.140  0.00  0.00    +0.000 A 
ENDROOT
BRANCH   1   8
ATOM      7  C   UNL     1       0.038   9.556  23.515  0.00  0.00    +0.000 C 
ATOM      8  O   UNL     1      -0.614   9.212  22.297  0.00  0.00    +0.000 OA
ENDBRANCH   1   8
BRANCH   4   9
ATOM      9  C   UNL     1       2.563   8.544  17.685  0.00  0.00    +0.000 C 
ATOM     10  C   UNL     1       3.349   7.506  17.329  0.00  0.00    +0.000 C 
BRANCH  10  11
ATOM     11  C   UNL     1       3.632   6.205  17.964  0.00  0.00    +0.000 A 
ATOM     12  C   UNL     1       2.664   5.235  18.215  0.00  0.00    +0.000 A 
ATOM     13  C   UNL     1       2.991   3.943  18.669  0.00  0.00    +0.000 A 
ATOM     14  C   UNL     1       4.328   3.616  18.973  0.00  0.00    +0.000 A 
ATOM     15  C   UNL     1       5.306   4.621  18.823  0.00  0.00    +0.000 A 
ATOM     16  C   UNL     1       4.952   5.882  18.304  0.00  0.00    +0.000 A 
BRANCH  13  17
ATOM     17  O   UNL     1       2.001   3.009  18.854  0.00  0.00    +0.000 OA
ATOM     18  C   UNL     1       0.984   3.366  19.792  0.00  0.00    +0.000 C 
ENDBRANCH  13  17
BRANCH  14  19
ATOM     19  O   UNL     1       4.788   2.389  19.369  0.00  0.00    +0.000 OA
ATOM     20  C   UNL     1       4.572   1.926  20.691  0.00  0.00    +0.000 C 
ENDBRANCH  14  19
BRANCH  15  21
ATOM     21  O   UNL     1       6.655   4.536  19.083  0.00  0.00    +0.000 OA
ATOM     22  C   UNL     1       7.567   4.699  18.005  0.00  0.00    +0.000 C 
ENDBRANCH  15  21
ENDBRANCH  10  11
ENDBRANCH   4   9
BRANCH   6  23
ATOM     23  N   UNL     1      -0.989  10.858  20.263  0.00  0.00    +0.000 N 
ATOM     24  H   UNL     1      -0.903  11.381  21.142  0.00  0.00    +0.000 HD
BRANCH  23  25
ATOM     25  CA  UNL     1      -1.554  11.675  19.180  0.00  0.00    +0.000 C 
BRANCH  25  26
ATOM     26  C   UNL     1      -0.598  12.862  19.002  0.00  0.00    +0.000 C 
ATOM     27  O   UNL     1      -0.411  13.521  17.993  0.00  0.00    +0.000 OA
BRANCH  26  28
ATOM     28  OXT UNL     1       0.016  13.190  20.174  0.00  0.00    +0.000 OA
ATOM     29  HXT UNL     1       0.747  12.545  20.266  0.00  0.00    +0.000 HD
ENDBRANCH  26  28
ENDBRANCH  25  26
BRANCH  25  30
ATOM     30  CB  UNL     1      -1.681  10.911  17.850  0.00  0.00    +0.000 C 
BRANCH  30  31
ATOM     31  O   UNL     1      -2.098  11.713  16.741  0.00  0.00    +0.000 OA
ATOM     32  H   UNL     1      -2.387  12.578  17.082  0.00  0.00    +0.000 HD
ENDBRANCH  30  31
ENDBRANCH  25  30
ENDBRANCH  23  25
ENDBRANCH   6  23
TORSDOF 12
ENDMDL
MODEL 7
REMARK VINA RESULT:      -6.5      2.472      8.934
REMARK  Name = 
REMARK  16 active torsions:
REMARK  status: ('A' for Active; 'I' for Inactive)
REMARK    1  A    between atoms: C_1  and  O_2
REMARK    2  A    between atoms: O_2  and  C_3
REMARK    3  A    between atoms: C_6  and  C_7
REMARK    4  A    between atoms: C_8  and  C_9
REMARK    5  A    between atoms: C_11  and  O_12
REMARK    6  A    between atoms: O_12  and  C_13
REMARK    7  A    between atoms: C_14  and  O_15
REMARK    8  A    between atoms: O_15  and  C_16
REMARK    9  A    between atoms: C_17  and  O_18
REMARK   10  A    between atoms: O_18  and  C_19
REMARK   11  A    between atoms: C_22  and  N_23
REMARK   12  A    between atoms: N_23  and  CA_24
REMARK   13  A    between atoms: CA_24  and  CB_25
REMARK   14  A    between atoms: CA_24  and  C_27
REMARK   15  A    between atoms: CB_25  and  O_26
REMARK   16  A    between atoms: C_27  and  OXT_29
REMARK                            x       y       z     vdW  Elec       q    Type
REMARK                         _______ _______ _______ _____ _____    ______ ____
ROOT
ATOM      1  C   UNL     1       1.754   5.474  19.904  0.00  0.00    +0.000 A 
ATOM      2  C   UNL     1       1.601   6.686  20.573  0.00  0.00    +0.000 A 
ATOM      3  C   UNL     1       1.870   7.881  19.904  0.00  0.00    +0.000 A 
ATOM      4  C   UNL     1       2.293   7.870  18.567  0.00  0.00    +0.000 A 
ATOM      5  C   UNL     1       2.439   6.653  17.901  0.00  0.00    +0.000 A 
ATOM      6  C   ACE A   0       2.182   5.444  18.556  0.00  0.00    +0.000 A 
ENDROOT
BRANCH   1   8
ATOM      7  C   UNL     1       2.336   3.976  21.650  0.00  0.00    +0.000 C 
ATOM      8  O   UNL     1       1.554   4.241  20.491  0.00  0.00    +0.000 OA
ENDBRANCH   1   8
BRANCH   4   9
ATOM      9  C   UNL     1       2.566   9.158  17.922  0.00  0.00    +0.000 C 
ATOM     10  C   UNL     1       1.936  10.346  18.041  0.00  0.00    +0.000 C 
BRANCH  10  11
ATOM     11  C   UNL     1       0.800  10.795  18.869  0.00  0.00    +0.000 A 
ATOM     12  C   UNL     1       0.938  11.408  20.112  0.00  0.00    +0.000 A 
ATOM     13  C   UNL     1      -0.153  11.972  20.800  0.00  0.00    +0.000 A 
ATOM     14  C   UNL     1      -1.457  11.852  20.281  0.00  0.00    +0.000 A 
ATOM     15  C   UNL     1      -1.626  11.143  19.073  0.00  0.00    +0.000 A 
ATOM     16  C   UNL     1      -0.505  10.649  18.379  0.00  0.00    +0.000 A 
BRANCH  13  17
ATOM     17  O   UNL     1       0.047  12.609  22.001  0.00  0.00    +0.000 OA
ATOM     18  C   UNL     1       0.440  13.980  21.915  0.00  0.00    +0.000 C 
ENDBRANCH  13  17
BRANCH  14  19
ATOM     19  O   UNL     1      -2.592  12.397  20.818  0.00  0.00    +0.000 OA
ATOM     20  C   UNL     1      -2.949  13.741  20.544  0.00  0.00    +0.000 C 
ENDBRANCH  14  19
BRANCH  15  21
ATOM     21  O   UNL     1      -2.799  10.881  18.402  0.00  0.00    +0.000 OA
ATOM     22  C   UNL     1      -2.904   9.670  17.663  0.00  0.00    +0.000 C 
ENDBRANCH  15  21
ENDBRANCH  10  11
ENDBRANCH   4   9
BRANCH   6  23
ATOM     23  N   UNL     1       2.421   4.199  17.994  0.00  0.00    +0.000 N 
ATOM     24  H   UNL     1       1.971   4.121  17.075  0.00  0.00    +0.000 HD
BRANCH  23  25
ATOM     25  CA  UNL     1       3.677   3.441  18.067  0.00  0.00    +0.000 C 
BRANCH  25  26
ATOM     26  C   UNL     1       3.279   1.989  18.363  0.00  0.00    +0.000 C 
ATOM     27  O   UNL     1       2.219   1.586  18.813  0.00  0.00    +0.000 OA
BRANCH  26  28
ATOM     28  OXT UNL     1       4.253   1.115  17.982  0.00  0.00    +0.000 OA
ATOM     29  HXT UNL     1       4.355   1.256  17.018  0.00  0.00    +0.000 HD
ENDBRANCH  26  28
ENDBRANCH  25  26
BRANCH  25  30
ATOM     30  CB  UNL     1       4.492   3.496  16.762  0.00  0.00    +0.000 C 
BRANCH  30  31
ATOM     31  O   UNL     1       5.911   3.527  16.948  0.00  0.00    +0.000 OA
ATOM     32  H   UNL     1       6.095   3.452  17.901  0.00  0.00    +0.000 HD
ENDBRANCH  30  31
ENDBRANCH  25  30
ENDBRANCH  23  25
ENDBRANCH   6  23
TORSDOF 12
ENDMDL
MODEL 8
REMARK VINA RESULT:      -6.5      2.463      8.759
REMARK  Name = 
REMARK  16 active torsions:
REMARK  status: ('A' for Active; 'I' for Inactive)
REMARK    1  A    between atoms: C_1  and  O_2
REMARK    2  A    between atoms: O_2  and  C_3
REMARK    3  A    between atoms: C_6  and  C_7
REMARK    4  A    between atoms: C_8  and  C_9
REMARK    5  A    between atoms: C_11  and  O_12
REMARK    6  A    between atoms: O_12  and  C_13
REMARK    7  A    between atoms: C_14  and  O_15
REMARK    8  A    between atoms: O_15  and  C_16
REMARK    9  A    between atoms: C_17  and  O_18
REMARK   10  A    between atoms: O_18  and  C_19
REMARK   11  A    between atoms: C_22  and  N_23
REMARK   12  A    between atoms: N_23  and  CA_24
REMARK   13  A    between atoms: CA_24  and  CB_25
REMARK   14  A    between atoms: CA_24  and  C_27
REMARK   15  A    between atoms: CB_25  and  O_26
REMARK   16  A    between atoms: C_27  and  OXT_29
REMARK                            x       y       z     vdW  Elec       q    Type
REMARK                         _______ _______ _______ _____ _____    ______ ____
ROOT
ATOM      1  C   UNL     1       2.300   5.586  20.277  0.00  0.00    +0.000 A 
ATOM      2  C   UNL     1       1.698   6.785  20.653  0.00  0.00    +0.000 A 
ATOM      3  C   UNL     1       1.771   7.889  19.802  0.00  0.00    +0.000 A 
ATOM      4  C   UNL     1       2.447   7.801  18.577  0.00  0.00    +0.000 A 
ATOM      5  C   UNL     1       3.045   6.597  18.204  0.00  0.00    +0.000 A 
ATOM      6  C   ACE A   0       2.988   5.480  19.046  0.00  0.00    +0.000 A 
ENDROOT
BRANCH   1   8
ATOM      7  C   UNL     1       1.205   3.579  20.914  0.00  0.00    +0.000 C 
ATOM      8  O   UNL     1       2.318   4.454  21.066  0.00  0.00    +0.000 OA
ENDBRANCH   1   8
BRANCH   4   9
ATOM      9  C   UNL     1       2.495   8.998  17.731  0.00  0.00    +0.000 C 
ATOM     10  C   UNL     1       1.768  10.134  17.782  0.00  0.00    +0.000 C 
BRANCH  10  11
ATOM     11  C   UNL     1       0.716  10.604  18.703  0.00  0.00    +0.000 A 
ATOM     12  C   UNL     1       0.971  11.218  19.927  0.00  0.00    +0.000 A 
ATOM     13  C   UNL     1      -0.047  11.804  20.704  0.00  0.00    +0.000 A 
ATOM     14  C   UNL     1      -1.393  11.704  20.300  0.00  0.00    +0.000 A 
ATOM     15  C   UNL     1      -1.678  10.995  19.114  0.00  0.00    +0.000 A 
ATOM     16  C   UNL     1      -0.628  10.479  18.328  0.00  0.00    +0.000 A 
BRANCH  13  17
ATOM     17  O   UNL     1       0.267  12.440  21.881  0.00  0.00    +0.000 OA
ATOM     18  C   UNL     1       0.529  13.840  21.774  0.00  0.00    +0.000 C 
ENDBRANCH  13  17
BRANCH  14  19
ATOM     19  O   UNL     1      -2.468  12.270  20.930  0.00  0.00    +0.000 OA
ATOM     20  C   UNL     1      -2.895  13.581  20.598  0.00  0.00    +0.000 C 
ENDBRANCH  14  19
BRANCH  15  21
ATOM     21  O   UNL     1      -2.908  10.751  18.548  0.00  0.00    +0.000 OA
ATOM     22  C   UNL     1      -3.175  11.270  17.251  0.00  0.00    +0.000 C 
ENDBRANCH  15  21
ENDBRANCH  10  11
ENDBRANCH   4   9
BRANCH   6  23
ATOM     23  N   UNL     1       3.658   4.293  18.793  0.00  0.00    +0.000 N 
ATOM     24  H   UNL     1       3.142   3.718  18.118  0.00  0.00    +0.000 HD
BRANCH  23  25
ATOM     25  CA  UNL     1       5.113   4.127  18.670  0.00  0.00    +0.000 C 
BRANCH  25  26
ATOM     26  C   UNL     1       5.404   4.044  17.166  0.00  0.00    +0.000 C 
ATOM     27  O   UNL     1       4.597   4.055  16.251  0.00  0.00    +0.000 OA
BRANCH  26  28
ATOM     28  OXT UNL     1       6.744   4.032  16.916  0.00  0.00    +0.000 OA
ATOM     29  HXT UNL     1       6.971   4.963  16.714  0.00  0.00    +0.000 HD
ENDBRANCH  26  28
ENDBRANCH  25  26
BRANCH  25  30
ATOM     30  CB  UNL     1       5.907   5.294  19.285  0.00  0.00    +0.000 C 
BRANCH  30  31
ATOM     31  O   UNL     1       7.293   5.015  19.511  0.00  0.00    +0.000 OA
ATOM     32  H   UNL     1       7.641   5.682  20.129  0.00  0.00    +0.000 HD
ENDBRANCH  30  31
ENDBRANCH  25  30
ENDBRANCH  23  25
ENDBRANCH   6  23
TORSDOF 12
ENDMDL
MODEL 9
REMARK VINA RESULT:      -6.4      2.336      9.033
REMARK  Name = 
REMARK  16 active torsions:
REMARK  status: ('A' for Active; 'I' for Inactive)
REMARK    1  A    between atoms: C_1  and  O_2
REMARK    2  A    between atoms: O_2  and  C_3
REMARK    3  A    between atoms: C_6  and  C_7
REMARK    4  A    between atoms: C_8  and  C_9
REMARK    5  A    between atoms: C_11  and  O_12
REMARK    6  A    between atoms: O_12  and  C_13
REMARK    7  A    between atoms: C_14  and  O_15
REMARK    8  A    between atoms: O_15  and  C_16
REMARK    9  A    between atoms: C_17  and  O_18
REMARK   10  A    between atoms: O_18  and  C_19
REMARK   11  A    between atoms: C_22  and  N_23
REMARK   12  A    between atoms: N_23  and  CA_24
REMARK   13  A    between atoms: CA_24  and  CB_25
REMARK   14  A    between atoms: CA_24  and  C_27
REMARK   15  A    between atoms: CB_25  and  O_26
REMARK   16  A    between atoms: C_27  and  OXT_29
REMARK                            x       y       z     vdW  Elec       q    Type
REMARK                         _______ _______ _______ _____ _____    ______ ____
ROOT
ATOM      1  C   UNL     1       3.301   6.823  18.057  0.00  0.00    +0.000 A 
ATOM      2  C   UNL     1       2.683   8.071  18.048  0.00  0.00    +0.000 A 
ATOM      3  C   UNL     1       1.824   8.423  19.091  0.00  0.00    +0.000 A 
ATOM      4  C   UNL     1       1.579   7.531  20.144  0.00  0.00    +0.000 A 
ATOM      5  C   UNL     1       2.205   6.284  20.150  0.00  0.00    +0.000 A 
ATOM      6  C   ACE A   0       3.063   5.910  19.111  0.00  0.00    +0.000 A 
ENDROOT
BRANCH   1   8
ATOM      7  C   UNL     1       5.439   6.929  17.032  0.00  0.00    +0.000 C 
ATOM      8  O   UNL     1       4.131   6.368  17.053  0.00  0.00    +0.000 OA
ENDBRANCH   1   8
BRANCH   4   9
ATOM      9  C   UNL     1       0.662   7.956  21.206  0.00  0.00    +0.000 C 
ATOM     10  C   UNL     1       0.124   9.168  21.463  0.00  0.00    +0.000 C 
BRANCH  10  11
ATOM     11  C   UNL     1       0.217  10.467  20.771  0.00  0.00    +0.000 A 
ATOM     12  C   UNL     1       1.231  11.396  20.994  0.00  0.00    +0.000 A 
ATOM     13  C   UNL     1       1.385  12.549  20.201  0.00  0.00    +0.000 A 
ATOM     14  C   UNL     1       0.444  12.849  19.196  0.00  0.00    +0.000 A 
ATOM     15  C   UNL     1      -0.647  11.970  19.027  0.00  0.00    +0.000 A 
ATOM     16  C   UNL     1      -0.732  10.792  19.794  0.00  0.00    +0.000 A 
BRANCH  13  17
ATOM     17  O   UNL     1       2.432  13.408  20.433  0.00  0.00    +0.000 OA
ATOM     18  C   UNL     1       2.199  14.411  21.425  0.00  0.00    +0.000 C 
ENDBRANCH  13  17
BRANCH  14  19
ATOM     19  O   UNL     1       0.503  13.902  18.323  0.00  0.00    +0.000 OA
ATOM     20  C   UNL     1      -0.100  15.144  18.645  0.00  0.00    +0.000 C 
ENDBRANCH  14  19
BRANCH  15  21
ATOM     21  O   UNL     1      -1.690  12.077  18.134  0.00  0.00    +0.000 OA
ATOM     22  C   UNL     1      -2.947  11.513  18.487  0.00  0.00    +0.000 C 
ENDBRANCH  15  21
ENDBRANCH  10  11
ENDBRANCH   4   9
BRANCH   6  23
ATOM     23  N   UNL     1       3.622   4.646  18.994  0.00  0.00    +0.000 N 
ATOM     24  H   UNL     1       4.586   4.639  19.345  0.00  0.00    +0.000 HD
BRANCH  23  25
ATOM     25  CA  UNL     1       2.934   3.368  19.224  0.00  0.00    +0.000 C 
BRANCH  25  26
ATOM     26  C   UNL     1       2.019   3.156  18.011  0.00  0.00    +0.000 C 
ATOM     27  O   UNL     1       2.283   3.352  16.837  0.00  0.00    +0.000 OA
BRANCH  26  28
ATOM     28  OXT UNL     1       0.822   2.616  18.377  0.00  0.00    +0.000 OA
ATOM     29  HXT UNL     1       0.149   3.155  17.910  0.00  0.00    +0.000 HD
ENDBRANCH  26  28
ENDBRANCH  25  26
BRANCH  25  30
ATOM     30  CB  UNL     1       3.901   2.177  19.355  0.00  0.00    +0.000 C 
BRANCH  30  31
ATOM     31  O   UNL     1       3.899   1.285  18.236  0.00  0.00    +0.000 OA
ATOM     32  H   UNL     1       2.978   1.030  18.051  0.00  0.00    +0.000 HD
ENDBRANCH  30  31
ENDBRANCH  25  30
ENDBRANCH  23  25
ENDBRANCH   6  23
TORSDOF 12
ENDMDL
