MODEL 1
REMARK VINA RESULT:      -9.2      0.000      0.000
REMARK  Name = 
REMARK  7 active torsions:
REMARK  status: ('A' for Active; 'I' for Inactive)
REMARK    1  A    between atoms: C_1  and  O_2
REMARK    2  A    between atoms: O_2  and  C_3
REMARK    3  A    between atoms: C_6  and  N_7
REMARK    4  A    between atoms: N_7  and  C_8
REMARK    5  A    between atoms: C_13  and  N_14
REMARK    6  A    between atoms: C_15  and  C_17
REMARK    7  A    between atoms: C_20  and  O_21
REMARK                            x       y       z     vdW  Elec       q    Type
REMARK                         _______ _______ _______ _____ _____    ______ ____
ROOT
ATOM      1  C   UNL     1       2.642   4.667  19.909  0.00  0.00    +0.000 A 
ATOM      2  C   UNL     1       1.885   4.275  21.040  0.00  0.00    +0.000 A 
ATOM      3  C   UNL     1       1.212   3.059  21.094  0.00  0.00    +0.000 A 
ATOM      4  C   UNL     1       1.355   2.164  20.052  0.00  0.00    +0.000 A 
ATOM      5  C   UNL     1       2.187   2.480  18.977  0.00  0.00    +0.000 A 
ATOM      6  C   UNL     1       2.841   3.721  18.873  0.00  0.00    +0.000 A 
ENDROOT
BRANCH   6   7
ATOM      7  N   UNL     1       3.676   4.004  17.745  0.00  0.00    +0.000 N 
ATOM      8  C   UNL     1       5.063   4.169  17.825  0.00  0.00    +0.000 C 
ATOM      9  O   UNL     1       5.740   4.024  18.834  0.00  0.00    +0.000 OA
ATOM     10  H   UNL     1       3.233   3.999  16.838  0.00  0.00    +0.000 HD
BRANCH   8  11
ATOM     11  C   UNL     1       5.808   4.460  16.589  0.00  0.00    +0.000 A 
ATOM     12  C   UNL     1       5.588   3.852  15.350  0.00  0.00    +0.000 A 
ATOM     13  C   UNL     1       6.370   4.243  14.255  0.00  0.00    +0.000 A 
ATOM     14  C   UNL     1       7.332   5.224  14.445  0.00  0.00    +0.000 A 
ATOM     15  N   UNL     1       7.549   5.846  15.607  0.00  0.00    +0.000 NA
ATOM     16  C   UNL     1       6.775   5.462  16.650  0.00  0.00    +0.000 A 
BRANCH  14  17
ATOM     17  O   UNL     1       8.146   5.632  13.430  0.00  0.00    +0.000 OA
ATOM     18  H   UNL     1       7.826   5.245  12.605  0.00  0.00    +0.000 HD
ENDBRANCH  14  17
ENDBRANCH   8  11
ENDBRANCH   6   7
BRANCH   1  19
ATOM     19  N   UNL     1       3.200   5.990  19.884  0.00  0.00    +0.000 N 
ATOM     20  H   UNL     1       4.033   5.988  19.301  0.00  0.00    +0.000 HD
BRANCH  19  24
ATOM     21  C   UNL     1       1.087   9.513  18.784  0.00  0.00    +0.000 A 
ATOM     22  C   UNL     1       1.052   9.049  20.102  0.00  0.00    +0.000 A 
ATOM     23  C   UNL     1       1.747   7.883  20.466  0.00  0.00    +0.000 A 
ATOM     24  C   UNL     1       2.444   7.144  19.505  0.00  0.00    +0.000 A 
ATOM     25  C   UNL     1       2.482   7.635  18.193  0.00  0.00    +0.000 A 
ATOM     26  C   UNL     1       1.793   8.790  17.829  0.00  0.00    +0.000 A 
BRANCH  21  28
ATOM     27  C   UNL     1      -0.981  10.447  18.146  0.00  0.00    +0.000 C 
ATOM     28  O   UNL     1       0.382  10.655  18.515  0.00  0.00    +0.000 OA
ENDBRANCH  21  28
ENDBRANCH  19  24
ENDBRANCH   1  19
TORSDOF 6
ENDMDL
MODEL 2
REMARK VINA RESULT:      -9.1      0.361      1.027
REMARK  Name = 
REMARK  7 active torsions:
REMARK  status: ('A' for Active; 'I' for Inactive)
REMARK    1  A    between atoms: C_1  and  O_2
REMARK    2  A    between atoms: O_2  and  C_3
REMARK    3  A    between atoms: C_6  and  N_7
REMARK    4  A    between atoms: N_7  and  C_8
REMARK    5  A    between atoms: C_13  and  N_14
REMARK    6  A    between atoms: C_15  and  C_17
REMARK    7  A    between atoms: C_20  and  O_21
REMARK                            x       y       z     vdW  Elec       q    Type
REMARK                         _______ _______ _______ _____ _____    ______ ____
ROOT
ATOM      1  C   UNL     1       2.599   4.650  19.840  0.00  0.00    +0.000 A 
ATOM      2  C   UNL     1       1.810   4.255  20.948  0.00  0.00    +0.000 A 
ATOM      3  C   UNL     1       1.063   3.081  20.942  0.00  0.00    +0.000 A 
ATOM      4  C   UNL     1       1.159   2.227  19.861  0.00  0.00    +0.000 A 
ATOM      5  C   UNL     1       2.017   2.540  18.806  0.00  0.00    +0.000 A 
ATOM      6  C   UNL     1       2.747   3.742  18.762  0.00  0.00    +0.000 A 
ENDROOT
BRANCH   6   7
ATOM      7  N   UNL     1       3.607   4.025  17.653  0.00  0.00    +0.000 N 
ATOM      8  C   UNL     1       4.997   4.138  17.754  0.00  0.00    +0.000 C 
ATOM      9  O   UNL     1       5.655   3.942  18.768  0.00  0.00    +0.000 OA
ATOM     10  H   UNL     1       3.176   4.058  16.740  0.00  0.00    +0.000 HD
BRANCH   8  11
ATOM     11  C   UNL     1       5.769   4.434  16.536  0.00  0.00    +0.000 A 
ATOM     12  C   UNL     1       5.547   3.864  15.279  0.00  0.00    +0.000 A 
ATOM     13  C   UNL     1       6.356   4.255  14.205  0.00  0.00    +0.000 A 
ATOM     14  C   UNL     1       7.347   5.198  14.432  0.00  0.00    +0.000 A 
ATOM     15  N   UNL     1       7.569   5.784  15.613  0.00  0.00    +0.000 NA
ATOM     16  C   UNL     1       6.768   5.401  16.635  0.00  0.00    +0.000 A 
BRANCH  14  17
ATOM     17  O   UNL     1       8.189   5.604  13.438  0.00  0.00    +0.000 OA
ATOM     18  H   UNL     1       8.317   4.869  12.826  0.00  0.00    +0.000 HD
ENDBRANCH  14  17
ENDBRANCH   8  11
ENDBRANCH   6   7
BRANCH   1  19
ATOM     19  N   UNL     1       3.237   5.936  19.879  0.00  0.00    +0.000 N 
ATOM     20  H   UNL     1       4.084   5.902  19.318  0.00  0.00    +0.000 HD
BRANCH  19  24
ATOM     21  C   UNL     1       1.099   9.447  18.788  0.00  0.00    +0.000 A 
ATOM     22  C   UNL     1       1.869   8.765  17.843  0.00  0.00    +0.000 A 
ATOM     23  C   UNL     1       2.580   7.606  18.202  0.00  0.00    +0.000 A 
ATOM     24  C   UNL     1       2.564   7.148  19.523  0.00  0.00    +0.000 A 
ATOM     25  C   UNL     1       1.771   7.834  20.453  0.00  0.00    +0.000 A 
ATOM     26  C   UNL     1       1.067   8.983  20.099  0.00  0.00    +0.000 A 
BRANCH  21  28
ATOM     27  C   UNL     1      -0.210  11.316  19.379  0.00  0.00    +0.000 C 
ATOM     28  O   UNL     1       0.441  10.566  18.354  0.00  0.00    +0.000 OA
ENDBRANCH  21  28
ENDBRANCH  19  24
ENDBRANCH   1  19
TORSDOF 6
ENDMDL
MODEL 3
REMARK VINA RESULT:      -8.2      0.699      1.388
REMARK  Name = 
REMARK  7 active torsions:
REMARK  status: ('A' for Active; 'I' for Inactive)
REMARK    1  A    between atoms: C_1  and  O_2
REMARK    2  A    between atoms: O_2  and  C_3
REMARK    3  A    between atoms: C_6  and  N_7
REMARK    4  A    between atoms: N_7  and  C_8
REMARK    5  A    between atoms: C_13  and  N_14
REMARK    6  A    between atoms: C_15  and  C_17
REMARK    7  A    between atoms: C_20  and  O_21
REMARK                            x       y       z     vdW  Elec       q    Type
REMARK                         _______ _______ _______ _____ _____    ______ ____
ROOT
ATOM      1  C   UNL     1       2.583   4.639  19.921  0.00  0.00    +0.000 A 
ATOM      2  C   UNL     1       1.803   4.257  21.040  0.00  0.00    +0.000 A 
ATOM      3  C   UNL     1       1.060   3.081  21.056  0.00  0.00    +0.000 A 
ATOM      4  C   UNL     1       1.152   2.212  19.987  0.00  0.00    +0.000 A 
ATOM      5  C   UNL     1       2.001   2.512  18.922  0.00  0.00    +0.000 A 
ATOM      6  C   UNL     1       2.727   3.715  18.856  0.00  0.00    +0.000 A 
ENDROOT
BRANCH   6   7
ATOM      7  N   UNL     1       3.579   3.984  17.736  0.00  0.00    +0.000 N 
ATOM      8  C   UNL     1       4.968   4.121  17.830  0.00  0.00    +0.000 C 
ATOM      9  O   UNL     1       5.632   3.961  18.846  0.00  0.00    +0.000 OA
ATOM     10  H   UNL     1       3.144   3.989  16.825  0.00  0.00    +0.000 HD
BRANCH   8  11
ATOM     11  C   UNL     1       5.731   4.400  16.602  0.00  0.00    +0.000 A 
ATOM     12  C   UNL     1       7.031   4.912  16.556  0.00  0.00    +0.000 A 
ATOM     13  C   UNL     1       7.636   5.112  15.309  0.00  0.00    +0.000 A 
ATOM     14  C   UNL     1       6.919   4.791  14.166  0.00  0.00    +0.000 A 
ATOM     15  N   UNL     1       5.687   4.274  14.174  0.00  0.00    +0.000 NA
ATOM     16  C   UNL     1       5.125   4.077  15.390  0.00  0.00    +0.000 A 
BRANCH  14  17
ATOM     17  O   UNL     1       7.437   4.987  12.919  0.00  0.00    +0.000 OA
ATOM     18  H   UNL     1       6.866   4.547  12.277  0.00  0.00    +0.000 HD
ENDBRANCH  14  17
ENDBRANCH   8  11
ENDBRANCH   6   7
BRANCH   1  19
ATOM     19  N   UNL     1       3.217   5.927  19.937  0.00  0.00    +0.000 N 
ATOM     20  H   UNL     1       4.062   5.887  19.372  0.00  0.00    +0.000 HD
BRANCH  19  24
ATOM     21  C   UNL     1       1.063   9.413  18.800  0.00  0.00    +0.000 A 
ATOM     22  C   UNL     1       1.833   8.720  17.862  0.00  0.00    +0.000 A 
ATOM     23  C   UNL     1       2.549   7.570  18.237  0.00  0.00    +0.000 A 
ATOM     24  C   UNL     1       2.538   7.131  19.565  0.00  0.00    +0.000 A 
ATOM     25  C   UNL     1       1.745   7.828  20.486  0.00  0.00    +0.000 A 
ATOM     26  C   UNL     1       1.036   8.969  20.117  0.00  0.00    +0.000 A 
BRANCH  21  28
ATOM     27  C   UNL     1      -0.860  10.765  18.979  0.00  0.00    +0.000 C 
ATOM     28  O   UNL     1       0.399  10.523  18.350  0.00  0.00    +0.000 OA
ENDBRANCH  21  28
ENDBRANCH  19  24
ENDBRANCH   1  19
TORSDOF 6
ENDMDL
MODEL 4
REMARK VINA RESULT:      -8.1      0.749      1.078
REMARK  Name = 
REMARK  7 active torsions:
REMARK  status: ('A' for Active; 'I' for Inactive)
REMARK    1  A    between atoms: C_1  and  O_2
REMARK    2  A    between atoms: O_2  and  C_3
REMARK    3  A    between atoms: C_6  and  N_7
REMARK    4  A    between atoms: N_7  and  C_8
REMARK    5  A    between atoms: C_13  and  N_14
REMARK    6  A    between atoms: C_15  and  C_17
REMARK    7  A    between atoms: C_20  and  O_21
REMARK                            x       y       z     vdW  Elec       q    Type
REMARK                         _______ _______ _______ _____ _____    ______ ____
ROOT
ATOM      1  C   UNL     1       2.544   4.750  19.945  0.00  0.00    +0.000 A 
ATOM      2  C   UNL     1       1.756   4.295  21.030  0.00  0.00    +0.000 A 
ATOM      3  C   UNL     1       1.090   3.074  20.999  0.00  0.00    +0.000 A 
ATOM      4  C   UNL     1       1.271   2.236  19.916  0.00  0.00    +0.000 A 
ATOM      5  C   UNL     1       2.132   2.613  18.885  0.00  0.00    +0.000 A 
ATOM      6  C   UNL     1       2.781   3.861  18.867  0.00  0.00    +0.000 A 
ENDROOT
BRANCH   6   7
ATOM      7  N   UNL     1       3.647   4.209  17.781  0.00  0.00    +0.000 N 
ATOM      8  C   UNL     1       5.044   4.197  17.866  0.00  0.00    +0.000 C 
ATOM      9  O   UNL     1       5.696   3.827  18.834  0.00  0.00    +0.000 OA
ATOM     10  H   UNL     1       3.210   4.388  16.889  0.00  0.00    +0.000 HD
BRANCH   8  11
ATOM     11  C   UNL     1       5.823   4.579  16.676  0.00  0.00    +0.000 A 
ATOM     12  C   UNL     1       6.777   5.599  16.627  0.00  0.00    +0.000 A 
ATOM     13  C   UNL     1       7.451   5.838  15.422  0.00  0.00    +0.000 A 
ATOM     14  C   UNL     1       7.145   5.048  14.324  0.00  0.00    +0.000 A 
ATOM     15  N   UNL     1       6.260   4.048  14.343  0.00  0.00    +0.000 NA
ATOM     16  C   UNL     1       5.628   3.825  15.520  0.00  0.00    +0.000 A 
BRANCH  14  17
ATOM     17  O   UNL     1       7.743   5.245  13.114  0.00  0.00    +0.000 OA
ATOM     18  H   UNL     1       7.125   5.715  12.539  0.00  0.00    +0.000 HD
ENDBRANCH  14  17
ENDBRANCH   8  11
ENDBRANCH   6   7
BRANCH   1  19
ATOM     19  N   UNL     1       3.093   6.075  20.007  0.00  0.00    +0.000 N 
ATOM     20  H   UNL     1       3.966   6.097  19.486  0.00  0.00    +0.000 HD
BRANCH  19  24
ATOM     21  C   UNL     1       1.042   9.626  18.877  0.00  0.00    +0.000 A 
ATOM     22  C   UNL     1       0.939   9.133  20.180  0.00  0.00    +0.000 A 
ATOM     23  C   UNL     1       1.613   7.957  20.555  0.00  0.00    +0.000 A 
ATOM     24  C   UNL     1       2.358   7.239  19.615  0.00  0.00    +0.000 A 
ATOM     25  C   UNL     1       2.466   7.759  18.318  0.00  0.00    +0.000 A 
ATOM     26  C   UNL     1       1.797   8.923  17.944  0.00  0.00    +0.000 A 
BRANCH  21  28
ATOM     27  C   UNL     1       0.146  11.638  19.715  0.00  0.00    +0.000 C 
ATOM     28  O   UNL     1       0.353  10.775  18.597  0.00  0.00    +0.000 OA
ENDBRANCH  21  28
ENDBRANCH  19  24
ENDBRANCH   1  19
TORSDOF 6
ENDMDL
MODEL 5
REMARK VINA RESULT:      -8.1      2.023      6.936
REMARK  Name = 
REMARK  7 active torsions:
REMARK  status: ('A' for Active; 'I' for Inactive)
REMARK    1  A    between atoms: C_1  and  O_2
REMARK    2  A    between atoms: O_2  and  C_3
REMARK    3  A    between atoms: C_6  and  N_7
REMARK    4  A    between atoms: N_7  and  C_8
REMARK    5  A    between atoms: C_13  and  N_14
REMARK    6  A    between atoms: C_15  and  C_17
REMARK    7  A    between atoms: C_20  and  O_21
REMARK                            x       y       z     vdW  Elec       q    Type
REMARK                         _______ _______ _______ _____ _____    ______ ____
ROOT
ATOM      1  C   UNL     1       3.349   4.626  19.938  0.00  0.00    +0.000 A 
ATOM      2  C   UNL     1       3.563   3.265  19.609  0.00  0.00    +0.000 A 
ATOM      3  C   UNL     1       2.652   2.271  19.948  0.00  0.00    +0.000 A 
ATOM      4  C   UNL     1       1.459   2.626  20.545  0.00  0.00    +0.000 A 
ATOM      5  C   UNL     1       1.174   3.972  20.777  0.00  0.00    +0.000 A 
ATOM      6  C   UNL     1       2.097   4.995  20.489  0.00  0.00    +0.000 A 
ENDROOT
BRANCH   6   7
ATOM      7  N   UNL     1       1.764   6.362  20.755  0.00  0.00    +0.000 N 
ATOM      8  C   UNL     1       1.774   7.369  19.784  0.00  0.00    +0.000 C 
ATOM      9  O   UNL     1       1.991   7.205  18.591  0.00  0.00    +0.000 OA
ATOM     10  H   UNL     1       1.426   6.576  21.683  0.00  0.00    +0.000 HD
BRANCH   8  11
ATOM     11  C   UNL     1       1.413   8.738  20.188  0.00  0.00    +0.000 A 
ATOM     12  C   UNL     1       1.137   9.793  19.313  0.00  0.00    +0.000 A 
ATOM     13  C   UNL     1       0.793  11.041  19.847  0.00  0.00    +0.000 A 
ATOM     14  C   UNL     1       0.738  11.181  21.225  0.00  0.00    +0.000 A 
ATOM     15  N   UNL     1       0.969  10.188  22.089  0.00  0.00    +0.000 NA
ATOM     16  C   UNL     1       1.287   8.986  21.553  0.00  0.00    +0.000 A 
BRANCH  14  17
ATOM     17  O   UNL     1       0.437  12.376  21.811  0.00  0.00    +0.000 OA
ATOM     18  H   UNL     1      -0.195  12.842  21.250  0.00  0.00    +0.000 HD
ENDBRANCH  14  17
ENDBRANCH   8  11
ENDBRANCH   6   7
BRANCH   1  19
ATOM     19  N   UNL     1       4.396   5.570  19.664  0.00  0.00    +0.000 N 
ATOM     20  H   UNL     1       5.028   5.604  20.460  0.00  0.00    +0.000 HD
BRANCH  19  24
ATOM     21  C   UNL     1       6.907   5.500  16.232  0.00  0.00    +0.000 A 
ATOM     22  C   UNL     1       5.599   5.984  16.142  0.00  0.00    +0.000 A 
ATOM     23  C   UNL     1       4.767   6.004  17.274  0.00  0.00    +0.000 A 
ATOM     24  C   UNL     1       5.220   5.496  18.496  0.00  0.00    +0.000 A 
ATOM     25  C   UNL     1       6.541   5.033  18.571  0.00  0.00    +0.000 A 
ATOM     26  C   UNL     1       7.368   5.011  17.449  0.00  0.00    +0.000 A 
BRANCH  21  28
ATOM     27  C   UNL     1       7.082   4.790  13.991  0.00  0.00    +0.000 C 
ATOM     28  O   UNL     1       7.649   5.516  15.081  0.00  0.00    +0.000 OA
ENDBRANCH  21  28
ENDBRANCH  19  24
ENDBRANCH   1  19
TORSDOF 6
ENDMDL
MODEL 6
REMARK VINA RESULT:      -7.9      2.159      6.080
REMARK  Name = 
REMARK  7 active torsions:
REMARK  status: ('A' for Active; 'I' for Inactive)
REMARK    1  A    between atoms: C_1  and  O_2
REMARK    2  A    between atoms: O_2  and  C_3
REMARK    3  A    between atoms: C_6  and  N_7
REMARK    4  A    between atoms: N_7  and  C_8
REMARK    5  A    between atoms: C_13  and  N_14
REMARK    6  A    between atoms: C_15  and  C_17
REMARK    7  A    between atoms: C_20  and  O_21
REMARK                            x       y       z     vdW  Elec       q    Type
REMARK                         _______ _______ _______ _____ _____    ______ ____
ROOT
ATOM      1  C   UNL     1       3.488   3.592  17.492  0.00  0.00    +0.000 A 
ATOM      2  C   UNL     1       3.701   2.192  17.543  0.00  0.00    +0.000 A 
ATOM      3  C   UNL     1       3.041   1.377  18.457  0.00  0.00    +0.000 A 
ATOM      4  C   UNL     1       2.082   1.929  19.282  0.00  0.00    +0.000 A 
ATOM      5  C   UNL     1       1.772   3.286  19.173  0.00  0.00    +0.000 A 
ATOM      6  C   UNL     1       2.457   4.144  18.293  0.00  0.00    +0.000 A 
ENDROOT
BRANCH   6   7
ATOM      7  N   UNL     1       2.111   5.531  18.223  0.00  0.00    +0.000 N 
ATOM      8  C   UNL     1       2.560   6.492  19.136  0.00  0.00    +0.000 C 
ATOM      9  O   UNL     1       3.348   6.292  20.051  0.00  0.00    +0.000 OA
ATOM     10  H   UNL     1       1.581   5.829  17.416  0.00  0.00    +0.000 HD
BRANCH   8  11
ATOM     11  C   UNL     1       2.129   7.889  18.954  0.00  0.00    +0.000 A 
ATOM     12  C   UNL     1       2.324   8.651  17.800  0.00  0.00    +0.000 A 
ATOM     13  C   UNL     1       1.845   9.967  17.768  0.00  0.00    +0.000 A 
ATOM     14  C   UNL     1       1.192  10.461  18.888  0.00  0.00    +0.000 A 
ATOM     15  N   UNL     1       0.964   9.751  19.997  0.00  0.00    +0.000 NA
ATOM     16  C   UNL     1       1.424   8.478  20.002  0.00  0.00    +0.000 A 
BRANCH  14  17
ATOM     17  O   UNL     1       0.725  11.742  18.936  0.00  0.00    +0.000 OA
ATOM     18  H   UNL     1       1.410  12.304  19.320  0.00  0.00    +0.000 HD
ENDBRANCH  14  17
ENDBRANCH   8  11
ENDBRANCH   6   7
BRANCH   1  19
ATOM     19  N   UNL     1       4.301   4.376  16.606  0.00  0.00    +0.000 N 
ATOM     20  H   UNL     1       3.701   4.987  16.058  0.00  0.00    +0.000 HD
BRANCH  19  24
ATOM     21  C   UNL     1       7.449   6.811  18.108  0.00  0.00    +0.000 A 
ATOM     22  C   UNL     1       6.466   7.357  17.278  0.00  0.00    +0.000 A 
ATOM     23  C   UNL     1       5.427   6.553  16.778  0.00  0.00    +0.000 A 
ATOM     24  C   UNL     1       5.390   5.185  17.065  0.00  0.00    +0.000 A 
ATOM     25  C   UNL     1       6.373   4.660  17.914  0.00  0.00    +0.000 A 
ATOM     26  C   UNL     1       7.405   5.454  18.410  0.00  0.00    +0.000 A 
BRANCH  21  28
ATOM     27  C   UNL     1       8.306   9.006  18.078  0.00  0.00    +0.000 C 
ATOM     28  O   UNL     1       8.424   7.664  18.550  0.00  0.00    +0.000 OA
ENDBRANCH  21  28
ENDBRANCH  19  24
ENDBRANCH   1  19
TORSDOF 6
ENDMDL
MODEL 7
REMARK VINA RESULT:      -7.8      2.053      6.951
REMARK  Name = 
REMARK  7 active torsions:
REMARK  status: ('A' for Active; 'I' for Inactive)
REMARK    1  A    between atoms: C_1  and  O_2
REMARK    2  A    between atoms: O_2  and  C_3
REMARK    3  A    between atoms: C_6  and  N_7
REMARK    4  A    between atoms: N_7  and  C_8
REMARK    5  A    between atoms: C_13  and  N_14
REMARK    6  A    between atoms: C_15  and  C_17
REMARK    7  A    between atoms: C_20  and  O_21
REMARK                            x       y       z     vdW  Elec       q    Type
REMARK                         _______ _______ _______ _____ _____    ______ ____
ROOT
ATOM      1  C   UNL     1       3.337   4.510  19.863  0.00  0.00    +0.000 A 
ATOM      2  C   UNL     1       3.578   3.202  19.377  0.00  0.00    +0.000 A 
ATOM      3  C   UNL     1       2.687   2.157  19.595  0.00  0.00    +0.000 A 
ATOM      4  C   UNL     1       1.487   2.416  20.227  0.00  0.00    +0.000 A 
ATOM      5  C   UNL     1       1.176   3.720  20.615  0.00  0.00    +0.000 A 
ATOM      6  C   UNL     1       2.078   4.787  20.451  0.00  0.00    +0.000 A 
ENDROOT
BRANCH   6   7
ATOM      7  N   UNL     1       1.719   6.107  20.875  0.00  0.00    +0.000 N 
ATOM      8  C   UNL     1       1.719   7.223  20.031  0.00  0.00    +0.000 C 
ATOM      9  O   UNL     1       1.950   7.206  18.829  0.00  0.00    +0.000 OA
ATOM     10  H   UNL     1       1.369   6.203  21.818  0.00  0.00    +0.000 HD
BRANCH   8  11
ATOM     11  C   UNL     1       1.331   8.528  20.592  0.00  0.00    +0.000 A 
ATOM     12  C   UNL     1       1.130   8.797  21.949  0.00  0.00    +0.000 A 
ATOM     13  C   UNL     1       0.775  10.096  22.336  0.00  0.00    +0.000 A 
ATOM     14  C   UNL     1       0.639  11.066  21.354  0.00  0.00    +0.000 A 
ATOM     15  N   UNL     1       0.851  10.850  20.052  0.00  0.00    +0.000 NA
ATOM     16  C   UNL     1       1.206   9.591  19.701  0.00  0.00    +0.000 A 
BRANCH  14  17
ATOM     17  O   UNL     1       0.269  12.343  21.658  0.00  0.00    +0.000 OA
ATOM     18  H   UNL     1       0.338  12.464  22.613  0.00  0.00    +0.000 HD
ENDBRANCH  14  17
ENDBRANCH   8  11
ENDBRANCH   6   7
BRANCH   1  19
ATOM     19  N   UNL     1       4.366   5.500  19.704  0.00  0.00    +0.000 N 
ATOM     20  H   UNL     1       4.999   5.450  20.498  0.00  0.00    +0.000 HD
BRANCH  19  24
ATOM     21  C   UNL     1       6.742   5.603  16.178  0.00  0.00    +0.000 A 
ATOM     22  C   UNL     1       7.239   5.027  17.350  0.00  0.00    +0.000 A 
ATOM     23  C   UNL     1       6.456   4.995  18.517  0.00  0.00    +0.000 A 
ATOM     24  C   UNL     1       5.188   5.583  18.535  0.00  0.00    +0.000 A 
ATOM     25  C   UNL     1       4.699   6.139  17.345  0.00  0.00    +0.000 A 
ATOM     26  C   UNL     1       5.473   6.173  16.187  0.00  0.00    +0.000 A 
BRANCH  21  28
ATOM     27  C   UNL     1       7.134   4.763  14.011  0.00  0.00    +0.000 C 
ATOM     28  O   UNL     1       7.570   5.592  15.088  0.00  0.00    +0.000 OA
ENDBRANCH  21  28
ENDBRANCH  19  24
ENDBRANCH   1  19
TORSDOF 6
ENDMDL
MODEL 8
REMARK VINA RESULT:      -7.7      1.912      6.615
REMARK  Name = 
REMARK  7 active torsions:
REMARK  status: ('A' for Active; 'I' for Inactive)
REMARK    1  A    between atoms: C_1  and  O_2
REMARK    2  A    between atoms: O_2  and  C_3
REMARK    3  A    between atoms: C_6  and  N_7
REMARK    4  A    between atoms: N_7  and  C_8
REMARK    5  A    between atoms: C_13  and  N_14
REMARK    6  A    between atoms: C_15  and  C_17
REMARK    7  A    between atoms: C_20  and  O_21
REMARK                            x       y       z     vdW  Elec       q    Type
REMARK                         _______ _______ _______ _____ _____    ______ ____
ROOT
ATOM      1  C   UNL     1       3.653   4.640  19.863  0.00  0.00    +0.000 A 
ATOM      2  C   UNL     1       3.763   3.228  19.854  0.00  0.00    +0.000 A 
ATOM      3  C   UNL     1       2.736   2.404  20.302  0.00  0.00    +0.000 A 
ATOM      4  C   UNL     1       1.536   2.971  20.685  0.00  0.00    +0.000 A 
ATOM      5  C   UNL     1       1.363   4.352  20.596  0.00  0.00    +0.000 A 
ATOM      6  C   UNL     1       2.400   5.214  20.193  0.00  0.00    +0.000 A 
ENDROOT
BRANCH   6   7
ATOM      7  N   UNL     1       2.179   6.627  20.127  0.00  0.00    +0.000 N 
ATOM      8  C   UNL     1       1.958   7.326  18.935  0.00  0.00    +0.000 C 
ATOM      9  O   UNL     1       1.853   6.824  17.824  0.00  0.00    +0.000 OA
ATOM     10  H   UNL     1       2.099   7.117  21.007  0.00  0.00    +0.000 HD
BRANCH   8  11
ATOM     11  C   UNL     1       1.746   8.782  19.004  0.00  0.00    +0.000 A 
ATOM     12  C   UNL     1       2.096   9.697  18.007  0.00  0.00    +0.000 A 
ATOM     13  C   UNL     1       1.818  11.056  18.208  0.00  0.00    +0.000 A 
ATOM     14  C   UNL     1       1.202  11.438  19.391  0.00  0.00    +0.000 A 
ATOM     15  N   UNL     1       0.829  10.587  20.351  0.00  0.00    +0.000 NA
ATOM     16  C   UNL     1       1.095   9.278  20.132  0.00  0.00    +0.000 A 
BRANCH  14  17
ATOM     17  O   UNL     1       0.928  12.746  19.664  0.00  0.00    +0.000 OA
ATOM     18  H   UNL     1      -0.014  12.829  19.857  0.00  0.00    +0.000 HD
ENDBRANCH  14  17
ENDBRANCH   8  11
ENDBRANCH   6   7
BRANCH   1  19
ATOM     19  N   UNL     1       4.805   5.418  19.503  0.00  0.00    +0.000 N 
ATOM     20  H   UNL     1       5.519   5.303  20.218  0.00  0.00    +0.000 HD
BRANCH  19  24
ATOM     21  C   UNL     1       6.843   5.171  15.778  0.00  0.00    +0.000 A 
ATOM     22  C   UNL     1       5.531   5.647  15.837  0.00  0.00    +0.000 A 
ATOM     23  C   UNL     1       4.854   5.726  17.067  0.00  0.00    +0.000 A 
ATOM     24  C   UNL     1       5.469   5.284  18.242  0.00  0.00    +0.000 A 
ATOM     25  C   UNL     1       6.791   4.827  18.166  0.00  0.00    +0.000 A 
ATOM     26  C   UNL     1       7.463   4.746  16.948  0.00  0.00    +0.000 A 
BRANCH  21  28
ATOM     27  C   UNL     1       6.727   4.342  13.575  0.00  0.00    +0.000 C 
ATOM     28  O   UNL     1       7.426   5.127  14.541  0.00  0.00    +0.000 OA
ENDBRANCH  21  28
ENDBRANCH  19  24
ENDBRANCH   1  19
TORSDOF 6
ENDMDL
MODEL 9
REMARK VINA RESULT:      -7.6      2.212      6.071
REMARK  Name = 
REMARK  7 active torsions:
REMARK  status: ('A' for Active; 'I' for Inactive)
REMARK    1  A    between atoms: C_1  and  O_2
REMARK    2  A    between atoms: O_2  and  C_3
REMARK    3  A    between atoms: C_6  and  N_7
REMARK    4  A    between atoms: N_7  and  C_8
REMARK    5  A    between atoms: C_13  and  N_14
REMARK    6  A    between atoms: C_15  and  C_17
REMARK    7  A    between atoms: C_20  and  O_21
REMARK                            x       y       z     vdW  Elec       q    Type
REMARK                         _______ _______ _______ _____ _____    ______ ____
ROOT
ATOM      1  C   UNL     1       3.523   3.686  17.546  0.00  0.00    +0.000 A 
ATOM      2  C   UNL     1       3.686   2.281  17.612  0.00  0.00    +0.000 A 
ATOM      3  C   UNL     1       3.000   1.500  18.537  0.00  0.00    +0.000 A 
ATOM      4  C   UNL     1       2.063   2.096  19.359  0.00  0.00    +0.000 A 
ATOM      5  C   UNL     1       1.803   3.461  19.235  0.00  0.00    +0.000 A 
ATOM      6  C   UNL     1       2.516   4.284  18.344  0.00  0.00    +0.000 A 
ENDROOT
BRANCH   6   7
ATOM      7  N   UNL     1       2.221   5.683  18.260  0.00  0.00    +0.000 N 
ATOM      8  C   UNL     1       2.237   6.549  19.358  0.00  0.00    +0.000 C 
ATOM      9  O   UNL     1       2.569   6.248  20.497  0.00  0.00    +0.000 OA
ATOM     10  H   UNL     1       2.077   6.063  17.335  0.00  0.00    +0.000 HD
BRANCH   8  11
ATOM     11  C   UNL     1       1.912   7.968  19.138  0.00  0.00    +0.000 A 
ATOM     12  C   UNL     1       1.258   8.799  20.053  0.00  0.00    +0.000 A 
ATOM     13  C   UNL     1       1.029  10.137  19.708  0.00  0.00    +0.000 A 
ATOM     14  C   UNL     1       1.464  10.586  18.470  0.00  0.00    +0.000 A 
ATOM     15  N   UNL     1       2.116   9.827  17.584  0.00  0.00    +0.000 NA
ATOM     16  C   UNL     1       2.339   8.541  17.942  0.00  0.00    +0.000 A 
BRANCH  14  17
ATOM     17  O   UNL     1       1.249  11.869  18.059  0.00  0.00    +0.000 OA
ATOM     18  H   UNL     1       1.968  12.422  18.390  0.00  0.00    +0.000 HD
ENDBRANCH  14  17
ENDBRANCH   8  11
ENDBRANCH   6   7
BRANCH   1  19
ATOM     19  N   UNL     1       4.362   4.430  16.650  0.00  0.00    +0.000 N 
ATOM     20  H   UNL     1       3.779   5.029  16.070  0.00  0.00    +0.000 HD
BRANCH  19  24
ATOM     21  C   UNL     1       7.506   6.891  18.117  0.00  0.00    +0.000 A 
ATOM     22  C   UNL     1       6.607   7.382  17.167  0.00  0.00    +0.000 A 
ATOM     23  C   UNL     1       5.569   6.570  16.678  0.00  0.00    +0.000 A 
ATOM     24  C   UNL     1       5.452   5.242  17.100  0.00  0.00    +0.000 A 
ATOM     25  C   UNL     1       6.351   4.772  18.067  0.00  0.00    +0.000 A 
ATOM     26  C   UNL     1       7.381   5.575  18.552  0.00  0.00    +0.000 A 
BRANCH  21  28
ATOM     27  C   UNL     1       8.297   9.110  18.156  0.00  0.00    +0.000 C 
ATOM     28  O   UNL     1       8.486   7.748  18.538  0.00  0.00    +0.000 OA
ENDBRANCH  21  28
ENDBRANCH  19  24
ENDBRANCH   1  19
TORSDOF 6
ENDMDL
