MODEL 1
REMARK VINA RESULT:      -6.7      0.000      0.000
REMARK  Name = 
REMARK  11 active torsions:
REMARK  status: ('A' for Active; 'I' for Inactive)
REMARK    1  A    between atoms: C_1  and  C_2
REMARK    2  A    between atoms: C_2  and  C_3
REMARK    3  A    between atoms: C_3  and  O_5
REMARK    4  A    between atoms: O_5  and  C_6
REMARK    5  A    between atoms: C_9  and  C_10
REMARK    6  A    between atoms: C_11  and  C_12
REMARK    7  A    between atoms: C_12  and  O_13
REMARK    8  A    between atoms: O_13  and  C_14
REMARK    9  A    between atoms: C_14  and  C_15
REMARK   10  A    between atoms: C_18  and  O_19
REMARK   11  A    between atoms: O_19  and  C_20
REMARK                            x       y       z     vdW  Elec       q    Type
REMARK                         _______ _______ _______ _____ _____    ______ ____
ROOT
ATOM      1  C   UNL     1       4.691   4.807  18.473  0.00  0.00    +0.000 A 
ATOM      2  C   UNL     1       3.860   4.478  17.390  0.00  0.00    +0.000 A 
ATOM      3  C   UNL     1       4.396   4.203  16.132  0.00  0.00    +0.000 A 
ATOM      4  C   UNL     1       5.778   4.215  15.942  0.00  0.00    +0.000 A 
ATOM      5  C   UNL     1       6.600   4.515  17.034  0.00  0.00    +0.000 A 
ATOM      6  C   UNL     1       6.081   4.791  18.312  0.00  0.00    +0.000 A 
ENDROOT
BRANCH   4   7
ATOM      7  C   UNL     1       6.303   3.972  14.592  0.00  0.00    +0.000 C 
ATOM      8  C   UNL     1       5.551   3.655  13.525  0.00  0.00    +0.000 C 
BRANCH   8   9
ATOM      9  C   UNL     1       6.117   3.389  12.166  0.00  0.00    +0.000 C 
BRANCH   9  10
ATOM     10  O   UNL     1       5.497   2.196  11.660  0.00  0.00    +0.000 OA
BRANCH  10  11
ATOM     11  C   UNL     1       6.340   1.244  11.183  0.00  0.00    +0.000 C 
ATOM     12  C   UNL     1       7.672   1.839  10.848  0.00  0.00    +0.000 C 
ATOM     13  O   UNL     1       6.074   0.060  11.026  0.00  0.00    +0.000 OA
ENDBRANCH  10  11
ENDBRANCH   9  10
ENDBRANCH   8   9
ENDBRANCH   4   7
BRANCH   6  14
ATOM     14  O   UNL     1       7.076   4.998  19.224  0.00  0.00    +0.000 OA
ATOM     15  C   UNL     1       7.982   6.071  19.062  0.00  0.00    +0.000 C 
ENDBRANCH   6  14
BRANCH   1  16
ATOM     16  O   UNL     1       4.089   5.015  19.729  0.00  0.00    +0.000 OA
BRANCH  16  17
ATOM     17  C   UNL     1       3.277   3.990  20.241  0.00  0.00    +0.000 C 
ATOM     18  O   UNL     1       3.606   2.823  20.404  0.00  0.00    +0.000 OA
BRANCH  17  20
ATOM     19  C   UNL     1       0.787   3.656  20.225  0.00  0.00    +0.000 C 
ATOM     20  C   UNL     1       1.936   4.577  20.607  0.00  0.00    +0.000 C 
ENDBRANCH  17  20
ENDBRANCH  16  17
ENDBRANCH   1  16
TORSDOF 8
ENDMDL
MODEL 2
REMARK VINA RESULT:      -6.7      1.170      1.625
REMARK  Name = 
REMARK  11 active torsions:
REMARK  status: ('A' for Active; 'I' for Inactive)
REMARK    1  A    between atoms: C_1  and  C_2
REMARK    2  A    between atoms: C_2  and  C_3
REMARK    3  A    between atoms: C_3  and  O_5
REMARK    4  A    between atoms: O_5  and  C_6
REMARK    5  A    between atoms: C_9  and  C_10
REMARK    6  A    between atoms: C_11  and  C_12
REMARK    7  A    between atoms: C_12  and  O_13
REMARK    8  A    between atoms: O_13  and  C_14
REMARK    9  A    between atoms: C_14  and  C_15
REMARK   10  A    between atoms: C_18  and  O_19
REMARK   11  A    between atoms: O_19  and  C_20
REMARK                            x       y       z     vdW  Elec       q    Type
REMARK                         _______ _______ _______ _____ _____    ______ ____
ROOT
ATOM      1  C   UNL     1       4.313   4.457  18.803  0.00  0.00    +0.000 A 
ATOM      2  C   UNL     1       3.741   3.898  17.650  0.00  0.00    +0.000 A 
ATOM      3  C   UNL     1       4.481   3.765  16.475  0.00  0.00    +0.000 A 
ATOM      4  C   UNL     1       5.819   4.156  16.442  0.00  0.00    +0.000 A 
ATOM      5  C   UNL     1       6.390   4.685  17.605  0.00  0.00    +0.000 A 
ATOM      6  C   UNL     1       5.663   4.824  18.802  0.00  0.00    +0.000 A 
ENDROOT
BRANCH   4   7
ATOM      7  C   UNL     1       6.551   4.049  15.173  0.00  0.00    +0.000 C 
ATOM      8  C   UNL     1       5.974   3.948  13.964  0.00  0.00    +0.000 C 
BRANCH   8   9
ATOM      9  C   UNL     1       6.746   3.816  12.689  0.00  0.00    +0.000 C 
BRANCH   9  10
ATOM     10  O   UNL     1       5.808   3.868  11.603  0.00  0.00    +0.000 OA
BRANCH  10  11
ATOM     11  C   UNL     1       5.101   2.732  11.372  0.00  0.00    +0.000 C 
ATOM     12  C   UNL     1       3.669   3.053  11.077  0.00  0.00    +0.000 C 
ATOM     13  O   UNL     1       5.541   1.590  11.404  0.00  0.00    +0.000 OA
ENDBRANCH  10  11
ENDBRANCH   9  10
ENDBRANCH   8   9
ENDBRANCH   4   7
BRANCH   6  14
ATOM     14  O   UNL     1       6.446   5.309  19.811  0.00  0.00    +0.000 OA
ATOM     15  C   UNL     1       7.797   5.645  19.567  0.00  0.00    +0.000 C 
ENDBRANCH   6  14
BRANCH   1  16
ATOM     16  O   UNL     1       3.528   4.507  19.973  0.00  0.00    +0.000 OA
BRANCH  16  17
ATOM     17  C   UNL     1       2.535   5.497  20.051  0.00  0.00    +0.000 C 
ATOM     18  O   UNL     1       2.659   6.670  19.725  0.00  0.00    +0.000 OA
BRANCH  17  20
ATOM     19  C   UNL     1       1.313   3.344  20.477  0.00  0.00    +0.000 C 
ATOM     20  C   UNL     1       1.265   4.863  20.561  0.00  0.00    +0.000 C 
ENDBRANCH  17  20
ENDBRANCH  16  17
ENDBRANCH   1  16
TORSDOF 8
ENDMDL
MODEL 3
REMARK VINA RESULT:      -6.5      2.675      7.041
REMARK  Name = 
REMARK  11 active torsions:
REMARK  status: ('A' for Active; 'I' for Inactive)
REMARK    1  A    between atoms: C_1  and  C_2
REMARK    2  A    between atoms: C_2  and  C_3
REMARK    3  A    between atoms: C_3  and  O_5
REMARK    4  A    between atoms: O_5  and  C_6
REMARK    5  A    between atoms: C_9  and  C_10
REMARK    6  A    between atoms: C_11  and  C_12
REMARK    7  A    between atoms: C_12  and  O_13
REMARK    8  A    between atoms: O_13  and  C_14
REMARK    9  A    between atoms: C_14  and  C_15
REMARK   10  A    between atoms: C_18  and  O_19
REMARK   11  A    between atoms: O_19  and  C_20
REMARK                            x       y       z     vdW  Elec       q    Type
REMARK                         _______ _______ _______ _____ _____    ______ ____
ROOT
ATOM      1  C   UNL     1       6.227   6.456  16.793  0.00  0.00    +0.000 A 
ATOM      2  C   UNL     1       5.506   6.428  17.997  0.00  0.00    +0.000 A 
ATOM      3  C   UNL     1       4.483   5.502  18.199  0.00  0.00    +0.000 A 
ATOM      4  C   UNL     1       4.186   4.561  17.214  0.00  0.00    +0.000 A 
ATOM      5  C   UNL     1       4.930   4.576  16.029  0.00  0.00    +0.000 A 
ATOM      6  C   UNL     1       5.969   5.499  15.805  0.00  0.00    +0.000 A 
ENDROOT
BRANCH   4   7
ATOM      7  C   UNL     1       3.068   3.636  17.441  0.00  0.00    +0.000 C 
ATOM      8  C   UNL     1       2.820   3.006  18.601  0.00  0.00    +0.000 C 
BRANCH   8   9
ATOM      9  C   UNL     1       1.687   2.049  18.795  0.00  0.00    +0.000 C 
BRANCH   9  10
ATOM     10  O   UNL     1       0.709   2.692  19.626  0.00  0.00    +0.000 OA
BRANCH  10  11
ATOM     11  C   UNL     1       1.168   3.207  20.796  0.00  0.00    +0.000 C 
ATOM     12  C   UNL     1       1.336   4.692  20.687  0.00  0.00    +0.000 C 
ATOM     13  O   UNL     1       1.430   2.574  21.810  0.00  0.00    +0.000 OA
ENDBRANCH  10  11
ENDBRANCH   9  10
ENDBRANCH   8   9
ENDBRANCH   4   7
BRANCH   6  14
ATOM     14  O   UNL     1       6.584   5.283  14.606  0.00  0.00    +0.000 OA
ATOM     15  C   UNL     1       6.372   4.075  13.902  0.00  0.00    +0.000 C 
ENDBRANCH   6  14
BRANCH   1  16
ATOM     16  O   UNL     1       7.287   7.378  16.678  0.00  0.00    +0.000 OA
BRANCH  16  17
ATOM     17  C   UNL     1       7.932   7.781  17.858  0.00  0.00    +0.000 C 
ATOM     18  O   UNL     1       8.359   7.042  18.735  0.00  0.00    +0.000 OA
BRANCH  17  20
ATOM     19  C   UNL     1       9.029   9.783  18.907  0.00  0.00    +0.000 C 
ATOM     20  C   UNL     1       8.057   9.285  17.847  0.00  0.00    +0.000 C 
ENDBRANCH  17  20
ENDBRANCH  16  17
ENDBRANCH   1  16
TORSDOF 8
ENDMDL
MODEL 4
REMARK VINA RESULT:      -6.4      2.333      7.323
REMARK  Name = 
REMARK  11 active torsions:
REMARK  status: ('A' for Active; 'I' for Inactive)
REMARK    1  A    between atoms: C_1  and  C_2
REMARK    2  A    between atoms: C_2  and  C_3
REMARK    3  A    between atoms: C_3  and  O_5
REMARK    4  A    between atoms: O_5  and  C_6
REMARK    5  A    between atoms: C_9  and  C_10
REMARK    6  A    between atoms: C_11  and  C_12
REMARK    7  A    between atoms: C_12  and  O_13
REMARK    8  A    between atoms: O_13  and  C_14
REMARK    9  A    between atoms: C_14  and  C_15
REMARK   10  A    between atoms: C_18  and  O_19
REMARK   11  A    between atoms: O_19  and  C_20
REMARK                            x       y       z     vdW  Elec       q    Type
REMARK                         _______ _______ _______ _____ _____    ______ ____
ROOT
ATOM      1  C   UNL     1       6.872   4.699  16.168  0.00  0.00    +0.000 A 
ATOM      2  C   UNL     1       5.916   3.737  16.533  0.00  0.00    +0.000 A 
ATOM      3  C   UNL     1       5.019   3.976  17.573  0.00  0.00    +0.000 A 
ATOM      4  C   UNL     1       5.035   5.197  18.245  0.00  0.00    +0.000 A 
ATOM      5  C   UNL     1       5.971   6.162  17.856  0.00  0.00    +0.000 A 
ATOM      6  C   UNL     1       6.883   5.944  16.806  0.00  0.00    +0.000 A 
ENDROOT
BRANCH   4   7
ATOM      7  C   UNL     1       4.110   5.393  19.370  0.00  0.00    +0.000 C 
ATOM      8  C   UNL     1       2.786   5.176  19.316  0.00  0.00    +0.000 C 
BRANCH   8   9
ATOM      9  C   UNL     1       1.864   5.408  20.472  0.00  0.00    +0.000 C 
BRANCH   9  10
ATOM     10  O   UNL     1       2.355   4.643  21.583  0.00  0.00    +0.000 OA
BRANCH  10  11
ATOM     11  C   UNL     1       2.192   3.298  21.499  0.00  0.00    +0.000 C 
ATOM     12  C   UNL     1       0.852   2.966  20.918  0.00  0.00    +0.000 C 
ATOM     13  O   UNL     1       3.001   2.449  21.851  0.00  0.00    +0.000 OA
ENDBRANCH  10  11
ENDBRANCH   9  10
ENDBRANCH   8   9
ENDBRANCH   4   7
BRANCH   6  14
ATOM     14  O   UNL     1       7.654   7.046  16.574  0.00  0.00    +0.000 OA
ATOM     15  C   UNL     1       7.616   8.145  17.463  0.00  0.00    +0.000 C 
ENDBRANCH   6  14
BRANCH   1  16
ATOM     16  O   UNL     1       7.708   4.417  15.070  0.00  0.00    +0.000 OA
BRANCH  16  17
ATOM     17  C   UNL     1       7.284   4.842  13.801  0.00  0.00    +0.000 C 
ATOM     18  O   UNL     1       7.887   5.604  13.057  0.00  0.00    +0.000 OA
BRANCH  17  20
ATOM     19  C   UNL     1       6.066   3.322  12.215  0.00  0.00    +0.000 C 
ATOM     20  C   UNL     1       5.976   4.163  13.479  0.00  0.00    +0.000 C 
ENDBRANCH  17  20
ENDBRANCH  16  17
ENDBRANCH   1  16
TORSDOF 8
ENDMDL
MODEL 5
REMARK VINA RESULT:      -6.3      1.436      2.515
REMARK  Name = 
REMARK  11 active torsions:
REMARK  status: ('A' for Active; 'I' for Inactive)
REMARK    1  A    between atoms: C_1  and  C_2
REMARK    2  A    between atoms: C_2  and  C_3
REMARK    3  A    between atoms: C_3  and  O_5
REMARK    4  A    between atoms: O_5  and  C_6
REMARK    5  A    between atoms: C_9  and  C_10
REMARK    6  A    between atoms: C_11  and  C_12
REMARK    7  A    between atoms: C_12  and  O_13
REMARK    8  A    between atoms: O_13  and  C_14
REMARK    9  A    between atoms: C_14  and  C_15
REMARK   10  A    between atoms: C_18  and  O_19
REMARK   11  A    between atoms: O_19  and  C_20
REMARK                            x       y       z     vdW  Elec       q    Type
REMARK                         _______ _______ _______ _____ _____    ______ ____
ROOT
ATOM      1  C   UNL     1       4.679   4.015  18.580  0.00  0.00    +0.000 A 
ATOM      2  C   UNL     1       5.992   4.491  18.442  0.00  0.00    +0.000 A 
ATOM      3  C   UNL     1       6.591   4.592  17.187  0.00  0.00    +0.000 A 
ATOM      4  C   UNL     1       5.874   4.253  16.040  0.00  0.00    +0.000 A 
ATOM      5  C   UNL     1       4.555   3.808  16.183  0.00  0.00    +0.000 A 
ATOM      6  C   UNL     1       3.930   3.702  17.439  0.00  0.00    +0.000 A 
ENDROOT
BRANCH   4   7
ATOM      7  C   UNL     1       6.555   4.323  14.740  0.00  0.00    +0.000 C 
ATOM      8  C   UNL     1       6.001   3.973  13.568  0.00  0.00    +0.000 C 
BRANCH   8   9
ATOM      9  C   UNL     1       6.728   4.031  12.261  0.00  0.00    +0.000 C 
BRANCH   9  10
ATOM     10  O   UNL     1       6.947   2.682  11.823  0.00  0.00    +0.000 OA
BRANCH  10  11
ATOM     11  C   UNL     1       5.845   2.002  11.416  0.00  0.00    +0.000 C 
ATOM     12  C   UNL     1       6.173   0.560  11.180  0.00  0.00    +0.000 C 
ATOM     13  O   UNL     1       4.728   2.474  11.245  0.00  0.00    +0.000 OA
ENDBRANCH  10  11
ENDBRANCH   9  10
ENDBRANCH   8   9
ENDBRANCH   4   7
BRANCH   6  14
ATOM     14  O   UNL     1       2.630   3.301  17.322  0.00  0.00    +0.000 OA
ATOM     15  C   UNL     1       1.578   4.188  17.647  0.00  0.00    +0.000 C 
ENDBRANCH   6  14
BRANCH   1  16
ATOM     16  O   UNL     1       4.114   3.994  19.870  0.00  0.00    +0.000 OA
BRANCH  16  17
ATOM     17  C   UNL     1       4.021   2.754  20.523  0.00  0.00    +0.000 C 
ATOM     18  O   UNL     1       4.859   1.863  20.500  0.00  0.00    +0.000 OA
BRANCH  17  20
ATOM     19  C   UNL     1       2.006   4.056  21.269  0.00  0.00    +0.000 C 
ATOM     20  C   UNL     1       2.729   2.717  21.301  0.00  0.00    +0.000 C 
ENDBRANCH  17  20
ENDBRANCH  16  17
ENDBRANCH   1  16
TORSDOF 8
ENDMDL
MODEL 6
REMARK VINA RESULT:      -6.3      3.827      9.060
REMARK  Name = 
REMARK  11 active torsions:
REMARK  status: ('A' for Active; 'I' for Inactive)
REMARK    1  A    between atoms: C_1  and  C_2
REMARK    2  A    between atoms: C_2  and  C_3
REMARK    3  A    between atoms: C_3  and  O_5
REMARK    4  A    between atoms: O_5  and  C_6
REMARK    5  A    between atoms: C_9  and  C_10
REMARK    6  A    between atoms: C_11  and  C_12
REMARK    7  A    between atoms: C_12  and  O_13
REMARK    8  A    between atoms: O_13  and  C_14
REMARK    9  A    between atoms: C_14  and  C_15
REMARK   10  A    between atoms: C_18  and  O_19
REMARK   11  A    between atoms: O_19  and  C_20
REMARK                            x       y       z     vdW  Elec       q    Type
REMARK                         _______ _______ _______ _____ _____    ______ ____
ROOT
ATOM      1  C   UNL     1       3.950   5.214  18.078  0.00  0.00    +0.000 A 
ATOM      2  C   UNL     1       3.705   6.527  17.644  0.00  0.00    +0.000 A 
ATOM      3  C   UNL     1       2.917   7.396  18.399  0.00  0.00    +0.000 A 
ATOM      4  C   UNL     1       2.389   6.980  19.621  0.00  0.00    +0.000 A 
ATOM      5  C   UNL     1       2.664   5.680  20.060  0.00  0.00    +0.000 A 
ATOM      6  C   UNL     1       3.459   4.788  19.317  0.00  0.00    +0.000 A 
ENDROOT
BRANCH   4   7
ATOM      7  C   UNL     1       1.522   7.905  20.362  0.00  0.00    +0.000 C 
ATOM      8  C   UNL     1       1.093   9.089  19.897  0.00  0.00    +0.000 C 
BRANCH   8   9
ATOM      9  C   UNL     1       0.229  10.023  20.686  0.00  0.00    +0.000 C 
BRANCH   9  10
ATOM     10  O   UNL     1      -0.323   9.283  21.786  0.00  0.00    +0.000 OA
BRANCH  10  11
ATOM     11  C   UNL     1      -0.284   9.898  22.996  0.00  0.00    +0.000 C 
ATOM     12  C   UNL     1      -1.289  11.006  23.056  0.00  0.00    +0.000 C 
ATOM     13  O   UNL     1       0.464   9.617  23.924  0.00  0.00    +0.000 OA
ENDBRANCH  10  11
ENDBRANCH   9  10
ENDBRANCH   8   9
ENDBRANCH   4   7
BRANCH   6  14
ATOM     14  O   UNL     1       3.631   3.603  19.972  0.00  0.00    +0.000 OA
ATOM     15  C   UNL     1       2.580   3.053  20.742  0.00  0.00    +0.000 C 
ENDBRANCH   6  14
BRANCH   1  16
ATOM     16  O   UNL     1       4.803   4.409  17.297  0.00  0.00    +0.000 OA
BRANCH  16  17
ATOM     17  C   UNL     1       6.184   4.500  17.534  0.00  0.00    +0.000 C 
ATOM     18  O   UNL     1       6.726   4.552  18.630  0.00  0.00    +0.000 OA
BRANCH  17  20
ATOM     19  C   UNL     1       5.941   4.268  15.044  0.00  0.00    +0.000 C 
ATOM     20  C   UNL     1       6.901   4.475  16.206  0.00  0.00    +0.000 C 
ENDBRANCH  17  20
ENDBRANCH  16  17
ENDBRANCH   1  16
TORSDOF 8
ENDMDL
MODEL 7
REMARK VINA RESULT:      -6.2      2.925      8.127
REMARK  Name = 
REMARK  11 active torsions:
REMARK  status: ('A' for Active; 'I' for Inactive)
REMARK    1  A    between atoms: C_1  and  C_2
REMARK    2  A    between atoms: C_2  and  C_3
REMARK    3  A    between atoms: C_3  and  O_5
REMARK    4  A    between atoms: O_5  and  C_6
REMARK    5  A    between atoms: C_9  and  C_10
REMARK    6  A    between atoms: C_11  and  C_12
REMARK    7  A    between atoms: C_12  and  O_13
REMARK    8  A    between atoms: O_13  and  C_14
REMARK    9  A    between atoms: C_14  and  C_15
REMARK   10  A    between atoms: C_18  and  O_19
REMARK   11  A    between atoms: O_19  and  C_20
REMARK                            x       y       z     vdW  Elec       q    Type
REMARK                         _______ _______ _______ _____ _____    ______ ____
ROOT
ATOM      1  C   UNL     1       5.741   4.704  16.232  0.00  0.00    +0.000 A 
ATOM      2  C   UNL     1       4.581   3.956  16.490  0.00  0.00    +0.000 A 
ATOM      3  C   UNL     1       3.552   4.477  17.273  0.00  0.00    +0.000 A 
ATOM      4  C   UNL     1       3.646   5.771  17.785  0.00  0.00    +0.000 A 
ATOM      5  C   UNL     1       4.793   6.520  17.498  0.00  0.00    +0.000 A 
ATOM      6  C   UNL     1       5.842   6.016  16.706  0.00  0.00    +0.000 A 
ENDROOT
BRANCH   4   7
ATOM      7  C   UNL     1       2.567   6.266  18.649  0.00  0.00    +0.000 C 
ATOM      8  C   UNL     1       2.556   6.172  19.988  0.00  0.00    +0.000 C 
BRANCH   8   9
ATOM      9  C   UNL     1       1.429   6.664  20.841  0.00  0.00    +0.000 C 
BRANCH   9  10
ATOM     10  O   UNL     1       1.679   8.046  21.141  0.00  0.00    +0.000 OA
BRANCH  10  11
ATOM     11  C   UNL     1       0.659   8.905  20.880  0.00  0.00    +0.000 C 
ATOM     12  C   UNL     1      -0.363   8.855  21.973  0.00  0.00    +0.000 C 
ATOM     13  O   UNL     1       0.555   9.623  19.895  0.00  0.00    +0.000 OA
ENDBRANCH  10  11
ENDBRANCH   9  10
ENDBRANCH   8   9
ENDBRANCH   4   7
BRANCH   6  14
ATOM     14  O   UNL     1       6.823   6.947  16.520  0.00  0.00    +0.000 OA
ATOM     15  C   UNL     1       7.566   7.432  17.621  0.00  0.00    +0.000 C 
ENDBRANCH   6  14
BRANCH   1  16
ATOM     16  O   UNL     1       6.716   4.141  15.384  0.00  0.00    +0.000 OA
BRANCH  16  17
ATOM     17  C   UNL     1       6.788   4.619  14.066  0.00  0.00    +0.000 C 
ATOM     18  O   UNL     1       7.620   5.403  13.628  0.00  0.00    +0.000 OA
BRANCH  17  20
ATOM     19  C   UNL     1       6.245   3.218  12.053  0.00  0.00    +0.000 C 
ATOM     20  C   UNL     1       5.694   3.967  13.258  0.00  0.00    +0.000 C 
ENDBRANCH  17  20
ENDBRANCH  16  17
ENDBRANCH   1  16
TORSDOF 8
ENDMDL
MODEL 8
REMARK VINA RESULT:      -6.2      3.763      8.420
REMARK  Name = 
REMARK  11 active torsions:
REMARK  status: ('A' for Active; 'I' for Inactive)
REMARK    1  A    between atoms: C_1  and  C_2
REMARK    2  A    between atoms: C_2  and  C_3
REMARK    3  A    between atoms: C_3  and  O_5
REMARK    4  A    between atoms: O_5  and  C_6
REMARK    5  A    between atoms: C_9  and  C_10
REMARK    6  A    between atoms: C_11  and  C_12
REMARK    7  A    between atoms: C_12  and  O_13
REMARK    8  A    between atoms: O_13  and  C_14
REMARK    9  A    between atoms: C_14  and  C_15
REMARK   10  A    between atoms: C_18  and  O_19
REMARK   11  A    between atoms: O_19  and  C_20
REMARK                            x       y       z     vdW  Elec       q    Type
REMARK                         _______ _______ _______ _____ _____    ______ ____
ROOT
ATOM      1  C   UNL     1       4.581   4.714  16.889  0.00  0.00    +0.000 A 
ATOM      2  C   UNL     1       4.925   6.058  16.674  0.00  0.00    +0.000 A 
ATOM      3  C   UNL     1       4.179   7.089  17.243  0.00  0.00    +0.000 A 
ATOM      4  C   UNL     1       3.093   6.796  18.068  0.00  0.00    +0.000 A 
ATOM      5  C   UNL     1       2.775   5.453  18.301  0.00  0.00    +0.000 A 
ATOM      6  C   UNL     1       3.517   4.396  17.741  0.00  0.00    +0.000 A 
ENDROOT
BRANCH   4   7
ATOM      7  C   UNL     1       2.299   7.908  18.607  0.00  0.00    +0.000 C 
ATOM      8  C   UNL     1       1.629   8.800  17.860  0.00  0.00    +0.000 C 
BRANCH   8   9
ATOM      9  C   UNL     1       0.848   9.939  18.437  0.00  0.00    +0.000 C 
BRANCH   9  10
ATOM     10  O   UNL     1       1.038   9.922  19.860  0.00  0.00    +0.000 OA
BRANCH  10  11
ATOM     11  C   UNL     1      -0.093   9.959  20.611  0.00  0.00    +0.000 C 
ATOM     12  C   UNL     1      -0.161   8.770  21.519  0.00  0.00    +0.000 C 
ATOM     13  O   UNL     1      -0.959  10.822  20.568  0.00  0.00    +0.000 OA
ENDBRANCH  10  11
ENDBRANCH   9  10
ENDBRANCH   8   9
ENDBRANCH   4   7
BRANCH   6  14
ATOM     14  O   UNL     1       3.052   3.181  18.156  0.00  0.00    +0.000 OA
ATOM     15  C   UNL     1       1.673   2.990  18.400  0.00  0.00    +0.000 C 
ENDBRANCH   6  14
BRANCH   1  16
ATOM     16  O   UNL     1       5.412   3.721  16.334  0.00  0.00    +0.000 OA
BRANCH  16  17
ATOM     17  C   UNL     1       6.326   4.114  15.343  0.00  0.00    +0.000 C 
ATOM     18  O   UNL     1       7.451   4.556  15.533  0.00  0.00    +0.000 OA
BRANCH  17  20
ATOM     19  C   UNL     1       6.701   4.070  12.859  0.00  0.00    +0.000 C 
ATOM     20  C   UNL     1       5.707   3.856  13.991  0.00  0.00    +0.000 C 
ENDBRANCH  17  20
ENDBRANCH  16  17
ENDBRANCH   1  16
TORSDOF 8
ENDMDL
MODEL 9
REMARK VINA RESULT:      -6.2      4.291      8.103
REMARK  Name = 
REMARK  11 active torsions:
REMARK  status: ('A' for Active; 'I' for Inactive)
REMARK    1  A    between atoms: C_1  and  C_2
REMARK    2  A    between atoms: C_2  and  C_3
REMARK    3  A    between atoms: C_3  and  O_5
REMARK    4  A    between atoms: O_5  and  C_6
REMARK    5  A    between atoms: C_9  and  C_10
REMARK    6  A    between atoms: C_11  and  C_12
REMARK    7  A    between atoms: C_12  and  O_13
REMARK    8  A    between atoms: O_13  and  C_14
REMARK    9  A    between atoms: C_14  and  C_15
REMARK   10  A    between atoms: C_18  and  O_19
REMARK   11  A    between atoms: O_19  and  C_20
REMARK                            x       y       z     vdW  Elec       q    Type
REMARK                         _______ _______ _______ _____ _____    ______ ____
ROOT
ATOM      1  C   UNL     1       4.809   5.055  17.011  0.00  0.00    +0.000 A 
ATOM      2  C   UNL     1       5.111   6.423  16.916  0.00  0.00    +0.000 A 
ATOM      3  C   UNL     1       4.210   7.389  17.362  0.00  0.00    +0.000 A 
ATOM      4  C   UNL     1       3.003   7.004  17.946  0.00  0.00    +0.000 A 
ATOM      5  C   UNL     1       2.723   5.638  18.064  0.00  0.00    +0.000 A 
ATOM      6  C   UNL     1       3.620   4.646  17.624  0.00  0.00    +0.000 A 
ENDROOT
BRANCH   4   7
ATOM      7  C   UNL     1       2.056   8.050  18.356  0.00  0.00    +0.000 C 
ATOM      8  C   UNL     1       2.128   9.336  17.978  0.00  0.00    +0.000 C 
BRANCH   8   9
ATOM      9  C   UNL     1       1.162  10.385  18.433  0.00  0.00    +0.000 C 
BRANCH   9  10
ATOM     10  O   UNL     1      -0.119   9.758  18.594  0.00  0.00    +0.000 OA
BRANCH  10  11
ATOM     11  C   UNL     1      -1.135  10.284  17.861  0.00  0.00    +0.000 C 
ATOM     12  C   UNL     1      -1.353  11.722  18.219  0.00  0.00    +0.000 C 
ATOM     13  O   UNL     1      -1.806   9.690  17.027  0.00  0.00    +0.000 OA
ENDBRANCH  10  11
ENDBRANCH   9  10
ENDBRANCH   8   9
ENDBRANCH   4   7
BRANCH   6  14
ATOM     14  O   UNL     1       3.154   3.392  17.896  0.00  0.00    +0.000 OA
ATOM     15  C   UNL     1       3.620   2.688  19.030  0.00  0.00    +0.000 C 
ENDBRANCH   6  14
BRANCH   1  16
ATOM     16  O   UNL     1       5.789   4.131  16.597  0.00  0.00    +0.000 OA
BRANCH  16  17
ATOM     17  C   UNL     1       6.476   4.400  15.402  0.00  0.00    +0.000 C 
ATOM     18  O   UNL     1       7.623   4.816  15.308  0.00  0.00    +0.000 OA
BRANCH  17  20
ATOM     19  C   UNL     1       6.371   3.796  12.966  0.00  0.00    +0.000 C 
ATOM     20  C   UNL     1       5.580   4.045  14.242  0.00  0.00    +0.000 C 
ENDBRANCH  17  20
ENDBRANCH  16  17
ENDBRANCH   1  16
TORSDOF 8
ENDMDL
