MODEL 1
REMARK VINA RESULT:      -7.6      0.000      0.000
REMARK  Name = 
REMARK  6 active torsions:
REMARK  status: ('A' for Active; 'I' for Inactive)
REMARK    1  A    between atoms: C_1  and  C_2
REMARK    2  A    between atoms: C_2  and  C_3
REMARK    3  A    between atoms: N_13  and  C_14
REMARK    4  A    between atoms: C_14  and  C_15
REMARK    5  A    between atoms: N_17  and  C_18
REMARK    6  A    between atoms: C_18  and  C_19
REMARK                            x       y       z     vdW  Elec       q    Type
REMARK                         _______ _______ _______ _____ _____    ______ ____
ROOT
ATOM      1  C   UNL     1       0.674   3.798  20.544  0.00  0.00    +0.000 C 
ATOM      2  C   UNL     1       1.889   4.409  19.854  0.00  0.00    +0.000 C 
ATOM      3  N   UNL     1       3.122   3.913  20.426  0.00  0.00    +0.000 N 
ATOM      4  C   UNL     1       3.985   3.436  19.466  0.00  0.00    +0.000 C 
ATOM      5  O   UNL     1       5.165   3.211  19.668  0.00  0.00    +0.000 OA
ATOM      6  N   UNL     1       3.306   3.301  18.300  0.00  0.00    +0.000 N 
ATOM      7  C   UNL     1       2.063   3.851  18.419  0.00  0.00    +0.000 C 
ATOM      8  O   UNL     1       1.281   4.004  17.484  0.00  0.00    +0.000 OA
ATOM      9  H   UNL     1       3.480   4.156  21.340  0.00  0.00    +0.000 HD
ENDROOT
BRANCH   2  10
ATOM     10  C   UNL     1       1.816   5.937  19.802  0.00  0.00    +0.000 A 
ATOM     11  C   UNL     1       2.274   6.614  18.655  0.00  0.00    +0.000 A 
ATOM     12  C   UNL     1       2.294   8.007  18.590  0.00  0.00    +0.000 A 
ATOM     13  C   UNL     1       1.836   8.756  19.666  0.00  0.00    +0.000 A 
ATOM     14  C   UNL     1       1.356   8.112  20.801  0.00  0.00    +0.000 A 
ATOM     15 BR   UNL     1       0.729   9.146  22.255  0.00  0.00    +0.000 Br
ATOM     16  C   UNL     1       1.344   6.712  20.879  0.00  0.00    +0.000 A 
ENDBRANCH   2  10
BRANCH   6  17
ATOM     17  C   UNL     1       3.891   2.814  17.068  0.00  0.00    +0.000 C 
BRANCH  17  18
ATOM     18  C   UNL     1       4.761   3.858  16.371  0.00  0.00    +0.000 C 
ATOM     19  O   UNL     1       4.344   5.003  16.188  0.00  0.00    +0.000 OA
ATOM     20  N   UNL     1       6.066   3.514  16.100  0.00  0.00    +0.000 N 
ATOM     21  H   UNL     1       6.473   2.681  16.518  0.00  0.00    +0.000 HD
BRANCH  20  22
ATOM     22  C   UNL     1       6.960   4.466  15.463  0.00  0.00    +0.000 C 
BRANCH  22  23
ATOM     23  C   UNL     1       7.770   5.320  16.441  0.00  0.00    +0.000 C 
ATOM     24  C   UNL     1       7.107   6.642  16.792  0.00  0.00    +0.000 C 
ATOM     25  C   UNL     1       7.727   6.946  18.133  0.00  0.00    +0.000 C 
ATOM     26  C   UNL     1       7.840   5.574  18.763  0.00  0.00    +0.000 C 
ATOM     27  O   UNL     1       7.904   4.619  17.694  0.00  0.00    +0.000 OA
ENDBRANCH  22  23
ENDBRANCH  20  22
ENDBRANCH  17  18
ENDBRANCH   6  17
TORSDOF 5
ENDMDL
MODEL 2
REMARK VINA RESULT:      -7.4      3.756      5.713
REMARK  Name = 
REMARK  6 active torsions:
REMARK  status: ('A' for Active; 'I' for Inactive)
REMARK    1  A    between atoms: C_1  and  C_2
REMARK    2  A    between atoms: C_2  and  C_3
REMARK    3  A    between atoms: N_13  and  C_14
REMARK    4  A    between atoms: C_14  and  C_15
REMARK    5  A    between atoms: N_17  and  C_18
REMARK    6  A    between atoms: C_18  and  C_19
REMARK                            x       y       z     vdW  Elec       q    Type
REMARK                         _______ _______ _______ _____ _____    ______ ____
ROOT
ATOM      1  C   UNL     1       4.943   4.953  15.291  0.00  0.00    +0.000 C 
ATOM      2  C   UNL     1       5.387   4.678  16.724  0.00  0.00    +0.000 C 
ATOM      3  N   UNL     1       6.653   3.978  16.756  0.00  0.00    +0.000 N 
ATOM      4  C   UNL     1       7.566   4.594  17.581  0.00  0.00    +0.000 C 
ATOM      5  O   UNL     1       8.593   4.065  17.969  0.00  0.00    +0.000 OA
ATOM      6  N   UNL     1       7.109   5.833  17.889  0.00  0.00    +0.000 N 
ATOM      7  C   UNL     1       5.830   5.981  17.437  0.00  0.00    +0.000 C 
ATOM      8  O   UNL     1       5.111   6.943  17.696  0.00  0.00    +0.000 OA
ATOM      9  H   UNL     1       6.791   3.011  16.495  0.00  0.00    +0.000 HD
ENDROOT
BRANCH   2  10
ATOM     10  C   UNL     1       4.294   3.992  17.547  0.00  0.00    +0.000 A 
ATOM     11  C   UNL     1       3.849   2.709  17.174  0.00  0.00    +0.000 A 
ATOM     12  C   UNL     1       2.806   2.075  17.850  0.00  0.00    +0.000 A 
ATOM     13  C   UNL     1       2.199   2.702  18.930  0.00  0.00    +0.000 A 
ATOM     14  C   UNL     1       2.636   3.959  19.333  0.00  0.00    +0.000 A 
ATOM     15 BR   UNL     1       1.804   4.798  20.810  0.00  0.00    +0.000 Br
ATOM     16  C   UNL     1       3.675   4.608  18.651  0.00  0.00    +0.000 A 
ENDBRANCH   2  10
BRANCH   6  17
ATOM     17  C   UNL     1       7.813   6.776  18.731  0.00  0.00    +0.000 C 
BRANCH  17  18
ATOM     18  C   UNL     1       8.181   8.066  18.000  0.00  0.00    +0.000 C 
ATOM     19  O   UNL     1       7.995   8.175  16.787  0.00  0.00    +0.000 OA
ATOM     20  N   UNL     1       8.577   9.137  18.769  0.00  0.00    +0.000 N 
ATOM     21  H   UNL     1       8.443   9.121  19.776  0.00  0.00    +0.000 HD
BRANCH  20  22
ATOM     22  C   UNL     1       8.915  10.405  18.143  0.00  0.00    +0.000 C 
BRANCH  22  23
ATOM     23  C   UNL     1       9.426  11.470  19.116  0.00  0.00    +0.000 C 
ATOM     24  C   UNL     1      10.795  11.159  19.699  0.00  0.00    +0.000 C 
ATOM     25  C   UNL     1      11.291  12.536  20.061  0.00  0.00    +0.000 C 
ATOM     26  C   UNL     1      10.746  13.389  18.936  0.00  0.00    +0.000 C 
ATOM     27  O   UNL     1       9.587  12.721  18.417  0.00  0.00    +0.000 OA
ENDBRANCH  22  23
ENDBRANCH  20  22
ENDBRANCH  17  18
ENDBRANCH   6  17
TORSDOF 5
ENDMDL
MODEL 3
REMARK VINA RESULT:      -7.4      3.531      4.640
REMARK  Name = 
REMARK  6 active torsions:
REMARK  status: ('A' for Active; 'I' for Inactive)
REMARK    1  A    between atoms: C_1  and  C_2
REMARK    2  A    between atoms: C_2  and  C_3
REMARK    3  A    between atoms: N_13  and  C_14
REMARK    4  A    between atoms: C_14  and  C_15
REMARK    5  A    between atoms: N_17  and  C_18
REMARK    6  A    between atoms: C_18  and  C_19
REMARK                            x       y       z     vdW  Elec       q    Type
REMARK                         _______ _______ _______ _____ _____    ______ ____
ROOT
ATOM      1  C   UNL     1       3.511   4.474  17.221  0.00  0.00    +0.000 C 
ATOM      2  C   UNL     1       4.206   5.624  17.945  0.00  0.00    +0.000 C 
ATOM      3  N   UNL     1       4.970   5.146  19.077  0.00  0.00    +0.000 N 
ATOM      4  C   UNL     1       6.267   5.608  19.060  0.00  0.00    +0.000 C 
ATOM      5  O   UNL     1       7.015   5.559  20.019  0.00  0.00    +0.000 OA
ATOM      6  N   UNL     1       6.526   6.132  17.836  0.00  0.00    +0.000 N 
ATOM      7  C   UNL     1       5.376   6.194  17.104  0.00  0.00    +0.000 C 
ATOM      8  O   UNL     1       5.278   6.754  16.015  0.00  0.00    +0.000 OA
ATOM      9  H   UNL     1       4.577   4.799  19.941  0.00  0.00    +0.000 HD
ENDROOT
BRANCH   2  10
ATOM     10  C   UNL     1       3.236   6.753  18.301  0.00  0.00    +0.000 A 
ATOM     11  C   UNL     1       2.978   7.767  17.358  0.00  0.00    +0.000 A 
ATOM     12  C   UNL     1       2.157   8.853  17.664  0.00  0.00    +0.000 A 
ATOM     13  C   UNL     1       1.559   8.938  18.914  0.00  0.00    +0.000 A 
ATOM     14  C   UNL     1       1.778   7.937  19.854  0.00  0.00    +0.000 A 
ATOM     15 BR   UNL     1       0.951   8.063  21.550  0.00  0.00    +0.000 Br
ATOM     16  C   UNL     1       2.611   6.849  19.559  0.00  0.00    +0.000 A 
ENDBRANCH   2  10
BRANCH   6  17
ATOM     17  C   UNL     1       7.797   6.706  17.448  0.00  0.00    +0.000 C 
BRANCH  17  18
ATOM     18  C   UNL     1       7.919   8.183  17.818  0.00  0.00    +0.000 C 
ATOM     19  O   UNL     1       7.152   9.017  17.332  0.00  0.00    +0.000 OA
ATOM     20  N   UNL     1       8.804   8.514  18.818  0.00  0.00    +0.000 N 
ATOM     21  H   UNL     1       9.208   7.788  19.404  0.00  0.00    +0.000 HD
BRANCH  20  22
ATOM     22  C   UNL     1       8.952   9.896  19.241  0.00  0.00    +0.000 C 
BRANCH  22  23
ATOM     23  C   UNL     1       9.801  10.755  18.302  0.00  0.00    +0.000 C 
ATOM     24  C   UNL     1       9.116  12.038  17.861  0.00  0.00    +0.000 C 
ATOM     25  C   UNL     1      10.297  12.913  17.521  0.00  0.00    +0.000 C 
ATOM     26  C   UNL     1      11.313  12.517  18.571  0.00  0.00    +0.000 C 
ATOM     27  O   UNL     1      10.996  11.181  18.988  0.00  0.00    +0.000 OA
ENDBRANCH  22  23
ENDBRANCH  20  22
ENDBRANCH  17  18
ENDBRANCH   6  17
TORSDOF 5
ENDMDL
MODEL 4
REMARK VINA RESULT:      -7.4      3.327      6.976
REMARK  Name = 
REMARK  6 active torsions:
REMARK  status: ('A' for Active; 'I' for Inactive)
REMARK    1  A    between atoms: C_1  and  C_2
REMARK    2  A    between atoms: C_2  and  C_3
REMARK    3  A    between atoms: N_13  and  C_14
REMARK    4  A    between atoms: C_14  and  C_15
REMARK    5  A    between atoms: N_17  and  C_18
REMARK    6  A    between atoms: C_18  and  C_19
REMARK                            x       y       z     vdW  Elec       q    Type
REMARK                         _______ _______ _______ _____ _____    ______ ____
ROOT
ATOM      1  C   UNL     1       7.675   4.415  17.226  0.00  0.00    +0.000 C 
ATOM      2  C   UNL     1       6.422   4.712  16.409  0.00  0.00    +0.000 C 
ATOM      3  N   UNL     1       5.294   3.935  16.877  0.00  0.00    +0.000 N 
ATOM      4  C   UNL     1       4.189   4.719  17.121  0.00  0.00    +0.000 C 
ATOM      5  O   UNL     1       3.065   4.276  17.269  0.00  0.00    +0.000 OA
ATOM      6  N   UNL     1       4.572   6.020  17.131  0.00  0.00    +0.000 N 
ATOM      7  C   UNL     1       5.869   6.126  16.719  0.00  0.00    +0.000 C 
ATOM      8  O   UNL     1       6.439   7.191  16.492  0.00  0.00    +0.000 OA
ATOM      9  H   UNL     1       5.179   2.939  16.749  0.00  0.00    +0.000 HD
ENDROOT
BRANCH   2  10
ATOM     10  C   UNL     1       6.667   4.578  14.905  0.00  0.00    +0.000 A 
ATOM     11  C   UNL     1       7.757   5.251  14.318  0.00  0.00    +0.000 A 
ATOM     12  C   UNL     1       7.979   5.217  12.941  0.00  0.00    +0.000 A 
ATOM     13  C   UNL     1       7.126   4.490  12.122  0.00  0.00    +0.000 A 
ATOM     14  C   UNL     1       6.057   3.797  12.678  0.00  0.00    +0.000 A 
ATOM     15 BR   UNL     1       4.909   2.805  11.549  0.00  0.00    +0.000 Br
ATOM     16  C   UNL     1       5.820   3.836  14.060  0.00  0.00    +0.000 A 
ENDBRANCH   2  10
BRANCH   6  17
ATOM     17  C   UNL     1       3.676   7.132  17.367  0.00  0.00    +0.000 C 
BRANCH  17  18
ATOM     18  C   UNL     1       2.899   7.002  18.675  0.00  0.00    +0.000 C 
ATOM     19  O   UNL     1       1.880   7.667  18.869  0.00  0.00    +0.000 OA
ATOM     20  N   UNL     1       3.291   6.012  19.548  0.00  0.00    +0.000 N 
ATOM     21  H   UNL     1       3.938   5.289  19.244  0.00  0.00    +0.000 HD
BRANCH  20  22
ATOM     22  C   UNL     1       2.580   5.812  20.799  0.00  0.00    +0.000 C 
BRANCH  22  23
ATOM     23  C   UNL     1       2.023   4.399  20.988  0.00  0.00    +0.000 C 
ATOM     24  C   UNL     1       0.854   4.077  20.071  0.00  0.00    +0.000 C 
ATOM     25  C   UNL     1       0.927   2.571  20.004  0.00  0.00    +0.000 C 
ATOM     26  C   UNL     1       2.418   2.313  20.013  0.00  0.00    +0.000 C 
ATOM     27  O   UNL     1       3.041   3.433  20.658  0.00  0.00    +0.000 OA
ENDBRANCH  22  23
ENDBRANCH  20  22
ENDBRANCH  17  18
ENDBRANCH   6  17
TORSDOF 5
ENDMDL
MODEL 5
REMARK VINA RESULT:      -7.3      1.150      1.425
REMARK  Name = 
REMARK  6 active torsions:
REMARK  status: ('A' for Active; 'I' for Inactive)
REMARK    1  A    between atoms: C_1  and  C_2
REMARK    2  A    between atoms: C_2  and  C_3
REMARK    3  A    between atoms: N_13  and  C_14
REMARK    4  A    between atoms: C_14  and  C_15
REMARK    5  A    between atoms: N_17  and  C_18
REMARK    6  A    between atoms: C_18  and  C_19
REMARK                            x       y       z     vdW  Elec       q    Type
REMARK                         _______ _______ _______ _____ _____    ______ ____
ROOT
ATOM      1  C   UNL     1       0.809   3.698  20.460  0.00  0.00    +0.000 C 
ATOM      2  C   UNL     1       2.007   4.360  19.785  0.00  0.00    +0.000 C 
ATOM      3  N   UNL     1       3.253   3.907  20.365  0.00  0.00    +0.000 N 
ATOM      4  C   UNL     1       4.141   3.469  19.409  0.00  0.00    +0.000 C 
ATOM      5  O   UNL     1       5.327   3.288  19.621  0.00  0.00    +0.000 OA
ATOM      6  N   UNL     1       3.479   3.317  18.236  0.00  0.00    +0.000 N 
ATOM      7  C   UNL     1       2.215   3.818  18.348  0.00  0.00    +0.000 C 
ATOM      8  O   UNL     1       1.435   3.948  17.407  0.00  0.00    +0.000 OA
ATOM      9  H   UNL     1       3.593   4.157  21.284  0.00  0.00    +0.000 HD
ENDROOT
BRANCH   2  10
ATOM     10  C   UNL     1       1.876   5.884  19.742  0.00  0.00    +0.000 A 
ATOM     11  C   UNL     1       2.277   6.581  18.586  0.00  0.00    +0.000 A 
ATOM     12  C   UNL     1       2.244   7.975  18.527  0.00  0.00    +0.000 A 
ATOM     13  C   UNL     1       1.788   8.702  19.619  0.00  0.00    +0.000 A 
ATOM     14  C   UNL     1       1.365   8.037  20.764  0.00  0.00    +0.000 A 
ATOM     15 BR   UNL     1       0.740   9.041  22.239  0.00  0.00    +0.000 Br
ATOM     16  C   UNL     1       1.406   6.637  20.835  0.00  0.00    +0.000 A 
ENDBRANCH   2  10
BRANCH   6  17
ATOM     17  C   UNL     1       4.092   2.861  17.007  0.00  0.00    +0.000 C 
BRANCH  17  18
ATOM     18  C   UNL     1       5.163   3.817  16.487  0.00  0.00    +0.000 C 
ATOM     19  O   UNL     1       5.974   3.449  15.635  0.00  0.00    +0.000 OA
ATOM     20  N   UNL     1       5.087   5.131  16.890  0.00  0.00    +0.000 N 
ATOM     21  H   UNL     1       4.249   5.477  17.351  0.00  0.00    +0.000 HD
BRANCH  20  22
ATOM     22  C   UNL     1       6.056   6.104  16.412  0.00  0.00    +0.000 C 
BRANCH  22  23
ATOM     23  C   UNL     1       6.567   7.064  17.489  0.00  0.00    +0.000 C 
ATOM     24  C   UNL     1       7.767   6.536  18.258  0.00  0.00    +0.000 C 
ATOM     25  C   UNL     1       8.406   7.815  18.740  0.00  0.00    +0.000 C 
ATOM     26  C   UNL     1       8.175   8.757  17.578  0.00  0.00    +0.000 C 
ATOM     27  O   UNL     1       7.021   8.284  16.868  0.00  0.00    +0.000 OA
ENDBRANCH  22  23
ENDBRANCH  20  22
ENDBRANCH  17  18
ENDBRANCH   6  17
TORSDOF 5
ENDMDL
MODEL 6
REMARK VINA RESULT:      -7.3      1.603      2.546
REMARK  Name = 
REMARK  6 active torsions:
REMARK  status: ('A' for Active; 'I' for Inactive)
REMARK    1  A    between atoms: C_1  and  C_2
REMARK    2  A    between atoms: C_2  and  C_3
REMARK    3  A    between atoms: N_13  and  C_14
REMARK    4  A    between atoms: C_14  and  C_15
REMARK    5  A    between atoms: N_17  and  C_18
REMARK    6  A    between atoms: C_18  and  C_19
REMARK                            x       y       z     vdW  Elec       q    Type
REMARK                         _______ _______ _______ _____ _____    ______ ____
ROOT
ATOM      1  C   UNL     1       1.000   4.486  20.644  0.00  0.00    +0.000 C 
ATOM      2  C   UNL     1       2.130   5.081  19.811  0.00  0.00    +0.000 C 
ATOM      3  N   UNL     1       3.421   4.803  20.401  0.00  0.00    +0.000 N 
ATOM      4  C   UNL     1       4.298   4.252  19.495  0.00  0.00    +0.000 C 
ATOM      5  O   UNL     1       5.499   4.173  19.678  0.00  0.00    +0.000 OA
ATOM      6  N   UNL     1       3.603   3.863  18.397  0.00  0.00    +0.000 N 
ATOM      7  C   UNL     1       2.317   4.309  18.480  0.00  0.00    +0.000 C 
ATOM      8  O   UNL     1       1.496   4.232  17.568  0.00  0.00    +0.000 OA
ATOM      9  H   UNL     1       3.779   5.227  21.246  0.00  0.00    +0.000 HD
ENDROOT
BRANCH   2  10
ATOM     10  C   UNL     1       1.907   6.566  19.513  0.00  0.00    +0.000 A 
ATOM     11  C   UNL     1       2.232   7.073  18.239  0.00  0.00    +0.000 A 
ATOM     12  C   UNL     1       2.113   8.432  17.944  0.00  0.00    +0.000 A 
ATOM     13  C   UNL     1       1.646   9.311  18.912  0.00  0.00    +0.000 A 
ATOM     14  C   UNL     1       1.297   8.832  20.170  0.00  0.00    +0.000 A 
ATOM     15 BR   UNL     1       0.656  10.042  21.474  0.00  0.00    +0.000 Br
ATOM     16  C   UNL     1       1.424   7.470  20.478  0.00  0.00    +0.000 A 
ENDBRANCH   2  10
BRANCH   6  17
ATOM     17  C   UNL     1       4.197   3.233  17.238  0.00  0.00    +0.000 C 
BRANCH  17  18
ATOM     18  C   UNL     1       5.039   4.196  16.404  0.00  0.00    +0.000 C 
ATOM     19  O   UNL     1       4.651   5.347  16.191  0.00  0.00    +0.000 OA
ATOM     20  N   UNL     1       6.300   3.782  16.039  0.00  0.00    +0.000 N 
ATOM     21  H   UNL     1       6.711   2.957  16.469  0.00  0.00    +0.000 HD
BRANCH  20  22
ATOM     22  C   UNL     1       7.168   4.657  15.269  0.00  0.00    +0.000 C 
BRANCH  22  23
ATOM     23  C   UNL     1       6.759   4.818  13.803  0.00  0.00    +0.000 C 
ATOM     24  C   UNL     1       7.922   5.131  12.877  0.00  0.00    +0.000 C 
ATOM     25  C   UNL     1       7.399   4.632  11.553  0.00  0.00    +0.000 C 
ATOM     26  C   UNL     1       6.615   3.400  11.952  0.00  0.00    +0.000 C 
ATOM     27  O   UNL     1       6.211   3.576  13.317  0.00  0.00    +0.000 OA
ENDBRANCH  22  23
ENDBRANCH  20  22
ENDBRANCH  17  18
ENDBRANCH   6  17
TORSDOF 5
ENDMDL
MODEL 7
REMARK VINA RESULT:      -7.3      1.396      1.862
REMARK  Name = 
REMARK  6 active torsions:
REMARK  status: ('A' for Active; 'I' for Inactive)
REMARK    1  A    between atoms: C_1  and  C_2
REMARK    2  A    between atoms: C_2  and  C_3
REMARK    3  A    between atoms: N_13  and  C_14
REMARK    4  A    between atoms: C_14  and  C_15
REMARK    5  A    between atoms: N_17  and  C_18
REMARK    6  A    between atoms: C_18  and  C_19
REMARK                            x       y       z     vdW  Elec       q    Type
REMARK                         _______ _______ _______ _____ _____    ______ ____
ROOT
ATOM      1  C   UNL     1       0.681   3.303  20.216  0.00  0.00    +0.000 C 
ATOM      2  C   UNL     1       1.974   3.966  19.752  0.00  0.00    +0.000 C 
ATOM      3  N   UNL     1       3.127   3.384  20.407  0.00  0.00    +0.000 N 
ATOM      4  C   UNL     1       4.097   3.003  19.508  0.00  0.00    +0.000 C 
ATOM      5  O   UNL     1       5.242   2.735  19.823  0.00  0.00    +0.000 OA
ATOM      6  N   UNL     1       3.564   3.015  18.262  0.00  0.00    +0.000 N 
ATOM      7  C   UNL     1       2.318   3.571  18.294  0.00  0.00    +0.000 C 
ATOM      8  O   UNL     1       1.656   3.845  17.296  0.00  0.00    +0.000 OA
ATOM      9  H   UNL     1       3.372   3.514  21.379  0.00  0.00    +0.000 HD
ENDROOT
BRANCH   2  10
ATOM     10  C   UNL     1       1.916   5.491  19.869  0.00  0.00    +0.000 A 
ATOM     11  C   UNL     1       1.420   6.076  21.050  0.00  0.00    +0.000 A 
ATOM     12  C   UNL     1       1.282   7.459  21.175  0.00  0.00    +0.000 A 
ATOM     13  C   UNL     1       1.657   8.289  20.127  0.00  0.00    +0.000 A 
ATOM     14  C   UNL     1       2.171   7.737  18.959  0.00  0.00    +0.000 A 
ATOM     15 BR   UNL     1       2.684   8.881  17.543  0.00  0.00    +0.000 Br
ATOM     16  C   UNL     1       2.302   6.348  18.821  0.00  0.00    +0.000 A 
ENDBRANCH   2  10
BRANCH   6  17
ATOM     17  C   UNL     1       4.291   2.661  17.061  0.00  0.00    +0.000 C 
BRANCH  17  18
ATOM     18  C   UNL     1       5.152   3.805  16.529  0.00  0.00    +0.000 C 
ATOM     19  O   UNL     1       4.713   4.576  15.673  0.00  0.00    +0.000 OA
ATOM     20  N   UNL     1       6.360   4.027  17.148  0.00  0.00    +0.000 N 
ATOM     21  H   UNL     1       6.573   3.574  18.033  0.00  0.00    +0.000 HD
BRANCH  20  22
ATOM     22  C   UNL     1       7.220   5.116  16.713  0.00  0.00    +0.000 C 
BRANCH  22  23
ATOM     23  C   UNL     1       7.125   6.376  17.575  0.00  0.00    +0.000 C 
ATOM     24  C   UNL     1       8.193   6.459  18.654  0.00  0.00    +0.000 C 
ATOM     25  C   UNL     1       8.269   7.947  18.892  0.00  0.00    +0.000 C 
ATOM     26  C   UNL     1       8.065   8.514  17.504  0.00  0.00    +0.000 C 
ATOM     27  O   UNL     1       7.329   7.540  16.750  0.00  0.00    +0.000 OA
ENDBRANCH  22  23
ENDBRANCH  20  22
ENDBRANCH  17  18
ENDBRANCH   6  17
TORSDOF 5
ENDMDL
MODEL 8
REMARK VINA RESULT:      -7.2      2.588      4.255
REMARK  Name = 
REMARK  6 active torsions:
REMARK  status: ('A' for Active; 'I' for Inactive)
REMARK    1  A    between atoms: C_1  and  C_2
REMARK    2  A    between atoms: C_2  and  C_3
REMARK    3  A    between atoms: N_13  and  C_14
REMARK    4  A    between atoms: C_14  and  C_15
REMARK    5  A    between atoms: N_17  and  C_18
REMARK    6  A    between atoms: C_18  and  C_19
REMARK                            x       y       z     vdW  Elec       q    Type
REMARK                         _______ _______ _______ _____ _____    ______ ____
ROOT
ATOM      1  C   UNL     1       4.083   1.749  18.377  0.00  0.00    +0.000 C 
ATOM      2  C   UNL     1       4.232   3.230  18.711  0.00  0.00    +0.000 C 
ATOM      3  N   UNL     1       5.477   3.489  19.402  0.00  0.00    +0.000 N 
ATOM      4  C   UNL     1       6.194   4.507  18.816  0.00  0.00    +0.000 C 
ATOM      5  O   UNL     1       7.128   5.073  19.354  0.00  0.00    +0.000 OA
ATOM      6  N   UNL     1       5.663   4.767  17.596  0.00  0.00    +0.000 N 
ATOM      7  C   UNL     1       4.500   4.071  17.438  0.00  0.00    +0.000 C 
ATOM      8  O   UNL     1       3.727   4.219  16.494  0.00  0.00    +0.000 OA
ATOM      9  H   UNL     1       5.681   3.221  20.356  0.00  0.00    +0.000 HD
ENDROOT
BRANCH   2  10
ATOM     10  C   UNL     1       3.006   3.784  19.441  0.00  0.00    +0.000 A 
ATOM     11  C   UNL     1       1.936   2.921  19.751  0.00  0.00    +0.000 A 
ATOM     12  C   UNL     1       0.769   3.395  20.351  0.00  0.00    +0.000 A 
ATOM     13  C   UNL     1       0.656   4.741  20.675  0.00  0.00    +0.000 A 
ATOM     14  C   UNL     1       1.707   5.608  20.401  0.00  0.00    +0.000 A 
ATOM     15 BR   UNL     1       1.539   7.436  20.855  0.00  0.00    +0.000 Br
ATOM     16  C   UNL     1       2.878   5.142  19.787  0.00  0.00    +0.000 A 
ENDBRANCH   2  10
BRANCH   6  17
ATOM     17  C   UNL     1       6.165   5.774  16.686  0.00  0.00    +0.000 C 
BRANCH  17  18
ATOM     18  C   UNL     1       6.896   5.177  15.484  0.00  0.00    +0.000 C 
ATOM     19  O   UNL     1       7.890   4.466  15.644  0.00  0.00    +0.000 OA
ATOM     20  N   UNL     1       6.314   5.337  14.248  0.00  0.00    +0.000 N 
ATOM     21  H   UNL     1       5.355   5.667  14.172  0.00  0.00    +0.000 HD
BRANCH  20  22
ATOM     22  C   UNL     1       6.939   4.771  13.063  0.00  0.00    +0.000 C 
BRANCH  22  23
ATOM     23  C   UNL     1       6.486   3.347  12.732  0.00  0.00    +0.000 C 
ATOM     24  C   UNL     1       5.160   3.285  11.991  0.00  0.00    +0.000 C 
ATOM     25  C   UNL     1       5.271   1.959  11.280  0.00  0.00    +0.000 C 
ATOM     26  C   UNL     1       6.738   1.905  10.911  0.00  0.00    +0.000 C 
ATOM     27  O   UNL     1       7.444   2.732  11.846  0.00  0.00    +0.000 OA
ENDBRANCH  22  23
ENDBRANCH  20  22
ENDBRANCH  17  18
ENDBRANCH   6  17
TORSDOF 5
ENDMDL
MODEL 9
REMARK VINA RESULT:      -7.2      1.096      1.457
REMARK  Name = 
REMARK  6 active torsions:
REMARK  status: ('A' for Active; 'I' for Inactive)
REMARK    1  A    between atoms: C_1  and  C_2
REMARK    2  A    between atoms: C_2  and  C_3
REMARK    3  A    between atoms: N_13  and  C_14
REMARK    4  A    between atoms: C_14  and  C_15
REMARK    5  A    between atoms: N_17  and  C_18
REMARK    6  A    between atoms: C_18  and  C_19
REMARK                            x       y       z     vdW  Elec       q    Type
REMARK                         _______ _______ _______ _____ _____    ______ ____
ROOT
ATOM      1  C   UNL     1       1.092   3.478  21.067  0.00  0.00    +0.000 C 
ATOM      2  C   UNL     1       2.150   4.148  20.196  0.00  0.00    +0.000 C 
ATOM      3  N   UNL     1       3.483   3.734  20.577  0.00  0.00    +0.000 N 
ATOM      4  C   UNL     1       4.217   3.293  19.500  0.00  0.00    +0.000 C 
ATOM      5  O   UNL     1       5.425   3.140  19.521  0.00  0.00    +0.000 OA
ATOM      6  N   UNL     1       3.379   3.101  18.451  0.00  0.00    +0.000 N 
ATOM      7  C   UNL     1       2.138   3.579  18.755  0.00  0.00    +0.000 C 
ATOM      8  O   UNL     1       1.215   3.673  17.949  0.00  0.00    +0.000 OA
ATOM      9  H   UNL     1       3.959   4.011  21.425  0.00  0.00    +0.000 HD
ENDROOT
BRANCH   2  10
ATOM     10  C   UNL     1       1.979   5.669  20.147  0.00  0.00    +0.000 A 
ATOM     11  C   UNL     1       1.339   6.328  21.214  0.00  0.00    +0.000 A 
ATOM     12  C   UNL     1       1.097   7.702  21.181  0.00  0.00    +0.000 A 
ATOM     13  C   UNL     1       1.509   8.451  20.087  0.00  0.00    +0.000 A 
ATOM     14  C   UNL     1       2.164   7.827  19.031  0.00  0.00    +0.000 A 
ATOM     15 BR   UNL     1       2.725   8.862  17.551  0.00  0.00    +0.000 Br
ATOM     16  C   UNL     1       2.400   6.445  19.051  0.00  0.00    +0.000 A 
ENDBRANCH   2  10
BRANCH   6  17
ATOM     17  C   UNL     1       3.798   2.631  17.148  0.00  0.00    +0.000 C 
BRANCH  17  18
ATOM     18  C   UNL     1       4.611   3.667  16.376  0.00  0.00    +0.000 C 
ATOM     19  O   UNL     1       4.110   4.746  16.053  0.00  0.00    +0.000 OA
ATOM     20  N   UNL     1       5.952   3.413  16.195  0.00  0.00    +0.000 N 
ATOM     21  H   UNL     1       6.406   2.668  16.718  0.00  0.00    +0.000 HD
BRANCH  20  22
ATOM     22  C   UNL     1       6.794   4.368  15.494  0.00  0.00    +0.000 C 
BRANCH  22  23
ATOM     23  C   UNL     1       7.614   5.276  16.412  0.00  0.00    +0.000 C 
ATOM     24  C   UNL     1       6.898   6.560  16.799  0.00  0.00    +0.000 C 
ATOM     25  C   UNL     1       7.585   6.913  18.095  0.00  0.00    +0.000 C 
ATOM     26  C   UNL     1       7.821   5.555  18.723  0.00  0.00    +0.000 C 
ATOM     27  O   UNL     1       7.871   4.596  17.657  0.00  0.00    +0.000 OA
ENDBRANCH  22  23
ENDBRANCH  20  22
ENDBRANCH  17  18
ENDBRANCH   6  17
TORSDOF 5
ENDMDL
