MODEL 1
REMARK VINA RESULT:      -6.5      0.000      0.000
REMARK  Name = 
REMARK  13 active torsions:
REMARK  status: ('A' for Active; 'I' for Inactive)
REMARK    1  A    between atoms: C_1  and  O_2
REMARK    2  A    between atoms: O_2  and  C_3
REMARK    3  A    between atoms: C_6  and  C_7
REMARK    4  A    between atoms: C_7  and  C_8
REMARK    5  A    between atoms: C_7  and  C_18
REMARK    6  A    between atoms: C_9  and  O_10
REMARK    7  A    between atoms: C_12  and  C_13
REMARK    8  A    between atoms: C_12  and  C_14
REMARK    9  A    between atoms: C_19  and  O_20
REMARK   10  A    between atoms: C_22  and  C_23
REMARK   11  A    between atoms: C_22  and  C_24
REMARK   12  A    between atoms: C_29  and  O_30
REMARK   13  A    between atoms: O_30  and  C_31
REMARK                            x       y       z     vdW  Elec       q    Type
REMARK                         _______ _______ _______ _____ _____    ______ ____
ROOT
ATOM      1  C   UNL     1      -0.404  12.942  19.838  0.00  0.00    +0.000 C 
ENDROOT
BRANCH   1   2
ATOM      2  C   UNL     1      -1.274  13.084  21.096  0.00  0.00    +0.000 C 
ATOM      3  C   UNL     1      -0.864  13.546  22.301  0.00  0.00    +0.000 C 
ATOM      4  C   UNL     1      -1.741  13.657  23.525  0.00  0.00    +0.000 C 
ATOM      5  C   UNL     1      -3.253  13.544  23.261  0.00  0.00    +0.000 C 
ATOM      6  C   UNL     1      -3.971  13.203  24.575  0.00  0.00    +0.000 C 
ATOM      7  C   UNL     1      -3.821  14.872  22.720  0.00  0.00    +0.000 C 
ATOM      8  C   UNL     1      -3.493  12.421  22.254  0.00  0.00    +0.000 C 
ATOM      9  C   UNL     1      -2.721  12.680  20.986  0.00  0.00    +0.000 C 
ATOM     10  O   UNL     1      -3.257  12.507  19.892  0.00  0.00    +0.000 OA
BRANCH   3  11
ATOM     11  O   UNL     1       0.418  13.992  22.565  0.00  0.00    +0.000 OA
ATOM     12  H   UNL     1       0.439  14.949  22.698  0.00  0.00    +0.000 HD
ENDBRANCH   3  11
ENDBRANCH   1   2
BRANCH   1  13
ATOM     13  C   UNL     1       0.645  14.050  19.588  0.00  0.00    +0.000 C 
ATOM     14  C   UNL     1       0.467  15.281  19.050  0.00  0.00    +0.000 C 
ATOM     15  C   UNL     1       1.584  16.168  18.541  0.00  0.00    +0.000 C 
ATOM     16  C   UNL     1       2.991  15.854  19.077  0.00  0.00    +0.000 C 
ATOM     17  C   UNL     1       4.045  16.450  18.128  0.00  0.00    +0.000 C 
ATOM     18  C   UNL     1       3.177  16.473  20.473  0.00  0.00    +0.000 C 
ATOM     19  C   UNL     1       3.169  14.338  19.136  0.00  0.00    +0.000 C 
ATOM     20  C   UNL     1       2.063  13.727  19.962  0.00  0.00    +0.000 C 
ATOM     21  O   UNL     1       2.302  12.987  20.915  0.00  0.00    +0.000 OA
BRANCH  14  22
ATOM     22  O   UNL     1      -0.765  15.864  18.829  0.00  0.00    +0.000 OA
ATOM     23  H   UNL     1      -1.223  16.041  19.666  0.00  0.00    +0.000 HD
ENDBRANCH  14  22
ENDBRANCH   1  13
BRANCH   1  27
ATOM     24  C   UNL     1       1.300   8.924  19.945  0.00  0.00    +0.000 A 
ATOM     25  C   UNL     1       1.251   9.652  18.745  0.00  0.00    +0.000 A 
ATOM     26  C   UNL     1       0.719  10.944  18.698  0.00  0.00    +0.000 A 
ATOM     27  C   UNL     1       0.172  11.515  19.845  0.00  0.00    +0.000 A 
ATOM     28  C   UNL     1       0.119  10.730  21.009  0.00  0.00    +0.000 A 
ATOM     29  C   UNL     1       0.691   9.458  21.086  0.00  0.00    +0.000 A 
BRANCH  24  31
ATOM     30  C   UNL     1       2.517   7.250  18.804  0.00  0.00    +0.000 C 
ATOM     31  O   UNL     1       1.911   7.700  20.016  0.00  0.00    +0.000 OA
ENDBRANCH  24  31
BRANCH  29  32
ATOM     32  O   UNL     1       0.578   8.943  22.345  0.00  0.00    +0.000 OA
ATOM     33  C   UNL     1      -0.174   9.646  23.323  0.00  0.00    +0.000 C 
ENDBRANCH  29  32
ENDBRANCH   1  27
TORSDOF 7
ENDMDL
MODEL 2
REMARK VINA RESULT:      -6.3      1.946      5.742
REMARK  Name = 
REMARK  13 active torsions:
REMARK  status: ('A' for Active; 'I' for Inactive)
REMARK    1  A    between atoms: C_1  and  O_2
REMARK    2  A    between atoms: O_2  and  C_3
REMARK    3  A    between atoms: C_6  and  C_7
REMARK    4  A    between atoms: C_7  and  C_8
REMARK    5  A    between atoms: C_7  and  C_18
REMARK    6  A    between atoms: C_9  and  O_10
REMARK    7  A    between atoms: C_12  and  C_13
REMARK    8  A    between atoms: C_12  and  C_14
REMARK    9  A    between atoms: C_19  and  O_20
REMARK   10  A    between atoms: C_22  and  C_23
REMARK   11  A    between atoms: C_22  and  C_24
REMARK   12  A    between atoms: C_29  and  O_30
REMARK   13  A    between atoms: O_30  and  C_31
REMARK                            x       y       z     vdW  Elec       q    Type
REMARK                         _______ _______ _______ _____ _____    ______ ____
ROOT
ATOM      1  C   UNL     1      -0.591  13.239  20.927  0.00  0.00    +0.000 C 
ENDROOT
BRANCH   1   2
ATOM      2  C   UNL     1       0.454  14.136  20.248  0.00  0.00    +0.000 C 
ATOM      3  C   UNL     1       0.338  14.710  19.027  0.00  0.00    +0.000 C 
ATOM      4  C   UNL     1       1.393  15.575  18.378  0.00  0.00    +0.000 C 
ATOM      5  C   UNL     1       2.501  16.077  19.322  0.00  0.00    +0.000 C 
ATOM      6  C   UNL     1       3.713  16.519  18.487  0.00  0.00    +0.000 C 
ATOM      7  C   UNL     1       2.013  17.280  20.156  0.00  0.00    +0.000 C 
ATOM      8  C   UNL     1       2.917  14.933  20.243  0.00  0.00    +0.000 C 
ATOM      9  C   UNL     1       1.726  14.413  21.005  0.00  0.00    +0.000 C 
ATOM     10  O   UNL     1       1.822  14.171  22.208  0.00  0.00    +0.000 OA
BRANCH   3  11
ATOM     11  O   UNL     1      -0.775  14.591  18.216  0.00  0.00    +0.000 OA
ATOM     12  H   UNL     1      -1.189  13.722  18.308  0.00  0.00    +0.000 HD
ENDBRANCH   3  11
ENDBRANCH   1   2
BRANCH   1  13
ATOM     13  C   UNL     1      -1.705  13.951  21.729  0.00  0.00    +0.000 C 
ATOM     14  C   UNL     1      -2.417  15.054  21.395  0.00  0.00    +0.000 C 
ATOM     15  C   UNL     1      -3.247  15.870  22.365  0.00  0.00    +0.000 C 
ATOM     16  C   UNL     1      -3.662  15.156  23.662  0.00  0.00    +0.000 C 
ATOM     17  C   UNL     1      -4.023  16.203  24.730  0.00  0.00    +0.000 C 
ATOM     18  C   UNL     1      -4.891  14.267  23.408  0.00  0.00    +0.000 C 
ATOM     19  C   UNL     1      -2.487  14.316  24.161  0.00  0.00    +0.000 C 
ATOM     20  C   UNL     1      -2.040  13.370  23.072  0.00  0.00    +0.000 C 
ATOM     21  O   UNL     1      -1.950  12.159  23.267  0.00  0.00    +0.000 OA
BRANCH  14  22
ATOM     22  O   UNL     1      -2.427  15.625  20.138  0.00  0.00    +0.000 OA
ATOM     23  H   UNL     1      -3.252  16.110  19.980  0.00  0.00    +0.000 HD
ENDBRANCH  14  22
ENDBRANCH   1  13
BRANCH   1  27
ATOM     24  C   UNL     1      -1.976  10.494  17.827  0.00  0.00    +0.000 A 
ATOM     25  C   UNL     1      -2.873  11.362  18.472  0.00  0.00    +0.000 A 
ATOM     26  C   UNL     1      -2.442  12.254  19.458  0.00  0.00    +0.000 A 
ATOM     27  C   UNL     1      -1.108  12.258  19.860  0.00  0.00    +0.000 A 
ATOM     28  C   UNL     1      -0.248  11.303  19.293  0.00  0.00    +0.000 A 
ATOM     29  C   UNL     1      -0.650  10.439  18.271  0.00  0.00    +0.000 A 
BRANCH  24  31
ATOM     30  C   UNL     1      -2.741  10.377  15.594  0.00  0.00    +0.000 C 
ATOM     31  O   UNL     1      -2.376   9.691  16.792  0.00  0.00    +0.000 OA
ENDBRANCH  24  31
BRANCH  29  32
ATOM     32  O   UNL     1       0.391   9.671  17.837  0.00  0.00    +0.000 OA
ATOM     33  C   UNL     1       1.716  10.013  18.213  0.00  0.00    +0.000 C 
ENDBRANCH  29  32
ENDBRANCH   1  27
TORSDOF 7
ENDMDL
MODEL 3
REMARK VINA RESULT:      -6.3      2.213      5.207
REMARK  Name = 
REMARK  13 active torsions:
REMARK  status: ('A' for Active; 'I' for Inactive)
REMARK    1  A    between atoms: C_1  and  O_2
REMARK    2  A    between atoms: O_2  and  C_3
REMARK    3  A    between atoms: C_6  and  C_7
REMARK    4  A    between atoms: C_7  and  C_8
REMARK    5  A    between atoms: C_7  and  C_18
REMARK    6  A    between atoms: C_9  and  O_10
REMARK    7  A    between atoms: C_12  and  C_13
REMARK    8  A    between atoms: C_12  and  C_14
REMARK    9  A    between atoms: C_19  and  O_20
REMARK   10  A    between atoms: C_22  and  C_23
REMARK   11  A    between atoms: C_22  and  C_24
REMARK   12  A    between atoms: C_29  and  O_30
REMARK   13  A    between atoms: O_30  and  C_31
REMARK                            x       y       z     vdW  Elec       q    Type
REMARK                         _______ _______ _______ _____ _____    ______ ____
ROOT
ATOM      1  C   UNL     1      -1.173  12.459  20.900  0.00  0.00    +0.000 C 
ENDROOT
BRANCH   1   2
ATOM      2  C   UNL     1      -0.461  11.098  20.885  0.00  0.00    +0.000 C 
ATOM      3  C   UNL     1       0.389  10.654  19.930  0.00  0.00    +0.000 C 
ATOM      4  C   UNL     1       1.060   9.301  19.936  0.00  0.00    +0.000 C 
ATOM      5  C   UNL     1       1.011   8.550  21.278  0.00  0.00    +0.000 C 
ATOM      6  C   UNL     1       1.287   7.059  21.033  0.00  0.00    +0.000 C 
ATOM      7  C   UNL     1       2.074   9.093  22.256  0.00  0.00    +0.000 C 
ATOM      8  C   UNL     1      -0.384   8.709  21.878  0.00  0.00    +0.000 C 
ATOM      9  C   UNL     1      -0.723  10.167  22.041  0.00  0.00    +0.000 C 
ATOM     10  O   UNL     1      -1.253  10.565  23.077  0.00  0.00    +0.000 OA
BRANCH   3  11
ATOM     11  O   UNL     1       0.767  11.392  18.824  0.00  0.00    +0.000 OA
ATOM     12  H   UNL     1       0.062  11.428  18.164  0.00  0.00    +0.000 HD
ENDBRANCH   3  11
ENDBRANCH   1   2
BRANCH   1  13
ATOM     13  C   UNL     1      -0.326  13.692  20.508  0.00  0.00    +0.000 C 
ATOM     14  C   UNL     1      -0.150  14.245  19.284  0.00  0.00    +0.000 C 
ATOM     15  C   UNL     1       0.942  15.237  18.936  0.00  0.00    +0.000 C 
ATOM     16  C   UNL     1       1.574  15.985  20.121  0.00  0.00    +0.000 C 
ATOM     17  C   UNL     1       2.949  16.534  19.704  0.00  0.00    +0.000 C 
ATOM     18  C   UNL     1       0.679  17.164  20.541  0.00  0.00    +0.000 C 
ATOM     19  C   UNL     1       1.753  15.010  21.283  0.00  0.00    +0.000 C 
ATOM     20  C   UNL     1       0.428  14.368  21.617  0.00  0.00    +0.000 C 
ATOM     21  O   UNL     1      -0.030  14.391  22.758  0.00  0.00    +0.000 OA
BRANCH  14  22
ATOM     22  O   UNL     1      -0.898  13.925  18.168  0.00  0.00    +0.000 OA
ATOM     23  H   UNL     1      -0.607  14.432  17.394  0.00  0.00    +0.000 HD
ENDBRANCH  14  22
ENDBRANCH   1  13
BRANCH   1  27
ATOM     24  C   UNL     1      -4.798  12.034  18.505  0.00  0.00    +0.000 A 
ATOM     25  C   UNL     1      -4.782  12.854  19.645  0.00  0.00    +0.000 A 
ATOM     26  C   UNL     1      -3.625  13.010  20.415  0.00  0.00    +0.000 A 
ATOM     27  C   UNL     1      -2.471  12.300  20.090  0.00  0.00    +0.000 A 
ATOM     28  C   UNL     1      -2.537  11.392  19.020  0.00  0.00    +0.000 A 
ATOM     29  C   UNL     1      -3.668  11.264  18.209  0.00  0.00    +0.000 A 
BRANCH  24  31
ATOM     30  C   UNL     1      -7.156  12.093  18.354  0.00  0.00    +0.000 C 
ATOM     31  O   UNL     1      -5.898  11.959  17.692  0.00  0.00    +0.000 OA
ENDBRANCH  24  31
BRANCH  29  32
ATOM     32  O   UNL     1      -3.447  10.380  17.193  0.00  0.00    +0.000 OA
ATOM     33  C   UNL     1      -2.116  10.085  16.799  0.00  0.00    +0.000 C 
ENDBRANCH  29  32
ENDBRANCH   1  27
TORSDOF 7
ENDMDL
MODEL 4
REMARK VINA RESULT:      -6.2      2.432      6.160
REMARK  Name = 
REMARK  13 active torsions:
REMARK  status: ('A' for Active; 'I' for Inactive)
REMARK    1  A    between atoms: C_1  and  O_2
REMARK    2  A    between atoms: O_2  and  C_3
REMARK    3  A    between atoms: C_6  and  C_7
REMARK    4  A    between atoms: C_7  and  C_8
REMARK    5  A    between atoms: C_7  and  C_18
REMARK    6  A    between atoms: C_9  and  O_10
REMARK    7  A    between atoms: C_12  and  C_13
REMARK    8  A    between atoms: C_12  and  C_14
REMARK    9  A    between atoms: C_19  and  O_20
REMARK   10  A    between atoms: C_22  and  C_23
REMARK   11  A    between atoms: C_22  and  C_24
REMARK   12  A    between atoms: C_29  and  O_30
REMARK   13  A    between atoms: O_30  and  C_31
REMARK                            x       y       z     vdW  Elec       q    Type
REMARK                         _______ _______ _______ _____ _____    ______ ____
ROOT
ATOM      1  C   UNL     1      -1.785  12.620  20.768  0.00  0.00    +0.000 C 
ENDROOT
BRANCH   1   2
ATOM      2  C   UNL     1      -0.424  13.247  20.430  0.00  0.00    +0.000 C 
ATOM      3  C   UNL     1      -0.224  14.391  19.734  0.00  0.00    +0.000 C 
ATOM      4  C   UNL     1       1.130  14.972  19.403  0.00  0.00    +0.000 C 
ATOM      5  C   UNL     1       2.309  14.385  20.199  0.00  0.00    +0.000 C 
ATOM      6  C   UNL     1       3.621  14.698  19.464  0.00  0.00    +0.000 C 
ATOM      7  C   UNL     1       2.380  14.997  21.614  0.00  0.00    +0.000 C 
ATOM      8  C   UNL     1       2.134  12.871  20.290  0.00  0.00    +0.000 C 
ATOM      9  C   UNL     1       0.808  12.532  20.921  0.00  0.00    +0.000 C 
ATOM     10  O   UNL     1       0.740  11.651  21.776  0.00  0.00    +0.000 OA
BRANCH   3  11
ATOM     11  O   UNL     1      -1.241  15.188  19.244  0.00  0.00    +0.000 OA
ATOM     12  H   UNL     1      -0.977  15.640  18.431  0.00  0.00    +0.000 HD
ENDBRANCH   3  11
ENDBRANCH   1   2
BRANCH   1  13
ATOM     13  C   UNL     1      -2.721  13.440  21.686  0.00  0.00    +0.000 C 
ATOM     14  C   UNL     1      -3.477  14.521  21.377  0.00  0.00    +0.000 C 
ATOM     15  C   UNL     1      -4.101  15.454  22.395  0.00  0.00    +0.000 C 
ATOM     16  C   UNL     1      -4.265  14.888  23.815  0.00  0.00    +0.000 C 
ATOM     17  C   UNL     1      -4.410  16.049  24.815  0.00  0.00    +0.000 C 
ATOM     18  C   UNL     1      -5.527  14.010  23.892  0.00  0.00    +0.000 C 
ATOM     19  C   UNL     1      -3.023  14.072  24.169  0.00  0.00    +0.000 C 
ATOM     20  C   UNL     1      -2.798  13.008  23.122  0.00  0.00    +0.000 C 
ATOM     21  O   UNL     1      -2.680  11.822  23.423  0.00  0.00    +0.000 OA
BRANCH  14  22
ATOM     22  O   UNL     1      -3.722  14.960  20.091  0.00  0.00    +0.000 OA
ATOM     23  H   UNL     1      -2.894  15.114  19.610  0.00  0.00    +0.000 HD
ENDBRANCH  14  22
ENDBRANCH   1  13
BRANCH   1  27
ATOM     24  C   UNL     1      -3.651  11.296  17.049  0.00  0.00    +0.000 A 
ATOM     25  C   UNL     1      -2.268  11.532  17.115  0.00  0.00    +0.000 A 
ATOM     26  C   UNL     1      -1.655  11.944  18.302  0.00  0.00    +0.000 A 
ATOM     27  C   UNL     1      -2.425  12.185  19.438  0.00  0.00    +0.000 A 
ATOM     28  C   UNL     1      -3.820  12.062  19.324  0.00  0.00    +0.000 A 
ATOM     29  C   UNL     1      -4.443  11.601  18.162  0.00  0.00    +0.000 A 
BRANCH  24  31
ATOM     30  C   UNL     1      -3.336  10.349  14.908  0.00  0.00    +0.000 C 
ATOM     31  O   UNL     1      -4.239  10.796  15.919  0.00  0.00    +0.000 OA
ENDBRANCH  24  31
BRANCH  29  32
ATOM     32  O   UNL     1      -5.792  11.493  18.337  0.00  0.00    +0.000 OA
ATOM     33  C   UNL     1      -6.367  11.851  19.585  0.00  0.00    +0.000 C 
ENDBRANCH  29  32
ENDBRANCH   1  27
TORSDOF 7
ENDMDL
MODEL 5
REMARK VINA RESULT:      -6.2      2.142      5.784
REMARK  Name = 
REMARK  13 active torsions:
REMARK  status: ('A' for Active; 'I' for Inactive)
REMARK    1  A    between atoms: C_1  and  O_2
REMARK    2  A    between atoms: O_2  and  C_3
REMARK    3  A    between atoms: C_6  and  C_7
REMARK    4  A    between atoms: C_7  and  C_8
REMARK    5  A    between atoms: C_7  and  C_18
REMARK    6  A    between atoms: C_9  and  O_10
REMARK    7  A    between atoms: C_12  and  C_13
REMARK    8  A    between atoms: C_12  and  C_14
REMARK    9  A    between atoms: C_19  and  O_20
REMARK   10  A    between atoms: C_22  and  C_23
REMARK   11  A    between atoms: C_22  and  C_24
REMARK   12  A    between atoms: C_29  and  O_30
REMARK   13  A    between atoms: O_30  and  C_31
REMARK                            x       y       z     vdW  Elec       q    Type
REMARK                         _______ _______ _______ _____ _____    ______ ____
ROOT
ATOM      1  C   UNL     1      -0.155  13.003  20.702  0.00  0.00    +0.000 C 
ENDROOT
BRANCH   1   2
ATOM      2  C   UNL     1       0.875  13.869  19.962  0.00  0.00    +0.000 C 
ATOM      3  C   UNL     1       0.647  14.599  18.844  0.00  0.00    +0.000 C 
ATOM      4  C   UNL     1       1.689  15.427  18.130  0.00  0.00    +0.000 C 
ATOM      5  C   UNL     1       2.976  15.695  18.930  0.00  0.00    +0.000 C 
ATOM      6  C   UNL     1       4.093  16.113  17.962  0.00  0.00    +0.000 C 
ATOM      7  C   UNL     1       2.764  16.827  19.956  0.00  0.00    +0.000 C 
ATOM      8  C   UNL     1       3.387  14.409  19.644  0.00  0.00    +0.000 C 
ATOM      9  C   UNL     1       2.270  13.920  20.529  0.00  0.00    +0.000 C 
ATOM     10  O   UNL     1       2.515  13.523  21.667  0.00  0.00    +0.000 OA
BRANCH   3  11
ATOM     11  O   UNL     1      -0.580  14.693  18.216  0.00  0.00    +0.000 OA
ATOM     12  H   UNL     1      -1.139  13.929  18.415  0.00  0.00    +0.000 HD
ENDBRANCH   3  11
ENDBRANCH   1   2
BRANCH   1  13
ATOM     13  C   UNL     1      -1.129  13.738  21.652  0.00  0.00    +0.000 C 
ATOM     14  C   UNL     1      -1.914  14.812  21.396  0.00  0.00    +0.000 C 
ATOM     15  C   UNL     1      -2.581  15.664  22.456  0.00  0.00    +0.000 C 
ATOM     16  C   UNL     1      -2.747  15.010  23.838  0.00  0.00    +0.000 C 
ATOM     17  C   UNL     1      -2.942  16.105  24.902  0.00  0.00    +0.000 C 
ATOM     18  C   UNL     1      -3.981  14.091  23.845  0.00  0.00    +0.000 C 
ATOM     19  C   UNL     1      -1.485  14.214  24.162  0.00  0.00    +0.000 C 
ATOM     20  C   UNL     1      -1.212  13.221  23.059  0.00  0.00    +0.000 C 
ATOM     21  O   UNL     1      -1.060  12.023  23.292  0.00  0.00    +0.000 OA
BRANCH  14  22
ATOM     22  O   UNL     1      -2.156  15.318  20.134  0.00  0.00    +0.000 OA
ATOM     23  H   UNL     1      -2.919  14.883  19.722  0.00  0.00    +0.000 HD
ENDBRANCH  14  22
ENDBRANCH   1  13
BRANCH   1  27
ATOM     24  C   UNL     1      -2.189  10.462  17.791  0.00  0.00    +0.000 A 
ATOM     25  C   UNL     1      -0.797  10.386  17.963  0.00  0.00    +0.000 A 
ATOM     26  C   UNL     1      -0.134  11.184  18.900  0.00  0.00    +0.000 A 
ATOM     27  C   UNL     1      -0.846  12.120  19.647  0.00  0.00    +0.000 A 
ATOM     28  C   UNL     1      -2.217  12.269  19.379  0.00  0.00    +0.000 A 
ATOM     29  C   UNL     1      -2.904  11.445  18.485  0.00  0.00    +0.000 A 
BRANCH  24  31
ATOM     30  C   UNL     1      -2.871  10.003  15.576  0.00  0.00    +0.000 C 
ATOM     31  O   UNL     1      -2.854   9.612  16.949  0.00  0.00    +0.000 OA
ENDBRANCH  24  31
BRANCH  29  32
ATOM     32  O   UNL     1      -4.236  11.740  18.468  0.00  0.00    +0.000 OA
ATOM     33  C   UNL     1      -4.815  12.427  19.567  0.00  0.00    +0.000 C 
ENDBRANCH  29  32
ENDBRANCH   1  27
TORSDOF 7
ENDMDL
MODEL 6
REMARK VINA RESULT:      -6.1      0.638      1.733
REMARK  Name = 
REMARK  13 active torsions:
REMARK  status: ('A' for Active; 'I' for Inactive)
REMARK    1  A    between atoms: C_1  and  O_2
REMARK    2  A    between atoms: O_2  and  C_3
REMARK    3  A    between atoms: C_6  and  C_7
REMARK    4  A    between atoms: C_7  and  C_8
REMARK    5  A    between atoms: C_7  and  C_18
REMARK    6  A    between atoms: C_9  and  O_10
REMARK    7  A    between atoms: C_12  and  C_13
REMARK    8  A    between atoms: C_12  and  C_14
REMARK    9  A    between atoms: C_19  and  O_20
REMARK   10  A    between atoms: C_22  and  C_23
REMARK   11  A    between atoms: C_22  and  C_24
REMARK   12  A    between atoms: C_29  and  O_30
REMARK   13  A    between atoms: O_30  and  C_31
REMARK                            x       y       z     vdW  Elec       q    Type
REMARK                         _______ _______ _______ _____ _____    ______ ____
ROOT
ATOM      1  C   UNL     1      -0.359  13.210  20.074  0.00  0.00    +0.000 C 
ENDROOT
BRANCH   1   2
ATOM      2  C   UNL     1      -1.339  13.213  21.257  0.00  0.00    +0.000 C 
ATOM      3  C   UNL     1      -1.041  13.538  22.538  0.00  0.00    +0.000 C 
ATOM      4  C   UNL     1      -2.025  13.514  23.683  0.00  0.00    +0.000 C 
ATOM      5  C   UNL     1      -3.506  13.433  23.275  0.00  0.00    +0.000 C 
ATOM      6  C   UNL     1      -4.335  12.950  24.474  0.00  0.00    +0.000 C 
ATOM      7  C   UNL     1      -4.035  14.815  22.835  0.00  0.00    +0.000 C 
ATOM      8  C   UNL     1      -3.646  12.430  22.132  0.00  0.00    +0.000 C 
ATOM      9  C   UNL     1      -2.767  12.826  20.975  0.00  0.00    +0.000 C 
ATOM     10  O   UNL     1      -3.202  12.776  19.825  0.00  0.00    +0.000 OA
BRANCH   3  11
ATOM     11  O   UNL     1       0.208  13.950  22.963  0.00  0.00    +0.000 OA
ATOM     12  H   UNL     1       0.740  14.285  22.228  0.00  0.00    +0.000 HD
ENDBRANCH   3  11
ENDBRANCH   1   2
BRANCH   1  13
ATOM     13  C   UNL     1       0.730  14.307  20.069  0.00  0.00    +0.000 C 
ATOM     14  C   UNL     1       1.962  14.281  20.632  0.00  0.00    +0.000 C 
ATOM     15  C   UNL     1       2.830  15.501  20.862  0.00  0.00    +0.000 C 
ATOM     16  C   UNL     1       2.494  16.736  20.010  0.00  0.00    +0.000 C 
ATOM     17  C   UNL     1       3.071  17.994  20.683  0.00  0.00    +0.000 C 
ATOM     18  C   UNL     1       3.115  16.598  18.609  0.00  0.00    +0.000 C 
ATOM     19  C   UNL     1       0.976  16.870  19.912  0.00  0.00    +0.000 C 
ATOM     20  C   UNL     1       0.385  15.591  19.371  0.00  0.00    +0.000 C 
ATOM     21  O   UNL     1      -0.355  15.586  18.389  0.00  0.00    +0.000 OA
BRANCH  14  22
ATOM     22  O   UNL     1       2.565  13.146  21.136  0.00  0.00    +0.000 OA
ATOM     23  H   UNL     1       2.515  12.412  20.504  0.00  0.00    +0.000 HD
ENDBRANCH  14  22
ENDBRANCH   1  13
BRANCH   1  27
ATOM     24  C   UNL     1       1.254   9.163  19.790  0.00  0.00    +0.000 A 
ATOM     25  C   UNL     1       1.249  10.015  18.673  0.00  0.00    +0.000 A 
ATOM     26  C   UNL     1       0.747  11.317  18.752  0.00  0.00    +0.000 A 
ATOM     27  C   UNL     1       0.185  11.777  19.942  0.00  0.00    +0.000 A 
ATOM     28  C   UNL     1       0.088  10.875  21.014  0.00  0.00    +0.000 A 
ATOM     29  C   UNL     1       0.631   9.588  20.968  0.00  0.00    +0.000 A 
BRANCH  24  31
ATOM     30  C   UNL     1       2.477   7.598  18.510  0.00  0.00    +0.000 C 
ATOM     31  O   UNL     1       1.837   7.925  19.743  0.00  0.00    +0.000 OA
ENDBRANCH  24  31
BRANCH  29  32
ATOM     32  O   UNL     1       0.477   8.946  22.162  0.00  0.00    +0.000 OA
ATOM     33  C   UNL     1      -0.122   9.630  23.252  0.00  0.00    +0.000 C 
ENDBRANCH  29  32
ENDBRANCH   1  27
TORSDOF 7
ENDMDL
MODEL 7
REMARK VINA RESULT:      -6.0      1.782      2.857
REMARK  Name = 
REMARK  13 active torsions:
REMARK  status: ('A' for Active; 'I' for Inactive)
REMARK    1  A    between atoms: C_1  and  O_2
REMARK    2  A    between atoms: O_2  and  C_3
REMARK    3  A    between atoms: C_6  and  C_7
REMARK    4  A    between atoms: C_7  and  C_8
REMARK    5  A    between atoms: C_7  and  C_18
REMARK    6  A    between atoms: C_9  and  O_10
REMARK    7  A    between atoms: C_12  and  C_13
REMARK    8  A    between atoms: C_12  and  C_14
REMARK    9  A    between atoms: C_19  and  O_20
REMARK   10  A    between atoms: C_22  and  C_23
REMARK   11  A    between atoms: C_22  and  C_24
REMARK   12  A    between atoms: C_29  and  O_30
REMARK   13  A    between atoms: O_30  and  C_31
REMARK                            x       y       z     vdW  Elec       q    Type
REMARK                         _______ _______ _______ _____ _____    ______ ____
ROOT
ATOM      1  C   UNL     1      -0.714  13.950  20.013  0.00  0.00    +0.000 C 
ENDROOT
BRANCH   1   2
ATOM      2  C   UNL     1      -1.570  13.524  21.215  0.00  0.00    +0.000 C 
ATOM      3  C   UNL     1      -1.254  12.566  22.119  0.00  0.00    +0.000 C 
ATOM      4  C   UNL     1      -2.128  12.158  23.281  0.00  0.00    +0.000 C 
ATOM      5  C   UNL     1      -3.274  13.129  23.614  0.00  0.00    +0.000 C 
ATOM      6  C   UNL     1      -4.327  12.397  24.459  0.00  0.00    +0.000 C 
ATOM      7  C   UNL     1      -2.756  14.342  24.416  0.00  0.00    +0.000 C 
ATOM      8  C   UNL     1      -3.915  13.598  22.309  0.00  0.00    +0.000 C 
ATOM      9  C   UNL     1      -2.883  14.235  21.416  0.00  0.00    +0.000 C 
ATOM     10  O   UNL     1      -3.141  15.284  20.828  0.00  0.00    +0.000 OA
BRANCH   3  11
ATOM     11  O   UNL     1      -0.076  11.844  22.103  0.00  0.00    +0.000 OA
ATOM     12  H   UNL     1       0.070  11.386  22.942  0.00  0.00    +0.000 HD
ENDBRANCH   3  11
ENDBRANCH   1   2
BRANCH   1  13
ATOM     13  C   UNL     1       0.391  14.998  20.282  0.00  0.00    +0.000 C 
ATOM     14  C   UNL     1       1.371  14.975  21.218  0.00  0.00    +0.000 C 
ATOM     15  C   UNL     1       2.199  16.176  21.627  0.00  0.00    +0.000 C 
ATOM     16  C   UNL     1       2.241  17.339  20.622  0.00  0.00    +0.000 C 
ATOM     17  C   UNL     1       2.654  18.630  21.350  0.00  0.00    +0.000 C 
ATOM     18  C   UNL     1       3.270  17.046  19.516  0.00  0.00    +0.000 C 
ATOM     19  C   UNL     1       0.848  17.524  20.022  0.00  0.00    +0.000 C 
ATOM     20  C   UNL     1       0.379  16.224  19.415  0.00  0.00    +0.000 C 
ATOM     21  O   UNL     1      -0.004  16.157  18.249  0.00  0.00    +0.000 OA
BRANCH  14  22
ATOM     22  O   UNL     1       1.700  13.869  21.976  0.00  0.00    +0.000 OA
ATOM     23  H   UNL     1       1.609  13.052  21.461  0.00  0.00    +0.000 HD
ENDBRANCH  14  22
ENDBRANCH   1  13
BRANCH   1  27
ATOM     24  C   UNL     1       0.644  10.237  18.162  0.00  0.00    +0.000 A 
ATOM     25  C   UNL     1       1.566  11.216  18.570  0.00  0.00    +0.000 A 
ATOM     26  C   UNL     1       1.146  12.404  19.175  0.00  0.00    +0.000 A 
ATOM     27  C   UNL     1      -0.214  12.664  19.334  0.00  0.00    +0.000 A 
ATOM     28  C   UNL     1      -1.126  11.731  18.812  0.00  0.00    +0.000 A 
ATOM     29  C   UNL     1      -0.724  10.516  18.252  0.00  0.00    +0.000 A 
BRANCH  24  31
ATOM     30  C   UNL     1       2.098   8.389  18.397  0.00  0.00    +0.000 C 
ATOM     31  O   UNL     1       1.055   9.030  17.662  0.00  0.00    +0.000 OA
ENDBRANCH  24  31
BRANCH  29  32
ATOM     32  O   UNL     1      -1.802   9.757  17.899  0.00  0.00    +0.000 OA
ATOM     33  C   UNL     1      -2.442   9.986  16.653  0.00  0.00    +0.000 C 
ENDBRANCH  29  32
ENDBRANCH   1  27
TORSDOF 7
ENDMDL
MODEL 8
REMARK VINA RESULT:      -6.0      2.058      5.054
REMARK  Name = 
REMARK  13 active torsions:
REMARK  status: ('A' for Active; 'I' for Inactive)
REMARK    1  A    between atoms: C_1  and  O_2
REMARK    2  A    between atoms: O_2  and  C_3
REMARK    3  A    between atoms: C_6  and  C_7
REMARK    4  A    between atoms: C_7  and  C_8
REMARK    5  A    between atoms: C_7  and  C_18
REMARK    6  A    between atoms: C_9  and  O_10
REMARK    7  A    between atoms: C_12  and  C_13
REMARK    8  A    between atoms: C_12  and  C_14
REMARK    9  A    between atoms: C_19  and  O_20
REMARK   10  A    between atoms: C_22  and  C_23
REMARK   11  A    between atoms: C_22  and  C_24
REMARK   12  A    between atoms: C_29  and  O_30
REMARK   13  A    between atoms: O_30  and  C_31
REMARK                            x       y       z     vdW  Elec       q    Type
REMARK                         _______ _______ _______ _____ _____    ______ ____
ROOT
ATOM      1  C   UNL     1      -0.006  13.005  20.876  0.00  0.00    +0.000 C 
ENDROOT
BRANCH   1   2
ATOM      2  C   UNL     1      -1.030  12.251  20.014  0.00  0.00    +0.000 C 
ATOM      3  C   UNL     1      -2.276  12.680  19.699  0.00  0.00    +0.000 C 
ATOM      4  C   UNL     1      -3.266  11.905  18.863  0.00  0.00    +0.000 C 
ATOM      5  C   UNL     1      -2.676  10.724  18.071  0.00  0.00    +0.000 C 
ATOM      6  C   UNL     1      -3.810   9.771  17.665  0.00  0.00    +0.000 C 
ATOM      7  C   UNL     1      -1.965  11.216  16.793  0.00  0.00    +0.000 C 
ATOM      8  C   UNL     1      -1.690   9.978  18.966  0.00  0.00    +0.000 C 
ATOM      9  C   UNL     1      -0.617  10.913  19.460  0.00  0.00    +0.000 C 
ATOM     10  O   UNL     1       0.561  10.556  19.457  0.00  0.00    +0.000 OA
BRANCH   3  11
ATOM     11  O   UNL     1      -2.800  13.896  20.093  0.00  0.00    +0.000 OA
ATOM     12  H   UNL     1      -2.113  14.485  20.433  0.00  0.00    +0.000 HD
ENDBRANCH   3  11
ENDBRANCH   1   2
BRANCH   1  13
ATOM     13  C   UNL     1       0.871  14.056  20.156  0.00  0.00    +0.000 C 
ATOM     14  C   UNL     1       0.482  15.100  19.386  0.00  0.00    +0.000 C 
ATOM     15  C   UNL     1       1.397  15.875  18.460  0.00  0.00    +0.000 C 
ATOM     16  C   UNL     1       2.902  15.768  18.756  0.00  0.00    +0.000 C 
ATOM     17  C   UNL     1       3.699  16.147  17.496  0.00  0.00    +0.000 C 
ATOM     18  C   UNL     1       3.288  16.730  19.892  0.00  0.00    +0.000 C 
ATOM     19  C   UNL     1       3.228  14.326  19.142  0.00  0.00    +0.000 C 
ATOM     20  C   UNL     1       2.357  13.900  20.299  0.00  0.00    +0.000 C 
ATOM     21  O   UNL     1       2.838  13.438  21.332  0.00  0.00    +0.000 OA
BRANCH  14  22
ATOM     22  O   UNL     1      -0.818  15.555  19.288  0.00  0.00    +0.000 OA
ATOM     23  H   UNL     1      -0.927  16.404  19.744  0.00  0.00    +0.000 HD
ENDBRANCH  14  22
ENDBRANCH   1  13
BRANCH   1  27
ATOM     24  C   UNL     1      -2.239  14.527  24.305  0.00  0.00    +0.000 A 
ATOM     25  C   UNL     1      -1.127  15.224  23.805  0.00  0.00    +0.000 A 
ATOM     26  C   UNL     1      -0.410  14.755  22.700  0.00  0.00    +0.000 A 
ATOM     27  C   UNL     1      -0.758  13.544  22.105  0.00  0.00    +0.000 A 
ATOM     28  C   UNL     1      -1.796  12.799  22.690  0.00  0.00    +0.000 A 
ATOM     29  C   UNL     1      -2.555  13.277  23.761  0.00  0.00    +0.000 A 
BRANCH  24  31
ATOM     30  C   UNL     1      -3.833  16.141  24.968  0.00  0.00    +0.000 C 
ATOM     31  O   UNL     1      -3.004  15.033  25.322  0.00  0.00    +0.000 OA
ENDBRANCH  24  31
BRANCH  29  32
ATOM     32  O   UNL     1      -3.551  12.402  24.086  0.00  0.00    +0.000 OA
ATOM     33  C   UNL     1      -4.893  12.709  23.740  0.00  0.00    +0.000 C 
ENDBRANCH  29  32
ENDBRANCH   1  27
TORSDOF 7
ENDMDL
MODEL 9
REMARK VINA RESULT:      -6.0      2.110      5.188
REMARK  Name = 
REMARK  13 active torsions:
REMARK  status: ('A' for Active; 'I' for Inactive)
REMARK    1  A    between atoms: C_1  and  O_2
REMARK    2  A    between atoms: O_2  and  C_3
REMARK    3  A    between atoms: C_6  and  C_7
REMARK    4  A    between atoms: C_7  and  C_8
REMARK    5  A    between atoms: C_7  and  C_18
REMARK    6  A    between atoms: C_9  and  O_10
REMARK    7  A    between atoms: C_12  and  C_13
REMARK    8  A    between atoms: C_12  and  C_14
REMARK    9  A    between atoms: C_19  and  O_20
REMARK   10  A    between atoms: C_22  and  C_23
REMARK   11  A    between atoms: C_22  and  C_24
REMARK   12  A    between atoms: C_29  and  O_30
REMARK   13  A    between atoms: O_30  and  C_31
REMARK                            x       y       z     vdW  Elec       q    Type
REMARK                         _______ _______ _______ _____ _____    ______ ____
ROOT
ATOM      1  C   UNL     1      -1.107  12.573  20.948  0.00  0.00    +0.000 C 
ENDROOT
BRANCH   1   2
ATOM      2  C   UNL     1      -0.427  11.197  20.909  0.00  0.00    +0.000 C 
ATOM      3  C   UNL     1       0.425  10.755  19.953  0.00  0.00    +0.000 C 
ATOM      4  C   UNL     1       1.064   9.387  19.935  0.00  0.00    +0.000 C 
ATOM      5  C   UNL     1       0.980   8.605  21.258  0.00  0.00    +0.000 C 
ATOM      6  C   UNL     1       1.225   7.115  20.981  0.00  0.00    +0.000 C 
ATOM      7  C   UNL     1       2.044   9.100  22.261  0.00  0.00    +0.000 C 
ATOM      8  C   UNL     1      -0.418   8.783  21.846  0.00  0.00    +0.000 C 
ATOM      9  C   UNL     1      -0.725  10.245  22.039  0.00  0.00    +0.000 C 
ATOM     10  O   UNL     1      -1.258  10.631  23.078  0.00  0.00    +0.000 OA
BRANCH   3  11
ATOM     11  O   UNL     1       0.833  11.510  18.870  0.00  0.00    +0.000 OA
ATOM     12  H   UNL     1       1.202  10.955  18.170  0.00  0.00    +0.000 HD
ENDBRANCH   3  11
ENDBRANCH   1   2
BRANCH   1  13
ATOM     13  C   UNL     1      -0.246  13.788  20.529  0.00  0.00    +0.000 C 
ATOM     14  C   UNL     1      -0.070  14.316  19.294  0.00  0.00    +0.000 C 
ATOM     15  C   UNL     1       1.032  15.286  18.920  0.00  0.00    +0.000 C 
ATOM     16  C   UNL     1       1.683  16.047  20.088  0.00  0.00    +0.000 C 
ATOM     17  C   UNL     1       3.063  16.569  19.653  0.00  0.00    +0.000 C 
ATOM     18  C   UNL     1       0.807  17.245  20.492  0.00  0.00    +0.000 C 
ATOM     19  C   UNL     1       1.856  15.090  21.266  0.00  0.00    +0.000 C 
ATOM     20  C   UNL     1       0.525  14.472  21.620  0.00  0.00    +0.000 C 
ATOM     21  O   UNL     1       0.075  14.522  22.764  0.00  0.00    +0.000 OA
BRANCH  14  22
ATOM     22  O   UNL     1      -0.830  13.986  18.189  0.00  0.00    +0.000 OA
ATOM     23  H   UNL     1      -0.993  14.763  17.631  0.00  0.00    +0.000 HD
ENDBRANCH  14  22
ENDBRANCH   1  13
BRANCH   1  27
ATOM     24  C   UNL     1      -4.926  12.173  18.871  0.00  0.00    +0.000 A 
ATOM     25  C   UNL     1      -3.770  11.544  18.378  0.00  0.00    +0.000 A 
ATOM     26  C   UNL     1      -2.543  11.653  19.040  0.00  0.00    +0.000 A 
ATOM     27  C   UNL     1      -2.435  12.444  20.182  0.00  0.00    +0.000 A 
ATOM     28  C   UNL     1      -3.569  13.163  20.594  0.00  0.00    +0.000 A 
ATOM     29  C   UNL     1      -4.814  13.025  19.975  0.00  0.00    +0.000 A 
BRANCH  24  31
ATOM     30  C   UNL     1      -6.778  10.736  18.569  0.00  0.00    +0.000 C 
ATOM     31  O   UNL     1      -6.148  11.985  18.283  0.00  0.00    +0.000 OA
ENDBRANCH  24  31
BRANCH  29  32
ATOM     32  O   UNL     1      -5.766  13.764  20.615  0.00  0.00    +0.000 OA
ATOM     33  C   UNL     1      -6.387  13.247  21.782  0.00  0.00    +0.000 C 
ENDBRANCH  29  32
ENDBRANCH   1  27
TORSDOF 7
ENDMDL
