MODEL 1
REMARK VINA RESULT:      -7.1      0.000      0.000
REMARK  Name = 
REMARK  8 active torsions:
REMARK  status: ('A' for Active; 'I' for Inactive)
REMARK    1  A    between atoms: C_1  and  C_2
REMARK    2  A    between atoms: C_2  and  C_4
REMARK    3  A    between atoms: C_4  and  C_5
REMARK    4  A    between atoms: C_5  and  C_6
REMARK    5  A    between atoms: C_6  and  C_7
REMARK    6  A    between atoms: C_8  and  C_9
REMARK    7  A    between atoms: C_24  and  C_25
REMARK    8  A    between atoms: C_24  and  C_26
REMARK                            x       y       z     vdW  Elec       q    Type
REMARK                         _______ _______ _______ _____ _____    ______ ____
ROOT
ATOM      1  C   UNL     1       2.158   7.793  18.980  0.00  0.00    +0.000 A 
ATOM      2  C   UNL     1       2.187   6.579  19.660  0.00  0.00    +0.000 A 
ATOM      3  O   UNL     1       1.542   6.693  20.857  0.00  0.00    +0.000 OA
ATOM      4  C   UNL     1       1.132   7.983  20.981  0.00  0.00    +0.000 A 
ATOM      5  C   UNL     1       0.469   8.513  22.089  0.00  0.00    +0.000 A 
ATOM      6  C   UNL     1       0.170   9.879  22.044  0.00  0.00    +0.000 A 
ATOM      7  C   UNL     1       0.503  10.656  20.931  0.00  0.00    +0.000 A 
ATOM      8  C   UNL     1       1.107  10.085  19.789  0.00  0.00    +0.000 A 
ATOM      9  C   UNL     1       1.466   8.712  19.848  0.00  0.00    +0.000 A 
ATOM     10  C   UNL     1       1.392  10.939  18.588  0.00  0.00    +0.000 C 
ATOM     11  C   UNL     1       0.718  12.290  18.674  0.00  0.00    +0.000 C 
ATOM     12  C   UNL     1       0.862  12.863  20.083  0.00  0.00    +0.000 C 
ATOM     13  C   UNL     1       2.325  13.095  20.504  0.00  0.00    +0.000 C 
ATOM     14  C   UNL     1       0.133  14.213  20.114  0.00  0.00    +0.000 C 
ATOM     15  O   UNL     1       0.211  11.998  21.037  0.00  0.00    +0.000 OA
ENDROOT
BRANCH   2  16
ATOM     16  C   UNL     1       2.720   5.255  19.345  0.00  0.00    +0.000 A 
ATOM     17  C   UNL     1       3.976   4.856  19.809  0.00  0.00    +0.000 A 
ATOM     18  C   UNL     1       4.512   3.660  19.361  0.00  0.00    +0.000 A 
ATOM     19  N   UNL     1       3.868   2.824  18.524  0.00  0.00    +0.000 NA
ATOM     20  C   UNL     1       2.632   3.196  18.132  0.00  0.00    +0.000 A 
ATOM     21  C   UNL     1       2.023   4.382  18.508  0.00  0.00    +0.000 A 
ENDBRANCH   2  16
BRANCH   1  22
ATOM     22  C   UNL     1       2.745   8.090  17.636  0.00  0.00    +0.000 C 
BRANCH  22  23
ATOM     23  C   UNL     1       4.231   7.774  17.483  0.00  0.00    +0.000 C 
BRANCH  23  24
ATOM     24  C   UNL     1       4.547   6.639  16.512  0.00  0.00    +0.000 C 
BRANCH  24  26
ATOM     25  C   UNL     1       6.364   4.810  16.444  0.00  0.00    +0.000 C 
ATOM     26  C   UNL     1       6.015   6.262  16.616  0.00  0.00    +0.000 C 
ATOM     27  O   UNL     1       6.894   7.109  16.776  0.00  0.00    +0.000 OA
ENDBRANCH  24  26
ENDBRANCH  23  24
ENDBRANCH  22  23
ENDBRANCH   1  22
TORSDOF 5
ENDMDL
MODEL 2
REMARK VINA RESULT:      -6.9      0.586      1.134
REMARK  Name = 
REMARK  8 active torsions:
REMARK  status: ('A' for Active; 'I' for Inactive)
REMARK    1  A    between atoms: C_1  and  C_2
REMARK    2  A    between atoms: C_2  and  C_4
REMARK    3  A    between atoms: C_4  and  C_5
REMARK    4  A    between atoms: C_5  and  C_6
REMARK    5  A    between atoms: C_6  and  C_7
REMARK    6  A    between atoms: C_8  and  C_9
REMARK    7  A    between atoms: C_24  and  C_25
REMARK    8  A    between atoms: C_24  and  C_26
REMARK                            x       y       z     vdW  Elec       q    Type
REMARK                         _______ _______ _______ _____ _____    ______ ____
ROOT
ATOM      1  C   UNL     1       2.239   7.672  18.894  0.00  0.00    +0.000 A 
ATOM      2  C   UNL     1       2.274   6.453  19.567  0.00  0.00    +0.000 A 
ATOM      3  O   UNL     1       1.619   6.554  20.759  0.00  0.00    +0.000 OA
ATOM      4  C   UNL     1       1.196   7.840  20.889  0.00  0.00    +0.000 A 
ATOM      5  C   UNL     1       0.520   8.357  21.995  0.00  0.00    +0.000 A 
ATOM      6  C   UNL     1       0.209   9.720  21.956  0.00  0.00    +0.000 A 
ATOM      7  C   UNL     1       0.544  10.507  20.850  0.00  0.00    +0.000 A 
ATOM      8  C   UNL     1       1.161   9.949  19.709  0.00  0.00    +0.000 A 
ATOM      9  C   UNL     1       1.533   8.579  19.763  0.00  0.00    +0.000 A 
ATOM     10  C   UNL     1       1.447  10.813  18.516  0.00  0.00    +0.000 C 
ATOM     11  C   UNL     1       0.761  12.157  18.606  0.00  0.00    +0.000 C 
ATOM     12  C   UNL     1       0.888  12.723  20.019  0.00  0.00    +0.000 C 
ATOM     13  C   UNL     1       2.346  12.965  20.453  0.00  0.00    +0.000 C 
ATOM     14  C   UNL     1       0.147  14.066  20.053  0.00  0.00    +0.000 C 
ATOM     15  O   UNL     1       0.239  11.846  20.962  0.00  0.00    +0.000 OA
ENDROOT
BRANCH   2  16
ATOM     16  C   UNL     1       2.821   5.137  19.247  0.00  0.00    +0.000 A 
ATOM     17  C   UNL     1       2.067   4.196  18.541  0.00  0.00    +0.000 A 
ATOM     18  C   UNL     1       2.558   2.910  18.393  0.00  0.00    +0.000 A 
ATOM     19  N   UNL     1       3.758   2.515  18.859  0.00  0.00    +0.000 NA
ATOM     20  C   UNL     1       4.500   3.451  19.487  0.00  0.00    +0.000 A 
ATOM     21  C   UNL     1       4.083   4.755  19.702  0.00  0.00    +0.000 A 
ENDBRANCH   2  16
BRANCH   1  22
ATOM     22  C   UNL     1       2.833   7.983  17.556  0.00  0.00    +0.000 C 
BRANCH  22  23
ATOM     23  C   UNL     1       4.331   7.716  17.425  0.00  0.00    +0.000 C 
BRANCH  23  24
ATOM     24  C   UNL     1       4.704   6.653  16.394  0.00  0.00    +0.000 C 
BRANCH  24  26
ATOM     25  C   UNL     1       7.077   6.858  17.381  0.00  0.00    +0.000 C 
ATOM     26  C   UNL     1       6.007   5.981  16.791  0.00  0.00    +0.000 C 
ATOM     27  O   UNL     1       6.169   4.765  16.692  0.00  0.00    +0.000 OA
ENDBRANCH  24  26
ENDBRANCH  23  24
ENDBRANCH  22  23
ENDBRANCH   1  22
TORSDOF 5
ENDMDL
MODEL 3
REMARK VINA RESULT:      -6.8      1.056      1.093
REMARK  Name = 
REMARK  8 active torsions:
REMARK  status: ('A' for Active; 'I' for Inactive)
REMARK    1  A    between atoms: C_1  and  C_2
REMARK    2  A    between atoms: C_2  and  C_4
REMARK    3  A    between atoms: C_4  and  C_5
REMARK    4  A    between atoms: C_5  and  C_6
REMARK    5  A    between atoms: C_6  and  C_7
REMARK    6  A    between atoms: C_8  and  C_9
REMARK    7  A    between atoms: C_24  and  C_25
REMARK    8  A    between atoms: C_24  and  C_26
REMARK                            x       y       z     vdW  Elec       q    Type
REMARK                         _______ _______ _______ _____ _____    ______ ____
ROOT
ATOM      1  C   UNL     1       1.650   7.851  19.482  0.00  0.00    +0.000 A 
ATOM      2  C   UNL     1       1.622   6.766  20.354  0.00  0.00    +0.000 A 
ATOM      3  O   UNL     1       1.090   7.139  21.554  0.00  0.00    +0.000 OA
ATOM      4  C   UNL     1       0.810   8.468  21.484  0.00  0.00    +0.000 A 
ATOM      5  C   UNL     1       0.290   9.236  22.527  0.00  0.00    +0.000 A 
ATOM      6  C   UNL     1       0.115  10.600  22.270  0.00  0.00    +0.000 A 
ATOM      7  C   UNL     1       0.426  11.148  21.023  0.00  0.00    +0.000 A 
ATOM      8  C   UNL     1       0.881  10.340  19.957  0.00  0.00    +0.000 A 
ATOM      9  C   UNL     1       1.117   8.965  20.225  0.00  0.00    +0.000 A 
ATOM     10  C   UNL     1       1.144  10.954  18.613  0.00  0.00    +0.000 C 
ATOM     11  C   UNL     1       0.606  12.363  18.513  0.00  0.00    +0.000 C 
ATOM     12  C   UNL     1       0.915  13.140  19.792  0.00  0.00    +0.000 C 
ATOM     13  C   UNL     1       2.422  13.283  20.072  0.00  0.00    +0.000 C 
ATOM     14  C   UNL     1       0.317  14.545  19.641  0.00  0.00    +0.000 C 
ATOM     15  O   UNL     1       0.268  12.513  20.919  0.00  0.00    +0.000 OA
ENDROOT
BRANCH   2  16
ATOM     16  C   UNL     1       2.005   5.361  20.233  0.00  0.00    +0.000 A 
ATOM     17  C   UNL     1       3.340   4.993  20.046  0.00  0.00    +0.000 A 
ATOM     18  C   UNL     1       3.643   3.668  19.780  0.00  0.00    +0.000 A 
ATOM     19  N   UNL     1       2.720   2.689  19.731  0.00  0.00    +0.000 NA
ATOM     20  C   UNL     1       1.443   3.052  19.973  0.00  0.00    +0.000 A 
ATOM     21  C   UNL     1       1.040   4.353  20.225  0.00  0.00    +0.000 A 
ENDBRANCH   2  16
BRANCH   1  22
ATOM     22  C   UNL     1       2.150   7.864  18.071  0.00  0.00    +0.000 C 
BRANCH  22  23
ATOM     23  C   UNL     1       3.658   7.685  17.908  0.00  0.00    +0.000 C 
BRANCH  23  24
ATOM     24  C   UNL     1       4.074   6.423  17.153  0.00  0.00    +0.000 C 
BRANCH  24  26
ATOM     25  C   UNL     1       6.612   6.849  17.310  0.00  0.00    +0.000 C 
ATOM     26  C   UNL     1       5.397   6.657  16.445  0.00  0.00    +0.000 C 
ATOM     27  O   UNL     1       5.491   6.634  15.218  0.00  0.00    +0.000 OA
ENDBRANCH  24  26
ENDBRANCH  23  24
ENDBRANCH  22  23
ENDBRANCH   1  22
TORSDOF 5
ENDMDL
MODEL 4
REMARK VINA RESULT:      -6.7      2.749      4.910
REMARK  Name = 
REMARK  8 active torsions:
REMARK  status: ('A' for Active; 'I' for Inactive)
REMARK    1  A    between atoms: C_1  and  C_2
REMARK    2  A    between atoms: C_2  and  C_4
REMARK    3  A    between atoms: C_4  and  C_5
REMARK    4  A    between atoms: C_5  and  C_6
REMARK    5  A    between atoms: C_6  and  C_7
REMARK    6  A    between atoms: C_8  and  C_9
REMARK    7  A    between atoms: C_24  and  C_25
REMARK    8  A    between atoms: C_24  and  C_26
REMARK                            x       y       z     vdW  Elec       q    Type
REMARK                         _______ _______ _______ _____ _____    ______ ____
ROOT
ATOM      1  C   UNL     1       0.437   9.757  19.530  0.00  0.00    +0.000 A 
ATOM      2  C   UNL     1       1.237   8.683  19.913  0.00  0.00    +0.000 A 
ATOM      3  O   UNL     1       1.115   8.460  21.253  0.00  0.00    +0.000 OA
ATOM      4  C   UNL     1       0.277   9.407  21.754  0.00  0.00    +0.000 A 
ATOM      5  C   UNL     1      -0.070   9.544  23.098  0.00  0.00    +0.000 A 
ATOM      6  C   UNL     1      -0.913  10.613  23.420  0.00  0.00    +0.000 A 
ATOM      7  C   UNL     1      -1.394  11.477  22.432  0.00  0.00    +0.000 A 
ATOM      8  C   UNL     1      -1.092  11.277  21.067  0.00  0.00    +0.000 A 
ATOM      9  C   UNL     1      -0.190  10.229  20.738  0.00  0.00    +0.000 A 
ATOM     10  C   UNL     1      -1.679  12.187  20.030  0.00  0.00    +0.000 C 
ATOM     11  C   UNL     1      -2.773  13.065  20.593  0.00  0.00    +0.000 C 
ATOM     12  C   UNL     1      -2.362  13.612  21.960  0.00  0.00    +0.000 C 
ATOM     13  C   UNL     1      -1.099  14.492  21.912  0.00  0.00    +0.000 C 
ATOM     14  C   UNL     1      -3.523  14.464  22.490  0.00  0.00    +0.000 C 
ATOM     15  O   UNL     1      -2.164  12.525  22.887  0.00  0.00    +0.000 OA
ENDROOT
BRANCH   2  16
ATOM     16  C   UNL     1       2.117   7.768  19.189  0.00  0.00    +0.000 A 
ATOM     17  C   UNL     1       2.424   6.507  19.705  0.00  0.00    +0.000 A 
ATOM     18  C   UNL     1       3.381   5.733  19.070  0.00  0.00    +0.000 A 
ATOM     19  N   UNL     1       4.013   6.110  17.943  0.00  0.00    +0.000 NA
ATOM     20  C   UNL     1       3.662   7.305  17.425  0.00  0.00    +0.000 A 
ATOM     21  C   UNL     1       2.734   8.158  18.000  0.00  0.00    +0.000 A 
ENDBRANCH   2  16
BRANCH   1  22
ATOM     22  C   UNL     1       0.280  10.319  18.152  0.00  0.00    +0.000 C 
BRANCH  22  23
ATOM     23  C   UNL     1      -0.770   9.636  17.279  0.00  0.00    +0.000 C 
BRANCH  23  24
ATOM     24  C   UNL     1      -2.217   9.911  17.686  0.00  0.00    +0.000 C 
BRANCH  24  26
ATOM     25  C   UNL     1      -4.131  11.483  16.966  0.00  0.00    +0.000 C 
ATOM     26  C   UNL     1      -2.931  10.664  16.576  0.00  0.00    +0.000 C 
ATOM     27  O   UNL     1      -2.520  10.656  15.416  0.00  0.00    +0.000 OA
ENDBRANCH  24  26
ENDBRANCH  23  24
ENDBRANCH  22  23
ENDBRANCH   1  22
TORSDOF 5
ENDMDL
MODEL 5
REMARK VINA RESULT:      -6.6      1.926      3.881
REMARK  Name = 
REMARK  8 active torsions:
REMARK  status: ('A' for Active; 'I' for Inactive)
REMARK    1  A    between atoms: C_1  and  C_2
REMARK    2  A    between atoms: C_2  and  C_4
REMARK    3  A    between atoms: C_4  and  C_5
REMARK    4  A    between atoms: C_5  and  C_6
REMARK    5  A    between atoms: C_6  and  C_7
REMARK    6  A    between atoms: C_8  and  C_9
REMARK    7  A    between atoms: C_24  and  C_25
REMARK    8  A    between atoms: C_24  and  C_26
REMARK                            x       y       z     vdW  Elec       q    Type
REMARK                         _______ _______ _______ _____ _____    ______ ____
ROOT
ATOM      1  C   UNL     1       1.761   7.466  19.581  0.00  0.00    +0.000 A 
ATOM      2  C   UNL     1       2.499   7.063  18.471  0.00  0.00    +0.000 A 
ATOM      3  O   UNL     1       2.824   8.142  17.703  0.00  0.00    +0.000 OA
ATOM      4  C   UNL     1       2.266   9.240  18.280  0.00  0.00    +0.000 A 
ATOM      5  C   UNL     1       2.335  10.538  17.772  0.00  0.00    +0.000 A 
ATOM      6  C   UNL     1       1.655  11.527  18.491  0.00  0.00    +0.000 A 
ATOM      7  C   UNL     1       0.967  11.221  19.668  0.00  0.00    +0.000 A 
ATOM      8  C   UNL     1       0.972   9.915  20.206  0.00  0.00    +0.000 A 
ATOM      9  C   UNL     1       1.610   8.893  19.453  0.00  0.00    +0.000 A 
ATOM     10  C   UNL     1       0.275   9.639  21.506  0.00  0.00    +0.000 C 
ATOM     11  C   UNL     1      -0.124  10.909  22.222  0.00  0.00    +0.000 C 
ATOM     12  C   UNL     1      -0.706  11.915  21.230  0.00  0.00    +0.000 C 
ATOM     13  C   UNL     1      -1.979  11.412  20.524  0.00  0.00    +0.000 C 
ATOM     14  C   UNL     1      -1.059  13.189  22.009  0.00  0.00    +0.000 C 
ATOM     15  O   UNL     1       0.288  12.271  20.247  0.00  0.00    +0.000 OA
ENDROOT
BRANCH   2  16
ATOM     16  C   UNL     1       3.000   5.772  18.005  0.00  0.00    +0.000 A 
ATOM     17  C   UNL     1       2.124   4.778  17.560  0.00  0.00    +0.000 A 
ATOM     18  C   UNL     1       2.622   3.518  17.274  0.00  0.00    +0.000 A 
ATOM     19  N   UNL     1       3.926   3.197  17.360  0.00  0.00    +0.000 NA
ATOM     20  C   UNL     1       4.767   4.183  17.735  0.00  0.00    +0.000 A 
ATOM     21  C   UNL     1       4.361   5.467  18.062  0.00  0.00    +0.000 A 
ENDBRANCH   2  16
BRANCH   1  22
ATOM     22  C   UNL     1       1.218   6.595  20.670  0.00  0.00    +0.000 C 
BRANCH  22  23
ATOM     23  C   UNL     1       1.996   5.307  20.931  0.00  0.00    +0.000 C 
BRANCH  23  24
ATOM     24  C   UNL     1       1.181   4.025  20.774  0.00  0.00    +0.000 C 
BRANCH  24  26
ATOM     25  C   UNL     1       3.299   2.554  20.834  0.00  0.00    +0.000 C 
ATOM     26  C   UNL     1       1.933   2.856  21.387  0.00  0.00    +0.000 C 
ATOM     27  O   UNL     1       1.478   2.214  22.333  0.00  0.00    +0.000 OA
ENDBRANCH  24  26
ENDBRANCH  23  24
ENDBRANCH  22  23
ENDBRANCH   1  22
TORSDOF 5
ENDMDL
MODEL 6
REMARK VINA RESULT:      -6.6      3.330      5.649
REMARK  Name = 
REMARK  8 active torsions:
REMARK  status: ('A' for Active; 'I' for Inactive)
REMARK    1  A    between atoms: C_1  and  C_2
REMARK    2  A    between atoms: C_2  and  C_4
REMARK    3  A    between atoms: C_4  and  C_5
REMARK    4  A    between atoms: C_5  and  C_6
REMARK    5  A    between atoms: C_6  and  C_7
REMARK    6  A    between atoms: C_8  and  C_9
REMARK    7  A    between atoms: C_24  and  C_25
REMARK    8  A    between atoms: C_24  and  C_26
REMARK                            x       y       z     vdW  Elec       q    Type
REMARK                         _______ _______ _______ _____ _____    ______ ____
ROOT
ATOM      1  C   UNL     1      -0.401  10.418  19.516  0.00  0.00    +0.000 A 
ATOM      2  C   UNL     1       0.534   9.491  19.967  0.00  0.00    +0.000 A 
ATOM      3  O   UNL     1       0.512   9.423  21.329  0.00  0.00    +0.000 OA
ATOM      4  C   UNL     1      -0.399  10.331  21.771  0.00  0.00    +0.000 A 
ATOM      5  C   UNL     1      -0.685  10.597  23.111  0.00  0.00    +0.000 A 
ATOM      6  C   UNL     1      -1.624  11.603  23.362  0.00  0.00    +0.000 A 
ATOM      7  C   UNL     1      -2.253  12.283  22.315  0.00  0.00    +0.000 A 
ATOM      8  C   UNL     1      -2.005  11.948  20.965  0.00  0.00    +0.000 A 
ATOM      9  C   UNL     1      -1.011  10.968  20.700  0.00  0.00    +0.000 A 
ATOM     10  C   UNL     1      -2.747  12.656  19.871  0.00  0.00    +0.000 C 
ATOM     11  C   UNL     1      -3.900  13.477  20.400  0.00  0.00    +0.000 C 
ATOM     12  C   UNL     1      -3.479  14.229  21.662  0.00  0.00    +0.000 C 
ATOM     13  C   UNL     1      -2.328  15.224  21.426  0.00  0.00    +0.000 C 
ATOM     14  C   UNL     1      -4.697  15.014  22.167  0.00  0.00    +0.000 C 
ATOM     15  O   UNL     1      -3.110  13.292  22.695  0.00  0.00    +0.000 OA
ENDROOT
BRANCH   2  16
ATOM     16  C   UNL     1       1.470   8.590  19.297  0.00  0.00    +0.000 A 
ATOM     17  C   UNL     1       1.885   7.402  19.904  0.00  0.00    +0.000 A 
ATOM     18  C   UNL     1       2.888   6.655  19.309  0.00  0.00    +0.000 A 
ATOM     19  N   UNL     1       3.468   6.987  18.141  0.00  0.00    +0.000 NA
ATOM     20  C   UNL     1       3.015   8.106  17.538  0.00  0.00    +0.000 A 
ATOM     21  C   UNL     1       2.033   8.929  18.066  0.00  0.00    +0.000 A 
ENDBRANCH   2  16
BRANCH   1  22
ATOM     22  C   UNL     1      -0.696  10.786  18.095  0.00  0.00    +0.000 C 
BRANCH  22  23
ATOM     23  C   UNL     1      -1.514   9.764  17.308  0.00  0.00    +0.000 C 
BRANCH  23  24
ATOM     24  C   UNL     1      -3.027   9.892  17.474  0.00  0.00    +0.000 C 
BRANCH  24  26
ATOM     25  C   UNL     1      -4.775  11.690  16.874  0.00  0.00    +0.000 C 
ATOM     26  C   UNL     1      -3.577  10.881  16.461  0.00  0.00    +0.000 C 
ATOM     27  O   UNL     1      -3.038  11.061  15.369  0.00  0.00    +0.000 OA
ENDBRANCH  24  26
ENDBRANCH  23  24
ENDBRANCH  22  23
ENDBRANCH   1  22
TORSDOF 5
ENDMDL
MODEL 7
REMARK VINA RESULT:      -6.6      2.762      4.910
REMARK  Name = 
REMARK  8 active torsions:
REMARK  status: ('A' for Active; 'I' for Inactive)
REMARK    1  A    between atoms: C_1  and  C_2
REMARK    2  A    between atoms: C_2  and  C_4
REMARK    3  A    between atoms: C_4  and  C_5
REMARK    4  A    between atoms: C_5  and  C_6
REMARK    5  A    between atoms: C_6  and  C_7
REMARK    6  A    between atoms: C_8  and  C_9
REMARK    7  A    between atoms: C_24  and  C_25
REMARK    8  A    between atoms: C_24  and  C_26
REMARK                            x       y       z     vdW  Elec       q    Type
REMARK                         _______ _______ _______ _____ _____    ______ ____
ROOT
ATOM      1  C   UNL     1       0.392   9.818  19.518  0.00  0.00    +0.000 A 
ATOM      2  C   UNL     1       1.221   8.777  19.929  0.00  0.00    +0.000 A 
ATOM      3  O   UNL     1       1.100   8.580  21.273  0.00  0.00    +0.000 OA
ATOM      4  C   UNL     1       0.233   9.513  21.749  0.00  0.00    +0.000 A 
ATOM      5  C   UNL     1      -0.124   9.671  23.089  0.00  0.00    +0.000 A 
ATOM      6  C   UNL     1      -0.999  10.722  23.383  0.00  0.00    +0.000 A 
ATOM      7  C   UNL     1      -1.500  11.549  22.375  0.00  0.00    +0.000 A 
ATOM      8  C   UNL     1      -1.186  11.327  21.016  0.00  0.00    +0.000 A 
ATOM      9  C   UNL     1      -0.253  10.299  20.713  0.00  0.00    +0.000 A 
ATOM     10  C   UNL     1      -1.795  12.197  19.956  0.00  0.00    +0.000 C 
ATOM     11  C   UNL     1      -2.916  13.056  20.495  0.00  0.00    +0.000 C 
ATOM     12  C   UNL     1      -2.527  13.645  21.851  0.00  0.00    +0.000 C 
ATOM     13  C   UNL     1      -1.289  14.559  21.788  0.00  0.00    +0.000 C 
ATOM     14  C   UNL     1      -3.714  14.475  22.358  0.00  0.00    +0.000 C 
ATOM     15  O   UNL     1      -2.302  12.585  22.803  0.00  0.00    +0.000 OA
ENDROOT
BRANCH   2  16
ATOM     16  C   UNL     1       2.129   7.872  19.228  0.00  0.00    +0.000 A 
ATOM     17  C   UNL     1       2.742   8.252  18.031  0.00  0.00    +0.000 A 
ATOM     18  C   UNL     1       3.471   7.314  17.319  0.00  0.00    +0.000 A 
ATOM     19  N   UNL     1       3.663   6.048  17.737  0.00  0.00    +0.000 NA
ATOM     20  C   UNL     1       3.114   5.714  18.923  0.00  0.00    +0.000 A 
ATOM     21  C   UNL     1       2.351   6.576  19.695  0.00  0.00    +0.000 A 
ENDBRANCH   2  16
BRANCH   1  22
ATOM     22  C   UNL     1       0.225  10.345  18.127  0.00  0.00    +0.000 C 
BRANCH  22  23
ATOM     23  C   UNL     1      -0.790   9.602  17.261  0.00  0.00    +0.000 C 
BRANCH  23  24
ATOM     24  C   UNL     1      -2.250   9.827  17.652  0.00  0.00    +0.000 C 
BRANCH  24  26
ATOM     25  C   UNL     1      -2.863  10.031  15.156  0.00  0.00    +0.000 C 
ATOM     26  C   UNL     1      -2.970  10.585  16.550  0.00  0.00    +0.000 C 
ATOM     27  O   UNL     1      -3.660  11.576  16.786  0.00  0.00    +0.000 OA
ENDBRANCH  24  26
ENDBRANCH  23  24
ENDBRANCH  22  23
ENDBRANCH   1  22
TORSDOF 5
ENDMDL
MODEL 8
REMARK VINA RESULT:      -6.5      2.020      4.146
REMARK  Name = 
REMARK  8 active torsions:
REMARK  status: ('A' for Active; 'I' for Inactive)
REMARK    1  A    between atoms: C_1  and  C_2
REMARK    2  A    between atoms: C_2  and  C_4
REMARK    3  A    between atoms: C_4  and  C_5
REMARK    4  A    between atoms: C_5  and  C_6
REMARK    5  A    between atoms: C_6  and  C_7
REMARK    6  A    between atoms: C_8  and  C_9
REMARK    7  A    between atoms: C_24  and  C_25
REMARK    8  A    between atoms: C_24  and  C_26
REMARK                            x       y       z     vdW  Elec       q    Type
REMARK                         _______ _______ _______ _____ _____    ______ ____
ROOT
ATOM      1  C   UNL     1       3.013   6.778  19.002  0.00  0.00    +0.000 A 
ATOM      2  C   UNL     1       3.458   6.741  17.683  0.00  0.00    +0.000 A 
ATOM      3  O   UNL     1       3.108   7.889  17.035  0.00  0.00    +0.000 OA
ATOM      4  C   UNL     1       2.402   8.655  17.908  0.00  0.00    +0.000 A 
ATOM      5  C   UNL     1       1.830   9.893  17.611  0.00  0.00    +0.000 A 
ATOM      6  C   UNL     1       1.100  10.506  18.635  0.00  0.00    +0.000 A 
ATOM      7  C   UNL     1       0.977   9.909  19.893  0.00  0.00    +0.000 A 
ATOM      8  C   UNL     1       1.626   8.691  20.197  0.00  0.00    +0.000 A 
ATOM      9  C   UNL     1       2.321   8.033  19.146  0.00  0.00    +0.000 A 
ATOM     10  C   UNL     1       1.524   8.114  21.577  0.00  0.00    +0.000 C 
ATOM     11  C   UNL     1       0.937   9.095  22.566  0.00  0.00    +0.000 C 
ATOM     12  C   UNL     1      -0.251   9.827  21.943  0.00  0.00    +0.000 C 
ATOM     13  C   UNL     1      -1.406   8.889  21.544  0.00  0.00    +0.000 C 
ATOM     14  C   UNL     1      -0.779  10.828  22.979  0.00  0.00    +0.000 C 
ATOM     15  O   UNL     1       0.182  10.583  20.793  0.00  0.00    +0.000 OA
ENDROOT
BRANCH   2  16
ATOM     16  C   UNL     1       4.221   5.770  16.900  0.00  0.00    +0.000 A 
ATOM     17  C   UNL     1       4.070   4.397  17.111  0.00  0.00    +0.000 A 
ATOM     18  C   UNL     1       4.920   3.517  16.463  0.00  0.00    +0.000 A 
ATOM     19  N   UNL     1       5.871   3.907  15.594  0.00  0.00    +0.000 NA
ATOM     20  C   UNL     1       5.965   5.232  15.356  0.00  0.00    +0.000 A 
ATOM     21  C   UNL     1       5.176   6.189  15.973  0.00  0.00    +0.000 A 
ENDBRANCH   2  16
BRANCH   1  22
ATOM     22  C   UNL     1       3.196   5.722  20.047  0.00  0.00    +0.000 C 
BRANCH  22  23
ATOM     23  C   UNL     1       1.943   4.925  20.401  0.00  0.00    +0.000 C 
BRANCH  23  24
ATOM     24  C   UNL     1       1.974   3.460  19.966  0.00  0.00    +0.000 C 
BRANCH  24  26
ATOM     25  C   UNL     1       4.249   2.256  20.124  0.00  0.00    +0.000 C 
ATOM     26  C   UNL     1       2.981   2.693  20.805  0.00  0.00    +0.000 C 
ATOM     27  O   UNL     1       2.803   2.483  22.005  0.00  0.00    +0.000 OA
ENDBRANCH  24  26
ENDBRANCH  23  24
ENDBRANCH  22  23
ENDBRANCH   1  22
TORSDOF 5
ENDMDL
MODEL 9
REMARK VINA RESULT:      -6.5      3.638      5.831
REMARK  Name = 
REMARK  8 active torsions:
REMARK  status: ('A' for Active; 'I' for Inactive)
REMARK    1  A    between atoms: C_1  and  C_2
REMARK    2  A    between atoms: C_2  and  C_4
REMARK    3  A    between atoms: C_4  and  C_5
REMARK    4  A    between atoms: C_5  and  C_6
REMARK    5  A    between atoms: C_6  and  C_7
REMARK    6  A    between atoms: C_8  and  C_9
REMARK    7  A    between atoms: C_24  and  C_25
REMARK    8  A    between atoms: C_24  and  C_26
REMARK                            x       y       z     vdW  Elec       q    Type
REMARK                         _______ _______ _______ _____ _____    ______ ____
ROOT
ATOM      1  C   UNL     1      -0.668  10.537  19.580  0.00  0.00    +0.000 A 
ATOM      2  C   UNL     1       0.357   9.746  20.092  0.00  0.00    +0.000 A 
ATOM      3  O   UNL     1       0.372   9.816  21.454  0.00  0.00    +0.000 OA
ATOM      4  C   UNL     1      -0.607  10.681  21.831  0.00  0.00    +0.000 A 
ATOM      5  C   UNL     1      -0.887  11.057  23.146  0.00  0.00    +0.000 A 
ATOM      6  C   UNL     1      -1.907  11.997  23.325  0.00  0.00    +0.000 A 
ATOM      7  C   UNL     1      -2.618  12.508  22.236  0.00  0.00    +0.000 A 
ATOM      8  C   UNL     1      -2.371  12.059  20.919  0.00  0.00    +0.000 A 
ATOM      9  C   UNL     1      -1.298  11.149  20.722  0.00  0.00    +0.000 A 
ATOM     10  C   UNL     1      -3.199  12.584  19.783  0.00  0.00    +0.000 C 
ATOM     11  C   UNL     1      -4.410  13.351  20.264  0.00  0.00    +0.000 C 
ATOM     12  C   UNL     1      -4.030  14.262  21.431  0.00  0.00    +0.000 C 
ATOM     13  C   UNL     1      -2.979  15.325  21.060  0.00  0.00    +0.000 C 
ATOM     14  C   UNL     1      -5.303  14.984  21.893  0.00  0.00    +0.000 C 
ATOM     15  O   UNL     1      -3.554  13.472  22.540  0.00  0.00    +0.000 OA
ENDROOT
BRANCH   2  16
ATOM     16  C   UNL     1       1.355   8.867  19.486  0.00  0.00    +0.000 A 
ATOM     17  C   UNL     1       1.855   9.122  18.206  0.00  0.00    +0.000 A 
ATOM     18  C   UNL     1       2.680   8.185  17.605  0.00  0.00    +0.000 A 
ATOM     19  N   UNL     1       3.070   7.045  18.205  0.00  0.00    +0.000 NA
ATOM     20  C   UNL     1       2.625   6.842  19.462  0.00  0.00    +0.000 A 
ATOM     21  C   UNL     1       1.781   7.709  20.137  0.00  0.00    +0.000 A 
ENDBRANCH   2  16
BRANCH   1  22
ATOM     22  C   UNL     1      -1.027  10.730  18.140  0.00  0.00    +0.000 C 
BRANCH  22  23
ATOM     23  C   UNL     1      -2.254   9.957  17.659  0.00  0.00    +0.000 C 
BRANCH  23  24
ATOM     24  C   UNL     1      -2.308   9.719  16.151  0.00  0.00    +0.000 C 
BRANCH  24  26
ATOM     25  C   UNL     1      -4.345  11.267  16.477  0.00  0.00    +0.000 C 
ATOM     26  C   UNL     1      -3.409  10.565  15.533  0.00  0.00    +0.000 C 
ATOM     27  O   UNL     1      -3.502  10.722  14.316  0.00  0.00    +0.000 OA
ENDBRANCH  24  26
ENDBRANCH  23  24
ENDBRANCH  22  23
ENDBRANCH   1  22
TORSDOF 5
ENDMDL
