MODEL 1
REMARK VINA RESULT:      -7.3      0.000      0.000
REMARK  Name = 
REMARK  9 active torsions:
REMARK  status: ('A' for Active; 'I' for Inactive)
REMARK    1  A    between atoms: C_1  and  C_2
REMARK    2  A    between atoms: C_2  and  O_3
REMARK    3  A    between atoms: O_3  and  C_4
REMARK    4  A    between atoms: C_4  and  C_6
REMARK    5  A    between atoms: C_8  and  C_9
REMARK    6  A    between atoms: N_18  and  C_19
REMARK    7  A    between atoms: C_23  and  O_24
REMARK    8  A    between atoms: O_24  and  C_25
REMARK    9  A    between atoms: C_30  and  C_31
REMARK                            x       y       z     vdW  Elec       q    Type
REMARK                         _______ _______ _______ _____ _____    ______ ____
ROOT
ATOM      1  C   UNL     1      -2.756  12.481  20.485  0.00  0.00    +0.000 A 
ATOM      2  C   UNL     1      -2.649  11.900  19.220  0.00  0.00    +0.000 A 
ATOM      3  C   UNL     1      -1.617  11.003  18.944  0.00  0.00    +0.000 A 
ATOM      4  C   UNL     1      -0.660  10.733  19.924  0.00  0.00    +0.000 A 
ATOM      5  N   UNL     1       0.437   9.941  19.676  0.00  0.00    +0.000 N 
ATOM      6  C   UNL     1       1.087   9.172  20.744  0.00  0.00    +0.000 C 
ATOM      7  C   UNL     1       1.439   7.778  20.173  0.00  0.00    +0.000 C 
ATOM      8  N   UNL     1       2.205   7.865  18.910  0.00  0.00    +0.000 N 
ATOM      9  C   UNL     1       3.240   6.961  18.723  0.00  0.00    +0.000 C 
ATOM     10  O   UNL     1       3.496   6.130  19.589  0.00  0.00    +0.000 OA
ATOM     11  N   UNL     1       3.958   7.105  17.555  0.00  0.00    +0.000 N 
ATOM     12  C   UNL     1       1.590   8.735  17.891  0.00  0.00    +0.000 C 
ATOM     13  C   UNL     1       1.291  10.124  18.490  0.00  0.00    +0.000 C 
ATOM     14  N   UNL     1      -0.823  11.224  21.178  0.00  0.00    +0.000 NA
ATOM     15  C   UNL     1      -1.868  12.080  21.475  0.00  0.00    +0.000 A 
ATOM     16  H   UNL     1       3.891   7.995  17.091  0.00  0.00    +0.000 HD
ENDROOT
BRANCH  11  17
ATOM     17  C   UNL     1       5.047   6.293  17.149  0.00  0.00    +0.000 A 
ATOM     18  C   UNL     1       6.326   6.409  17.703  0.00  0.00    +0.000 A 
ATOM     19  C   UNL     1       7.380   5.631  17.227  0.00  0.00    +0.000 A 
ATOM     20  C   UNL     1       7.160   4.721  16.199  0.00  0.00    +0.000 A 
ATOM     21  C   UNL     1       5.885   4.563  15.654  0.00  0.00    +0.000 A 
ATOM     22  C   UNL     1       4.826   5.340  16.141  0.00  0.00    +0.000 A 
BRANCH  21  23
ATOM     23  O   UNL     1       5.818   3.634  14.652  0.00  0.00    +0.000 OA
ATOM     24  C   UNL     1       6.513   3.922  13.448  0.00  0.00    +0.000 C 
ENDBRANCH  21  23
ENDBRANCH  11  17
BRANCH  15  25
ATOM     25  C   UNL     1      -2.013  12.500  22.936  0.00  0.00    +0.000 C 
ATOM     26  F   UNL     1      -1.903  13.833  23.186  0.00  0.00    +0.000 F 
ATOM     27  F   UNL     1      -3.250  12.180  23.430  0.00  0.00    +0.000 F 
ATOM     28  F   UNL     1      -1.121  11.878  23.758  0.00  0.00    +0.000 F 
ENDBRANCH  15  25
BRANCH   1  29
ATOM     29  C   UNL     1      -3.797  13.504  20.682  0.00  0.00    +0.000 C 
ATOM     30  O   UNL     1      -3.584  14.707  20.638  0.00  0.00    +0.000 OA
BRANCH  29  31
ATOM     31  O   UNL     1      -4.971  12.879  20.906  0.00  0.00    +0.000 OA
BRANCH  31  33
ATOM     32  C   UNL     1      -6.415  11.849  19.348  0.00  0.00    +0.000 C 
ATOM     33  C   UNL     1      -6.038  13.168  19.993  0.00  0.00    +0.000 C 
ENDBRANCH  31  33
ENDBRANCH  29  31
ENDBRANCH   1  29
BRANCH   3  34
ATOM     34  C   UNL     1      -1.628  10.360  17.670  0.00  0.00    +0.000 C 
ATOM     35  N   UNL     1      -1.670   9.856  16.626  0.00  0.00    +0.000 NA
ENDBRANCH   3  34
TORSDOF 7
ENDMDL
MODEL 2
REMARK VINA RESULT:      -7.2      1.073      1.727
REMARK  Name = 
REMARK  9 active torsions:
REMARK  status: ('A' for Active; 'I' for Inactive)
REMARK    1  A    between atoms: C_1  and  C_2
REMARK    2  A    between atoms: C_2  and  O_3
REMARK    3  A    between atoms: O_3  and  C_4
REMARK    4  A    between atoms: C_4  and  C_6
REMARK    5  A    between atoms: C_8  and  C_9
REMARK    6  A    between atoms: N_18  and  C_19
REMARK    7  A    between atoms: C_23  and  O_24
REMARK    8  A    between atoms: O_24  and  C_25
REMARK    9  A    between atoms: C_30  and  C_31
REMARK                            x       y       z     vdW  Elec       q    Type
REMARK                         _______ _______ _______ _____ _____    ______ ____
ROOT
ATOM      1  C   UNL     1      -2.784  12.483  20.487  0.00  0.00    +0.000 A 
ATOM      2  C   UNL     1      -2.695  11.906  19.218  0.00  0.00    +0.000 A 
ATOM      3  C   UNL     1      -1.666  11.013  18.923  0.00  0.00    +0.000 A 
ATOM      4  C   UNL     1      -0.692  10.742  19.886  0.00  0.00    +0.000 A 
ATOM      5  N   UNL     1       0.403   9.955  19.618  0.00  0.00    +0.000 N 
ATOM      6  C   UNL     1       1.071   9.183  20.674  0.00  0.00    +0.000 C 
ATOM      7  C   UNL     1       1.418   7.792  20.092  0.00  0.00    +0.000 C 
ATOM      8  N   UNL     1       2.163   7.885  18.817  0.00  0.00    +0.000 N 
ATOM      9  C   UNL     1       3.198   6.984  18.610  0.00  0.00    +0.000 C 
ATOM     10  O   UNL     1       3.470   6.151  19.470  0.00  0.00    +0.000 OA
ATOM     11  N   UNL     1       3.897   7.135  17.432  0.00  0.00    +0.000 N 
ATOM     12  C   UNL     1       1.530   8.757  17.811  0.00  0.00    +0.000 C 
ATOM     13  C   UNL     1       1.237  10.143  18.419  0.00  0.00    +0.000 C 
ATOM     14  N   UNL     1      -0.837  11.229  21.145  0.00  0.00    +0.000 NA
ATOM     15  C   UNL     1      -1.878  12.082  21.461  0.00  0.00    +0.000 A 
ATOM     16  H   UNL     1       3.820   8.025  16.972  0.00  0.00    +0.000 HD
ENDROOT
BRANCH  11  17
ATOM     17  C   UNL     1       4.981   6.326  17.006  0.00  0.00    +0.000 A 
ATOM     18  C   UNL     1       5.102   5.850  15.697  0.00  0.00    +0.000 A 
ATOM     19  C   UNL     1       6.152   5.005  15.342  0.00  0.00    +0.000 A 
ATOM     20  C   UNL     1       7.098   4.639  16.293  0.00  0.00    +0.000 A 
ATOM     21  C   UNL     1       7.017   5.129  17.597  0.00  0.00    +0.000 A 
ATOM     22  C   UNL     1       5.965   5.984  17.948  0.00  0.00    +0.000 A 
BRANCH  21  23
ATOM     23  O   UNL     1       8.014   4.685  18.423  0.00  0.00    +0.000 OA
ATOM     24  C   UNL     1       8.205   5.379  19.646  0.00  0.00    +0.000 C 
ENDBRANCH  21  23
ENDBRANCH  11  17
BRANCH  15  25
ATOM     25  C   UNL     1      -2.001  12.496  22.926  0.00  0.00    +0.000 C 
ATOM     26  F   UNL     1      -1.905  13.830  23.176  0.00  0.00    +0.000 F 
ATOM     27  F   UNL     1      -3.224  12.158  23.443  0.00  0.00    +0.000 F 
ATOM     28  F   UNL     1      -1.085  11.885  23.729  0.00  0.00    +0.000 F 
ENDBRANCH  15  25
BRANCH   1  29
ATOM     29  C   UNL     1      -3.824  13.503  20.704  0.00  0.00    +0.000 C 
ATOM     30  O   UNL     1      -3.607  14.706  20.702  0.00  0.00    +0.000 OA
BRANCH  29  31
ATOM     31  O   UNL     1      -5.003  12.875  20.893  0.00  0.00    +0.000 OA
BRANCH  31  33
ATOM     32  C   UNL     1      -6.338  13.117  22.824  0.00  0.00    +0.000 C 
ATOM     33  C   UNL     1      -6.071  13.662  21.436  0.00  0.00    +0.000 C 
ENDBRANCH  31  33
ENDBRANCH  29  31
ENDBRANCH   1  29
BRANCH   3  34
ATOM     34  C   UNL     1      -1.695  10.374  17.647  0.00  0.00    +0.000 C 
ATOM     35  N   UNL     1      -1.706   9.821  16.628  0.00  0.00    +0.000 NA
ENDBRANCH   3  34
TORSDOF 7
ENDMDL
MODEL 3
REMARK VINA RESULT:      -7.2      0.786      1.492
REMARK  Name = 
REMARK  9 active torsions:
REMARK  status: ('A' for Active; 'I' for Inactive)
REMARK    1  A    between atoms: C_1  and  C_2
REMARK    2  A    between atoms: C_2  and  O_3
REMARK    3  A    between atoms: O_3  and  C_4
REMARK    4  A    between atoms: C_4  and  C_6
REMARK    5  A    between atoms: C_8  and  C_9
REMARK    6  A    between atoms: N_18  and  C_19
REMARK    7  A    between atoms: C_23  and  O_24
REMARK    8  A    between atoms: O_24  and  C_25
REMARK    9  A    between atoms: C_30  and  C_31
REMARK                            x       y       z     vdW  Elec       q    Type
REMARK                         _______ _______ _______ _____ _____    ______ ____
ROOT
ATOM      1  C   UNL     1      -2.667  12.381  20.482  0.00  0.00    +0.000 A 
ATOM      2  C   UNL     1      -2.557  11.787  19.223  0.00  0.00    +0.000 A 
ATOM      3  C   UNL     1      -1.536  10.874  18.964  0.00  0.00    +0.000 A 
ATOM      4  C   UNL     1      -0.590  10.599  19.954  0.00  0.00    +0.000 A 
ATOM      5  N   UNL     1       0.498   9.791  19.722  0.00  0.00    +0.000 N 
ATOM      6  C   UNL     1       1.128   9.022  20.802  0.00  0.00    +0.000 C 
ATOM      7  C   UNL     1       1.465   7.618  20.246  0.00  0.00    +0.000 C 
ATOM      8  N   UNL     1       2.243   7.684  18.989  0.00  0.00    +0.000 N 
ATOM      9  C   UNL     1       3.268   6.765  18.818  0.00  0.00    +0.000 C 
ATOM     10  O   UNL     1       3.505   5.938  19.694  0.00  0.00    +0.000 OA
ATOM     11  N   UNL     1       3.998   6.889  17.655  0.00  0.00    +0.000 N 
ATOM     12  C   UNL     1       1.649   8.554  17.958  0.00  0.00    +0.000 C 
ATOM     13  C   UNL     1       1.364   9.952  18.542  0.00  0.00    +0.000 C 
ATOM     14  N   UNL     1      -0.757  11.104  21.203  0.00  0.00    +0.000 NA
ATOM     15  C   UNL     1      -1.792  11.977  21.483  0.00  0.00    +0.000 A 
ATOM     16  H   UNL     1       3.947   7.776  17.184  0.00  0.00    +0.000 HD
ENDROOT
BRANCH  11  17
ATOM     17  C   UNL     1       5.078   6.059  17.266  0.00  0.00    +0.000 A 
ATOM     18  C   UNL     1       6.315   6.070  17.919  0.00  0.00    +0.000 A 
ATOM     19  C   UNL     1       7.369   5.281  17.460  0.00  0.00    +0.000 A 
ATOM     20  C   UNL     1       7.189   4.464  16.349  0.00  0.00    +0.000 A 
ATOM     21  C   UNL     1       5.954   4.411  15.701  0.00  0.00    +0.000 A 
ATOM     22  C   UNL     1       4.895   5.198  16.171  0.00  0.00    +0.000 A 
BRANCH  21  23
ATOM     23  O   UNL     1       5.924   3.566  14.625  0.00  0.00    +0.000 OA
ATOM     24  C   UNL     1       6.566   4.001  13.437  0.00  0.00    +0.000 C 
ENDBRANCH  21  23
ENDBRANCH  11  17
BRANCH  15  25
ATOM     25  C   UNL     1      -1.944  12.411  22.939  0.00  0.00    +0.000 C 
ATOM     26  F   UNL     1      -3.182  12.841  23.306  0.00  0.00    +0.000 F 
ATOM     27  F   UNL     1      -1.694  11.376  23.801  0.00  0.00    +0.000 F 
ATOM     28  F   UNL     1      -1.073  13.397  23.293  0.00  0.00    +0.000 F 
ENDBRANCH  15  25
BRANCH   1  29
ATOM     29  C   UNL     1      -3.696  13.420  20.662  0.00  0.00    +0.000 C 
ATOM     30  O   UNL     1      -4.888  13.180  20.788  0.00  0.00    +0.000 OA
BRANCH  29  31
ATOM     31  O   UNL     1      -3.089  14.624  20.660  0.00  0.00    +0.000 OA
BRANCH  31  33
ATOM     32  C   UNL     1      -2.687  16.165  22.403  0.00  0.00    +0.000 C 
ATOM     33  C   UNL     1      -3.723  15.665  21.417  0.00  0.00    +0.000 C 
ENDBRANCH  31  33
ENDBRANCH  29  31
ENDBRANCH   1  29
BRANCH   3  34
ATOM     34  C   UNL     1      -1.544  10.220  17.695  0.00  0.00    +0.000 C 
ATOM     35  N   UNL     1      -1.564   9.723  16.648  0.00  0.00    +0.000 NA
ENDBRANCH   3  34
TORSDOF 7
ENDMDL
MODEL 4
REMARK VINA RESULT:      -7.1      3.591     10.915
REMARK  Name = 
REMARK  9 active torsions:
REMARK  status: ('A' for Active; 'I' for Inactive)
REMARK    1  A    between atoms: C_1  and  C_2
REMARK    2  A    between atoms: C_2  and  O_3
REMARK    3  A    between atoms: O_3  and  C_4
REMARK    4  A    between atoms: C_4  and  C_6
REMARK    5  A    between atoms: C_8  and  C_9
REMARK    6  A    between atoms: N_18  and  C_19
REMARK    7  A    between atoms: C_23  and  O_24
REMARK    8  A    between atoms: O_24  and  C_25
REMARK    9  A    between atoms: C_30  and  C_31
REMARK                            x       y       z     vdW  Elec       q    Type
REMARK                         _______ _______ _______ _____ _____    ______ ____
ROOT
ATOM      1  C   UNL     1       3.614   6.465  17.973  0.00  0.00    +0.000 A 
ATOM      2  C   UNL     1       3.394   7.781  17.563  0.00  0.00    +0.000 A 
ATOM      3  C   UNL     1       2.537   8.609  18.287  0.00  0.00    +0.000 A 
ATOM      4  C   UNL     1       1.856   8.096  19.393  0.00  0.00    +0.000 A 
ATOM      5  N   UNL     1       0.919   8.832  20.081  0.00  0.00    +0.000 N 
ATOM      6  C   UNL     1       0.655   8.598  21.506  0.00  0.00    +0.000 C 
ATOM      7  C   UNL     1       0.498   9.978  22.188  0.00  0.00    +0.000 C 
ATOM      8  N   UNL     1      -0.493  10.835  21.500  0.00  0.00    +0.000 N 
ATOM      9  C   UNL     1      -1.336  11.604  22.288  0.00  0.00    +0.000 C 
ATOM     10  O   UNL     1      -1.248  11.556  23.512  0.00  0.00    +0.000 OA
ATOM     11  N   UNL     1      -2.274  12.353  21.610  0.00  0.00    +0.000 N 
ATOM     12  C   UNL     1      -0.273  10.964  20.047  0.00  0.00    +0.000 C 
ATOM     13  C   UNL     1      -0.160   9.569  19.402  0.00  0.00    +0.000 C 
ATOM     14  N   UNL     1       2.147   6.850  19.843  0.00  0.00    +0.000 NA
ATOM     15  C   UNL     1       3.029   6.034  19.157  0.00  0.00    +0.000 A 
ATOM     16  H   UNL     1      -2.480  12.072  20.668  0.00  0.00    +0.000 HD
ENDROOT
BRANCH  11  17
ATOM     17  C   UNL     1      -3.227  13.217  22.206  0.00  0.00    +0.000 A 
ATOM     18  C   UNL     1      -2.901  14.489  22.686  0.00  0.00    +0.000 A 
ATOM     19  C   UNL     1      -3.859  15.277  23.322  0.00  0.00    +0.000 A 
ATOM     20  C   UNL     1      -5.157  14.802  23.472  0.00  0.00    +0.000 A 
ATOM     21  C   UNL     1      -5.515  13.549  22.970  0.00  0.00    +0.000 A 
ATOM     22  C   UNL     1      -4.552  12.765  22.324  0.00  0.00    +0.000 A 
BRANCH  21  23
ATOM     23  O   UNL     1      -6.824  13.213  23.190  0.00  0.00    +0.000 OA
ATOM     24  C   UNL     1      -7.537  13.968  24.157  0.00  0.00    +0.000 C 
ENDBRANCH  21  23
ENDBRANCH  11  17
BRANCH  15  25
ATOM     25  C   UNL     1       3.355   4.688  19.800  0.00  0.00    +0.000 C 
ATOM     26  F   UNL     1       4.676   4.369  19.874  0.00  0.00    +0.000 F 
ATOM     27  F   UNL     1       2.938   4.640  21.104  0.00  0.00    +0.000 F 
ATOM     28  F   UNL     1       2.739   3.641  19.182  0.00  0.00    +0.000 F 
ENDBRANCH  15  25
BRANCH   1  29
ATOM     29  C   UNL     1       4.440   5.606  17.107  0.00  0.00    +0.000 C 
ATOM     30  O   UNL     1       4.032   4.583  16.578  0.00  0.00    +0.000 OA
BRANCH  29  31
ATOM     31  O   UNL     1       5.671   6.150  17.018  0.00  0.00    +0.000 OA
BRANCH  31  33
ATOM     32  C   UNL     1       7.443   4.701  17.594  0.00  0.00    +0.000 C 
ATOM     33  C   UNL     1       6.695   5.332  16.437  0.00  0.00    +0.000 C 
ENDBRANCH  31  33
ENDBRANCH  29  31
ENDBRANCH   1  29
BRANCH   3  34
ATOM     34  C   UNL     1       2.441   9.974  17.880  0.00  0.00    +0.000 C 
ATOM     35  N   UNL     1       2.343  11.090  17.583  0.00  0.00    +0.000 NA
ENDBRANCH   3  34
TORSDOF 7
ENDMDL
MODEL 5
REMARK VINA RESULT:      -6.7      4.085     11.044
REMARK  Name = 
REMARK  9 active torsions:
REMARK  status: ('A' for Active; 'I' for Inactive)
REMARK    1  A    between atoms: C_1  and  C_2
REMARK    2  A    between atoms: C_2  and  O_3
REMARK    3  A    between atoms: O_3  and  C_4
REMARK    4  A    between atoms: C_4  and  C_6
REMARK    5  A    between atoms: C_8  and  C_9
REMARK    6  A    between atoms: N_18  and  C_19
REMARK    7  A    between atoms: C_23  and  O_24
REMARK    8  A    between atoms: O_24  and  C_25
REMARK    9  A    between atoms: C_30  and  C_31
REMARK                            x       y       z     vdW  Elec       q    Type
REMARK                         _______ _______ _______ _____ _____    ______ ____
ROOT
ATOM      1  C   UNL     1       4.353   5.101  17.743  0.00  0.00    +0.000 A 
ATOM      2  C   UNL     1       3.427   4.863  18.761  0.00  0.00    +0.000 A 
ATOM      3  C   UNL     1       2.601   5.892  19.213  0.00  0.00    +0.000 A 
ATOM      4  C   UNL     1       2.745   7.175  18.681  0.00  0.00    +0.000 A 
ATOM      5  N   UNL     1       2.035   8.250  19.162  0.00  0.00    +0.000 N 
ATOM      6  C   UNL     1       1.702   9.395  18.306  0.00  0.00    +0.000 C 
ATOM      7  C   UNL     1       0.245   9.809  18.619  0.00  0.00    +0.000 C 
ATOM      8  N   UNL     1       0.021  10.023  20.066  0.00  0.00    +0.000 N 
ATOM      9  C   UNL     1      -0.784  11.089  20.441  0.00  0.00    +0.000 C 
ATOM     10  O   UNL     1      -1.278  11.818  19.586  0.00  0.00    +0.000 OA
ATOM     11  N   UNL     1      -0.930  11.282  21.798  0.00  0.00    +0.000 N 
ATOM     12  C   UNL     1       0.468   8.906  20.917  0.00  0.00    +0.000 C 
ATOM     13  C   UNL     1       1.934   8.551  20.600  0.00  0.00    +0.000 C 
ATOM     14  N   UNL     1       3.577   7.377  17.629  0.00  0.00    +0.000 NA
ATOM     15  C   UNL     1       4.370   6.353  17.143  0.00  0.00    +0.000 A 
ATOM     16  H   UNL     1      -0.238  10.859  22.391  0.00  0.00    +0.000 HD
ENDROOT
BRANCH  11  17
ATOM     17  C   UNL     1      -1.710  12.297  22.408  0.00  0.00    +0.000 A 
ATOM     18  C   UNL     1      -1.144  13.392  23.069  0.00  0.00    +0.000 A 
ATOM     19  C   UNL     1      -1.951  14.331  23.709  0.00  0.00    +0.000 A 
ATOM     20  C   UNL     1      -3.334  14.188  23.683  0.00  0.00    +0.000 A 
ATOM     21  C   UNL     1      -3.923  13.122  23.001  0.00  0.00    +0.000 A 
ATOM     22  C   UNL     1      -3.108  12.185  22.352  0.00  0.00    +0.000 A 
BRANCH  21  23
ATOM     23  O   UNL     1      -5.290  13.109  23.061  0.00  0.00    +0.000 OA
ATOM     24  C   UNL     1      -5.931  14.264  23.579  0.00  0.00    +0.000 C 
ENDBRANCH  21  23
ENDBRANCH  11  17
BRANCH  15  25
ATOM     25  C   UNL     1       5.199   6.663  15.898  0.00  0.00    +0.000 C 
ATOM     26  F   UNL     1       5.521   5.596  15.118  0.00  0.00    +0.000 F 
ATOM     27  F   UNL     1       4.530   7.499  15.044  0.00  0.00    +0.000 F 
ATOM     28  F   UNL     1       6.370   7.299  16.185  0.00  0.00    +0.000 F 
ENDBRANCH  15  25
BRANCH   1  29
ATOM     29  C   UNL     1       5.273   4.007  17.386  0.00  0.00    +0.000 C 
ATOM     30  O   UNL     1       5.085   3.238  16.454  0.00  0.00    +0.000 OA
BRANCH  29  31
ATOM     31  O   UNL     1       6.310   4.025  18.248  0.00  0.00    +0.000 OA
BRANCH  31  33
ATOM     32  C   UNL     1       7.832   5.749  18.779  0.00  0.00    +0.000 C 
ATOM     33  C   UNL     1       7.517   4.648  17.788  0.00  0.00    +0.000 C 
ENDBRANCH  31  33
ENDBRANCH  29  31
ENDBRANCH   1  29
BRANCH   3  34
ATOM     34  C   UNL     1       1.601   5.558  20.176  0.00  0.00    +0.000 C 
ATOM     35  N   UNL     1       0.776   5.259  20.933  0.00  0.00    +0.000 NA
ENDBRANCH   3  34
TORSDOF 7
ENDMDL
MODEL 6
REMARK VINA RESULT:      -6.7      1.198      2.153
REMARK  Name = 
REMARK  9 active torsions:
REMARK  status: ('A' for Active; 'I' for Inactive)
REMARK    1  A    between atoms: C_1  and  C_2
REMARK    2  A    between atoms: C_2  and  O_3
REMARK    3  A    between atoms: O_3  and  C_4
REMARK    4  A    between atoms: C_4  and  C_6
REMARK    5  A    between atoms: C_8  and  C_9
REMARK    6  A    between atoms: N_18  and  C_19
REMARK    7  A    between atoms: C_23  and  O_24
REMARK    8  A    between atoms: O_24  and  C_25
REMARK    9  A    between atoms: C_30  and  C_31
REMARK                            x       y       z     vdW  Elec       q    Type
REMARK                         _______ _______ _______ _____ _____    ______ ____
ROOT
ATOM      1  C   UNL     1      -2.864  12.693  20.430  0.00  0.00    +0.000 A 
ATOM      2  C   UNL     1      -2.762  12.116  19.163  0.00  0.00    +0.000 A 
ATOM      3  C   UNL     1      -1.740  11.209  18.885  0.00  0.00    +0.000 A 
ATOM      4  C   UNL     1      -0.787  10.924  19.864  0.00  0.00    +0.000 A 
ATOM      5  N   UNL     1       0.302  10.122  19.614  0.00  0.00    +0.000 N 
ATOM      6  C   UNL     1       0.941   9.340  20.680  0.00  0.00    +0.000 C 
ATOM      7  C   UNL     1       1.278   7.945  20.103  0.00  0.00    +0.000 C 
ATOM      8  N   UNL     1       2.047   8.029  18.841  0.00  0.00    +0.000 N 
ATOM      9  C   UNL     1       3.073   7.114  18.651  0.00  0.00    +0.000 C 
ATOM     10  O   UNL     1       3.319   6.277  19.514  0.00  0.00    +0.000 OA
ATOM     11  N   UNL     1       3.794   7.256  17.485  0.00  0.00    +0.000 N 
ATOM     12  C   UNL     1       1.443   8.911  17.826  0.00  0.00    +0.000 C 
ATOM     13  C   UNL     1       1.159  10.300  18.430  0.00  0.00    +0.000 C 
ATOM     14  N   UNL     1      -0.946  11.412  21.120  0.00  0.00    +0.000 NA
ATOM     15  C   UNL     1      -1.982  12.278  21.420  0.00  0.00    +0.000 A 
ATOM     16  H   UNL     1       3.737   8.148  17.025  0.00  0.00    +0.000 HD
ENDROOT
BRANCH  11  17
ATOM     17  C   UNL     1       4.874   6.433  17.077  0.00  0.00    +0.000 A 
ATOM     18  C   UNL     1       5.067   6.041  15.749  0.00  0.00    +0.000 A 
ATOM     19  C   UNL     1       6.107   5.179  15.406  0.00  0.00    +0.000 A 
ATOM     20  C   UNL     1       6.971   4.710  16.390  0.00  0.00    +0.000 A 
ATOM     21  C   UNL     1       6.818   5.114  17.718  0.00  0.00    +0.000 A 
ATOM     22  C   UNL     1       5.777   5.988  18.056  0.00  0.00    +0.000 A 
BRANCH  21  23
ATOM     23  O   UNL     1       7.738   4.575  18.575  0.00  0.00    +0.000 OA
ATOM     24  C   UNL     1       8.348   5.449  19.511  0.00  0.00    +0.000 C 
ENDBRANCH  21  23
ENDBRANCH  11  17
BRANCH  15  25
ATOM     25  C   UNL     1      -2.124  12.693  22.882  0.00  0.00    +0.000 C 
ATOM     26  F   UNL     1      -3.376  12.605  23.406  0.00  0.00    +0.000 F 
ATOM     27  F   UNL     1      -1.372  11.897  23.706  0.00  0.00    +0.000 F 
ATOM     28  F   UNL     1      -1.696  13.966  23.118  0.00  0.00    +0.000 F 
ENDBRANCH  15  25
BRANCH   1  29
ATOM     29  C   UNL     1      -3.894  13.727  20.630  0.00  0.00    +0.000 C 
ATOM     30  O   UNL     1      -5.074  13.479  20.834  0.00  0.00    +0.000 OA
BRANCH  29  31
ATOM     31  O   UNL     1      -3.304  14.937  20.550  0.00  0.00    +0.000 OA
BRANCH  31  33
ATOM     32  C   UNL     1      -3.809  16.434  22.304  0.00  0.00    +0.000 C 
ATOM     33  C   UNL     1      -4.121  16.073  20.866  0.00  0.00    +0.000 C 
ENDBRANCH  31  33
ENDBRANCH  29  31
ENDBRANCH   1  29
BRANCH   3  34
ATOM     34  C   UNL     1      -1.756  10.571  17.607  0.00  0.00    +0.000 C 
ATOM     35  N   UNL     1      -1.789  10.023  16.587  0.00  0.00    +0.000 NA
ENDBRANCH   3  34
TORSDOF 7
ENDMDL
MODEL 7
REMARK VINA RESULT:      -6.7      3.762     10.750
REMARK  Name = 
REMARK  9 active torsions:
REMARK  status: ('A' for Active; 'I' for Inactive)
REMARK    1  A    between atoms: C_1  and  C_2
REMARK    2  A    between atoms: C_2  and  O_3
REMARK    3  A    between atoms: O_3  and  C_4
REMARK    4  A    between atoms: C_4  and  C_6
REMARK    5  A    between atoms: C_8  and  C_9
REMARK    6  A    between atoms: N_18  and  C_19
REMARK    7  A    between atoms: C_23  and  O_24
REMARK    8  A    between atoms: O_24  and  C_25
REMARK    9  A    between atoms: C_30  and  C_31
REMARK                            x       y       z     vdW  Elec       q    Type
REMARK                         _______ _______ _______ _____ _____    ______ ____
ROOT
ATOM      1  C   UNL     1       3.053   6.347  18.515  0.00  0.00    +0.000 A 
ATOM      2  C   UNL     1       2.900   7.645  18.023  0.00  0.00    +0.000 A 
ATOM      3  C   UNL     1       2.086   8.559  18.692  0.00  0.00    +0.000 A 
ATOM      4  C   UNL     1       1.381   8.152  19.826  0.00  0.00    +0.000 A 
ATOM      5  N   UNL     1       0.483   8.975  20.463  0.00  0.00    +0.000 N 
ATOM      6  C   UNL     1       0.207   8.844  21.900  0.00  0.00    +0.000 C 
ATOM      7  C   UNL     1       0.120  10.270  22.494  0.00  0.00    +0.000 C 
ATOM      8  N   UNL     1      -0.825  11.132  21.751  0.00  0.00    +0.000 N 
ATOM      9  C   UNL     1      -1.628  11.990  22.488  0.00  0.00    +0.000 C 
ATOM     10  O   UNL     1      -1.542  12.014  23.713  0.00  0.00    +0.000 OA
ATOM     11  N   UNL     1      -2.527  12.742  21.762  0.00  0.00    +0.000 N 
ATOM     12  C   UNL     1      -0.600  11.158  20.294  0.00  0.00    +0.000 C 
ATOM     13  C   UNL     1      -0.558   9.722  19.738  0.00  0.00    +0.000 C 
ATOM     14  N   UNL     1       1.608   6.922  20.353  0.00  0.00    +0.000 NA
ATOM     15  C   UNL     1       2.447   6.022  19.722  0.00  0.00    +0.000 A 
ATOM     16  H   UNL     1      -2.747  12.413  20.838  0.00  0.00    +0.000 HD
ENDROOT
BRANCH  11  17
ATOM     17  C   UNL     1      -3.435  13.688  22.300  0.00  0.00    +0.000 A 
ATOM     18  C   UNL     1      -3.154  15.057  22.364  0.00  0.00    +0.000 A 
ATOM     19  C   UNL     1      -4.052  15.941  22.960  0.00  0.00    +0.000 A 
ATOM     20  C   UNL     1      -5.246  15.463  23.488  0.00  0.00    +0.000 A 
ATOM     21  C   UNL     1      -5.564  14.106  23.406  0.00  0.00    +0.000 A 
ATOM     22  C   UNL     1      -4.663  13.223  22.798  0.00  0.00    +0.000 A 
BRANCH  21  23
ATOM     23  O   UNL     1      -6.769  13.781  23.966  0.00  0.00    +0.000 OA
ATOM     24  C   UNL     1      -7.508  12.731  23.361  0.00  0.00    +0.000 C 
ENDBRANCH  21  23
ENDBRANCH  11  17
BRANCH  15  25
ATOM     25  C   UNL     1       2.705   4.704  20.448  0.00  0.00    +0.000 C 
ATOM     26  F   UNL     1       2.583   4.738  21.803  0.00  0.00    +0.000 F 
ATOM     27  F   UNL     1       1.811   3.738  20.068  0.00  0.00    +0.000 F 
ATOM     28  F   UNL     1       3.937   4.184  20.184  0.00  0.00    +0.000 F 
ENDBRANCH  15  25
BRANCH   1  29
ATOM     29  C   UNL     1       3.834   5.396  17.706  0.00  0.00    +0.000 C 
ATOM     30  O   UNL     1       5.032   5.508  17.495  0.00  0.00    +0.000 OA
BRANCH  29  31
ATOM     31  O   UNL     1       3.003   4.427  17.269  0.00  0.00    +0.000 OA
BRANCH  31  33
ATOM     32  C   UNL     1       2.583   2.134  17.641  0.00  0.00    +0.000 C 
ATOM     33  C   UNL     1       3.578   3.127  17.075  0.00  0.00    +0.000 C 
ENDBRANCH  31  33
ENDBRANCH  29  31
ENDBRANCH   1  29
BRANCH   3  34
ATOM     34  C   UNL     1       2.060   9.899  18.200  0.00  0.00    +0.000 C 
ATOM     35  N   UNL     1       2.044  11.001  17.839  0.00  0.00    +0.000 NA
ENDBRANCH   3  34
TORSDOF 7
ENDMDL
MODEL 8
REMARK VINA RESULT:      -6.7      3.737     10.794
REMARK  Name = 
REMARK  9 active torsions:
REMARK  status: ('A' for Active; 'I' for Inactive)
REMARK    1  A    between atoms: C_1  and  C_2
REMARK    2  A    between atoms: C_2  and  O_3
REMARK    3  A    between atoms: O_3  and  C_4
REMARK    4  A    between atoms: C_4  and  C_6
REMARK    5  A    between atoms: C_8  and  C_9
REMARK    6  A    between atoms: N_18  and  C_19
REMARK    7  A    between atoms: C_23  and  O_24
REMARK    8  A    between atoms: O_24  and  C_25
REMARK    9  A    between atoms: C_30  and  C_31
REMARK                            x       y       z     vdW  Elec       q    Type
REMARK                         _______ _______ _______ _____ _____    ______ ____
ROOT
ATOM      1  C   UNL     1       3.585   6.214  17.976  0.00  0.00    +0.000 A 
ATOM      2  C   UNL     1       3.404   7.533  17.554  0.00  0.00    +0.000 A 
ATOM      3  C   UNL     1       2.582   8.395  18.280  0.00  0.00    +0.000 A 
ATOM      4  C   UNL     1       1.897   7.916  19.398  0.00  0.00    +0.000 A 
ATOM      5  N   UNL     1       0.993   8.689  20.088  0.00  0.00    +0.000 N 
ATOM      6  C   UNL     1       0.737   8.477  21.519  0.00  0.00    +0.000 C 
ATOM      7  C   UNL     1       0.632   9.868  22.188  0.00  0.00    +0.000 C 
ATOM      8  N   UNL     1      -0.337  10.751  21.502  0.00  0.00    +0.000 N 
ATOM      9  C   UNL     1      -1.146  11.555  22.292  0.00  0.00    +0.000 C 
ATOM     10  O   UNL     1      -1.046  11.515  23.515  0.00  0.00    +0.000 OA
ATOM     11  N   UNL     1      -2.067  12.327  21.617  0.00  0.00    +0.000 N 
ATOM     12  C   UNL     1      -0.130  10.858  20.046  0.00  0.00    +0.000 C 
ATOM     13  C   UNL     1      -0.070   9.454  19.414  0.00  0.00    +0.000 C 
ATOM     14  N   UNL     1       2.152   6.665  19.858  0.00  0.00    +0.000 NA
ATOM     15  C   UNL     1       2.999   5.815  19.171  0.00  0.00    +0.000 A 
ATOM     16  H   UNL     1      -2.292  12.044  20.679  0.00  0.00    +0.000 HD
ENDROOT
BRANCH  11  17
ATOM     17  C   UNL     1      -2.985  13.227  22.214  0.00  0.00    +0.000 A 
ATOM     18  C   UNL     1      -4.237  12.826  22.690  0.00  0.00    +0.000 A 
ATOM     19  C   UNL     1      -5.132  13.759  23.211  0.00  0.00    +0.000 A 
ATOM     20  C   UNL     1      -4.776  15.102  23.271  0.00  0.00    +0.000 A 
ATOM     21  C   UNL     1      -3.518  15.521  22.832  0.00  0.00    +0.000 A 
ATOM     22  C   UNL     1      -2.619  14.579  22.318  0.00  0.00    +0.000 A 
BRANCH  21  23
ATOM     23  O   UNL     1      -3.307  16.868  22.951  0.00  0.00    +0.000 OA
ATOM     24  C   UNL     1      -2.471  17.484  21.983  0.00  0.00    +0.000 C 
ENDBRANCH  21  23
ENDBRANCH  11  17
BRANCH  15  25
ATOM     25  C   UNL     1       3.289   4.465  19.824  0.00  0.00    +0.000 C 
ATOM     26  F   UNL     1       4.600   4.106  19.890  0.00  0.00    +0.000 F 
ATOM     27  F   UNL     1       2.881   4.442  21.131  0.00  0.00    +0.000 F 
ATOM     28  F   UNL     1       2.636   3.432  19.220  0.00  0.00    +0.000 F 
ENDBRANCH  15  25
BRANCH   1  29
ATOM     29  C   UNL     1       4.373   5.321  17.109  0.00  0.00    +0.000 C 
ATOM     30  O   UNL     1       3.949   4.269  16.654  0.00  0.00    +0.000 OA
BRANCH  29  31
ATOM     31  O   UNL     1       5.591   5.870  16.928  0.00  0.00    +0.000 OA
BRANCH  31  33
ATOM     32  C   UNL     1       7.333   6.260  18.473  0.00  0.00    +0.000 C 
ATOM     33  C   UNL     1       6.693   5.220  17.576  0.00  0.00    +0.000 C 
ENDBRANCH  31  33
ENDBRANCH  29  31
ENDBRANCH   1  29
BRANCH   3  34
ATOM     34  C   UNL     1       2.526   9.759  17.860  0.00  0.00    +0.000 C 
ATOM     35  N   UNL     1       2.484  10.877  17.557  0.00  0.00    +0.000 NA
ENDBRANCH   3  34
TORSDOF 7
ENDMDL
MODEL 9
REMARK VINA RESULT:      -6.7      3.697     10.755
REMARK  Name = 
REMARK  9 active torsions:
REMARK  status: ('A' for Active; 'I' for Inactive)
REMARK    1  A    between atoms: C_1  and  C_2
REMARK    2  A    between atoms: C_2  and  O_3
REMARK    3  A    between atoms: O_3  and  C_4
REMARK    4  A    between atoms: C_4  and  C_6
REMARK    5  A    between atoms: C_8  and  C_9
REMARK    6  A    between atoms: N_18  and  C_19
REMARK    7  A    between atoms: C_23  and  O_24
REMARK    8  A    between atoms: O_24  and  C_25
REMARK    9  A    between atoms: C_30  and  C_31
REMARK                            x       y       z     vdW  Elec       q    Type
REMARK                         _______ _______ _______ _____ _____    ______ ____
ROOT
ATOM      1  C   UNL     1       3.251   5.376  18.329  0.00  0.00    +0.000 A 
ATOM      2  C   UNL     1       3.197   6.662  17.789  0.00  0.00    +0.000 A 
ATOM      3  C   UNL     1       2.489   7.670  18.443  0.00  0.00    +0.000 A 
ATOM      4  C   UNL     1       1.788   7.371  19.613  0.00  0.00    +0.000 A 
ATOM      5  N   UNL     1       0.988   8.296  20.242  0.00  0.00    +0.000 N 
ATOM      6  C   UNL     1       0.749   8.245  21.690  0.00  0.00    +0.000 C 
ATOM      7  C   UNL     1       0.808   9.695  22.228  0.00  0.00    +0.000 C 
ATOM      8  N   UNL     1      -0.082  10.609  21.478  0.00  0.00    +0.000 N 
ATOM      9  C   UNL     1      -0.781  11.563  22.202  0.00  0.00    +0.000 C 
ATOM     10  O   UNL     1      -0.653  11.626  23.421  0.00  0.00    +0.000 OA
ATOM     11  N   UNL     1      -1.634  12.364  21.472  0.00  0.00    +0.000 N 
ATOM     12  C   UNL     1       0.097  10.559  20.015  0.00  0.00    +0.000 C 
ATOM     13  C   UNL     1      -0.007   9.104  19.517  0.00  0.00    +0.000 C 
ATOM     14  N   UNL     1       1.924   6.148  20.184  0.00  0.00    +0.000 NA
ATOM     15  C   UNL     1       2.659   5.153  19.566  0.00  0.00    +0.000 A 
ATOM     16  H   UNL     1      -1.913  12.021  20.570  0.00  0.00    +0.000 HD
ENDROOT
BRANCH  11  17
ATOM     17  C   UNL     1      -2.437  13.407  21.997  0.00  0.00    +0.000 A 
ATOM     18  C   UNL     1      -1.903  14.614  22.461  0.00  0.00    +0.000 A 
ATOM     19  C   UNL     1      -2.727  15.585  23.027  0.00  0.00    +0.000 A 
ATOM     20  C   UNL     1      -4.096  15.361  23.124  0.00  0.00    +0.000 A 
ATOM     21  C   UNL     1      -4.656  14.179  22.637  0.00  0.00    +0.000 A 
ATOM     22  C   UNL     1      -3.826  13.210  22.061  0.00  0.00    +0.000 A 
BRANCH  21  23
ATOM     23  O   UNL     1      -6.012  14.097  22.800  0.00  0.00    +0.000 OA
ATOM     24  C   UNL     1      -6.493  13.333  23.895  0.00  0.00    +0.000 C 
ENDBRANCH  21  23
ENDBRANCH  11  17
BRANCH  15  25
ATOM     25  C   UNL     1       2.823   3.846  20.339  0.00  0.00    +0.000 C 
ATOM     26  F   UNL     1       4.086   3.340  20.390  0.00  0.00    +0.000 F 
ATOM     27  F   UNL     1       2.481   3.994  21.657  0.00  0.00    +0.000 F 
ATOM     28  F   UNL     1       2.027   2.846  19.866  0.00  0.00    +0.000 F 
ENDBRANCH  15  25
BRANCH   1  29
ATOM     29  C   UNL     1       3.918   4.328  17.538  0.00  0.00    +0.000 C 
ATOM     30  O   UNL     1       3.326   3.404  16.999  0.00  0.00    +0.000 OA
BRANCH  29  31
ATOM     31  O   UNL     1       5.242   4.582  17.526  0.00  0.00    +0.000 OA
BRANCH  31  33
ATOM     32  C   UNL     1       5.714   5.372  15.352  0.00  0.00    +0.000 C 
ATOM     33  C   UNL     1       5.953   4.238  16.329  0.00  0.00    +0.000 C 
ENDBRANCH  31  33
ENDBRANCH  29  31
ENDBRANCH   1  29
BRANCH   3  34
ATOM     34  C   UNL     1       2.564   8.987  17.898  0.00  0.00    +0.000 C 
ATOM     35  N   UNL     1       2.653  10.066  17.482  0.00  0.00    +0.000 NA
ENDBRANCH   3  34
TORSDOF 7
ENDMDL
