MODEL 1
REMARK VINA RESULT:      -6.7      0.000      0.000
REMARK  Name = 
REMARK  7 active torsions:
REMARK  status: ('A' for Active; 'I' for Inactive)
REMARK    1  A    between atoms: C_1  and  O_2
REMARK    2  A    between atoms: O_2  and  C_3
REMARK    3  A    between atoms: C_5  and  O_6
REMARK    4  A    between atoms: O_6  and  C_7
REMARK    5  A    between atoms: C_12  and  C_13
REMARK    6  A    between atoms: C_20  and  C_21
REMARK    7  A    between atoms: N_25  and  C_26
REMARK                            x       y       z     vdW  Elec       q    Type
REMARK                         _______ _______ _______ _____ _____    ______ ____
ROOT
ATOM      1  C   UNL     1       3.908   2.745  17.767  0.00  0.00    +0.000 A 
ATOM      2  C   UNL     1       4.690   3.094  16.661  0.00  0.00    +0.000 A 
ATOM      3  C   UNL     1       4.931   4.422  16.264  0.00  0.00    +0.000 A 
ATOM      4  C   UNL     1       4.338   5.453  17.005  0.00  0.00    +0.000 A 
ATOM      5  C   UNL     1       4.422   6.911  16.693  0.00  0.00    +0.000 A 
ATOM      6  O   UNL     1       5.188   7.429  15.895  0.00  0.00    +0.000 OA
ATOM      7  C   UNL     1       3.505   7.817  17.392  0.00  0.00    +0.000 A 
ATOM      8  C   UNL     1       2.844   7.351  18.448  0.00  0.00    +0.000 A 
ATOM      9  O   UNL     1       2.971   6.077  18.942  0.00  0.00    +0.000 OA
ATOM     10  C   UNL     1       3.573   5.104  18.156  0.00  0.00    +0.000 A 
ATOM     11  C   UNL     1       3.375   3.755  18.584  0.00  0.00    +0.000 A 
ENDROOT
BRANCH  11  12
ATOM     12  C   UNL     1       2.586   3.448  19.821  0.00  0.00    +0.000 A 
ATOM     13  C   UNL     1       2.970   3.570  21.155  0.00  0.00    +0.000 A 
ATOM     14  C   UNL     1       1.904   3.092  21.925  0.00  0.00    +0.000 A 
ATOM     15  N   UNL     1       0.882   2.708  21.172  0.00  0.00    +0.000 NA
ATOM     16  N   UNL     1       1.299   2.928  19.906  0.00  0.00    +0.000 N 
ATOM     17  C   UNL     1       0.368   2.560  18.863  0.00  0.00    +0.000 C 
ENDBRANCH  11  12
BRANCH   8  18
ATOM     18  C   UNL     1       1.976   8.204  19.179  0.00  0.00    +0.000 A 
ATOM     19  C   UNL     1       1.562   8.106  20.496  0.00  0.00    +0.000 A 
ATOM     20  C   UNL     1       0.698   9.168  20.886  0.00  0.00    +0.000 A 
ATOM     21  C   UNL     1       0.474  10.054  19.857  0.00  0.00    +0.000 A 
ATOM     22  S   UNL     1       1.300   9.599  18.430  0.00  0.00    +0.000 S 
ENDBRANCH   8  18
BRANCH   1  24
ATOM     23  C   UNL     1       4.387   0.748  19.015  0.00  0.00    +0.000 C 
ATOM     24  O   UNL     1       3.594   1.445  18.059  0.00  0.00    +0.000 OA
ENDBRANCH   1  24
BRANCH   3  25
ATOM     25  O   UNL     1       5.722   4.381  15.155  0.00  0.00    +0.000 OA
ATOM     26  C   UNL     1       7.102   4.673  15.147  0.00  0.00    +0.000 C 
ENDBRANCH   3  25
TORSDOF 4
ENDMDL
MODEL 2
REMARK VINA RESULT:      -6.6      2.355      5.260
REMARK  Name = 
REMARK  7 active torsions:
REMARK  status: ('A' for Active; 'I' for Inactive)
REMARK    1  A    between atoms: C_1  and  O_2
REMARK    2  A    between atoms: O_2  and  C_3
REMARK    3  A    between atoms: C_5  and  O_6
REMARK    4  A    between atoms: O_6  and  C_7
REMARK    5  A    between atoms: C_12  and  C_13
REMARK    6  A    between atoms: C_20  and  C_21
REMARK    7  A    between atoms: N_25  and  C_26
REMARK                            x       y       z     vdW  Elec       q    Type
REMARK                         _______ _______ _______ _____ _____    ______ ____
ROOT
ATOM      1  C   UNL     1       2.293   4.818  20.874  0.00  0.00    +0.000 A 
ATOM      2  C   UNL     1       1.775   6.114  20.950  0.00  0.00    +0.000 A 
ATOM      3  C   UNL     1       1.969   7.091  19.956  0.00  0.00    +0.000 A 
ATOM      4  C   UNL     1       2.742   6.754  18.837  0.00  0.00    +0.000 A 
ATOM      5  C   UNL     1       3.113   7.677  17.723  0.00  0.00    +0.000 A 
ATOM      6  O   UNL     1       2.622   8.774  17.510  0.00  0.00    +0.000 OA
ATOM      7  C   UNL     1       4.163   7.245  16.795  0.00  0.00    +0.000 A 
ATOM      8  C   UNL     1       4.539   5.970  16.819  0.00  0.00    +0.000 A 
ATOM      9  O   UNL     1       4.000   5.019  17.648  0.00  0.00    +0.000 OA
ATOM     10  C   UNL     1       3.239   5.422  18.736  0.00  0.00    +0.000 A 
ATOM     11  C   UNL     1       2.994   4.419  19.725  0.00  0.00    +0.000 A 
ENDROOT
BRANCH  11  12
ATOM     12  C   UNL     1       3.517   3.024  19.552  0.00  0.00    +0.000 A 
ATOM     13  C   UNL     1       4.570   2.398  20.214  0.00  0.00    +0.000 A 
ATOM     14  C   UNL     1       4.703   1.127  19.645  0.00  0.00    +0.000 A 
ATOM     15  N   UNL     1       3.796   0.909  18.702  0.00  0.00    +0.000 NA
ATOM     16  N   UNL     1       3.083   2.056  18.653  0.00  0.00    +0.000 N 
ATOM     17  C   UNL     1       2.028   2.101  17.667  0.00  0.00    +0.000 C 
ENDBRANCH  11  12
BRANCH   8  18
ATOM     18  C   UNL     1       5.524   5.500  15.912  0.00  0.00    +0.000 A 
ATOM     19  C   UNL     1       5.358   4.924  14.664  0.00  0.00    +0.000 A 
ATOM     20  C   UNL     1       6.592   4.596  14.037  0.00  0.00    +0.000 A 
ATOM     21  C   UNL     1       7.673   4.930  14.820  0.00  0.00    +0.000 A 
ATOM     22  S   UNL     1       7.196   5.631  16.304  0.00  0.00    +0.000 S 
ENDBRANCH   8  18
BRANCH   1  24
ATOM     23  C   UNL     1       1.282   2.836  21.782  0.00  0.00    +0.000 C 
ATOM     24  O   UNL     1       2.188   3.927  21.909  0.00  0.00    +0.000 OA
ENDBRANCH   1  24
BRANCH   3  25
ATOM     25  O   UNL     1       1.331   8.225  20.365  0.00  0.00    +0.000 OA
ATOM     26  C   UNL     1       1.165   8.606  21.713  0.00  0.00    +0.000 C 
ENDBRANCH   3  25
TORSDOF 4
ENDMDL
MODEL 3
REMARK VINA RESULT:      -6.4      7.369     10.405
REMARK  Name = 
REMARK  7 active torsions:
REMARK  status: ('A' for Active; 'I' for Inactive)
REMARK    1  A    between atoms: C_1  and  O_2
REMARK    2  A    between atoms: O_2  and  C_3
REMARK    3  A    between atoms: C_5  and  O_6
REMARK    4  A    between atoms: O_6  and  C_7
REMARK    5  A    between atoms: C_12  and  C_13
REMARK    6  A    between atoms: C_20  and  C_21
REMARK    7  A    between atoms: N_25  and  C_26
REMARK                            x       y       z     vdW  Elec       q    Type
REMARK                         _______ _______ _______ _____ _____    ______ ____
ROOT
ATOM      1  C   UNL     1      -1.016  11.535  19.095  0.00  0.00    +0.000 A 
ATOM      2  C   UNL     1      -1.567  10.924  17.964  0.00  0.00    +0.000 A 
ATOM      3  C   UNL     1      -2.945  10.910  17.679  0.00  0.00    +0.000 A 
ATOM      4  C   UNL     1      -3.817  11.522  18.589  0.00  0.00    +0.000 A 
ATOM      5  C   UNL     1      -5.307  11.543  18.491  0.00  0.00    +0.000 A 
ATOM      6  O   UNL     1      -5.963  11.233  17.508  0.00  0.00    +0.000 OA
ATOM      7  C   UNL     1      -6.067  11.963  19.672  0.00  0.00    +0.000 A 
ATOM      8  C   UNL     1      -5.410  12.556  20.665  0.00  0.00    +0.000 A 
ATOM      9  O   UNL     1      -4.063  12.816  20.656  0.00  0.00    +0.000 OA
ATOM     10  C   UNL     1      -3.257  12.179  19.723  0.00  0.00    +0.000 A 
ATOM     11  C   UNL     1      -1.852  12.235  19.980  0.00  0.00    +0.000 A 
ENDROOT
BRANCH  11  12
ATOM     12  C   UNL     1      -1.316  12.967  21.174  0.00  0.00    +0.000 A 
ATOM     13  C   UNL     1      -0.928  14.301  21.278  0.00  0.00    +0.000 A 
ATOM     14  C   UNL     1      -0.436  14.475  22.576  0.00  0.00    +0.000 A 
ATOM     15  N   UNL     1      -0.514  13.361  23.290  0.00  0.00    +0.000 NA
ATOM     16  N   UNL     1      -1.048  12.456  22.439  0.00  0.00    +0.000 N 
ATOM     17  C   UNL     1      -1.217  11.120  22.963  0.00  0.00    +0.000 C 
ENDBRANCH  11  12
BRANCH   8  18
ATOM     18  C   UNL     1      -6.112  13.015  21.810  0.00  0.00    +0.000 A 
ATOM     19  C   UNL     1      -7.299  12.551  22.351  0.00  0.00    +0.000 A 
ATOM     20  C   UNL     1      -7.685  13.255  23.526  0.00  0.00    +0.000 A 
ATOM     21  C   UNL     1      -6.783  14.240  23.856  0.00  0.00    +0.000 A 
ATOM     22  S   UNL     1      -5.482  14.314  22.749  0.00  0.00    +0.000 S 
ENDBRANCH   8  18
BRANCH   1  24
ATOM     23  C   UNL     1       0.811  10.178  19.868  0.00  0.00    +0.000 C 
ATOM     24  O   UNL     1       0.312  11.431  19.407  0.00  0.00    +0.000 OA
ENDBRANCH   1  24
BRANCH   3  25
ATOM     25  O   UNL     1      -3.115  10.229  16.509  0.00  0.00    +0.000 OA
ATOM     26  C   UNL     1      -3.127  10.827  15.232  0.00  0.00    +0.000 C 
ENDBRANCH   3  25
TORSDOF 4
ENDMDL
MODEL 4
REMARK VINA RESULT:      -6.4      6.082      9.137
REMARK  Name = 
REMARK  7 active torsions:
REMARK  status: ('A' for Active; 'I' for Inactive)
REMARK    1  A    between atoms: C_1  and  O_2
REMARK    2  A    between atoms: O_2  and  C_3
REMARK    3  A    between atoms: C_5  and  O_6
REMARK    4  A    between atoms: O_6  and  C_7
REMARK    5  A    between atoms: C_12  and  C_13
REMARK    6  A    between atoms: C_20  and  C_21
REMARK    7  A    between atoms: N_25  and  C_26
REMARK                            x       y       z     vdW  Elec       q    Type
REMARK                         _______ _______ _______ _____ _____    ______ ____
ROOT
ATOM      1  C   UNL     1       0.204  10.790  20.728  0.00  0.00    +0.000 A 
ATOM      2  C   UNL     1       0.659  10.101  19.599  0.00  0.00    +0.000 A 
ATOM      3  C   UNL     1      -0.074   9.996  18.402  0.00  0.00    +0.000 A 
ATOM      4  C   UNL     1      -1.338  10.598  18.344  0.00  0.00    +0.000 A 
ATOM      5  C   UNL     1      -2.284  10.530  17.190  0.00  0.00    +0.000 A 
ATOM      6  O   UNL     1      -2.012  10.142  16.065  0.00  0.00    +0.000 OA
ATOM      7  C   UNL     1      -3.668  10.959  17.411  0.00  0.00    +0.000 A 
ATOM      8  C   UNL     1      -3.949  11.630  18.524  0.00  0.00    +0.000 A 
ATOM      9  O   UNL     1      -3.025  11.965  19.481  0.00  0.00    +0.000 OA
ATOM     10  C   UNL     1      -1.789  11.334  19.478  0.00  0.00    +0.000 A 
ATOM     11  C   UNL     1      -1.017  11.480  20.672  0.00  0.00    +0.000 A 
ENDROOT
BRANCH  11  12
ATOM     12  C   UNL     1      -1.528  12.293  21.824  0.00  0.00    +0.000 A 
ATOM     13  C   UNL     1      -2.295  11.881  22.911  0.00  0.00    +0.000 A 
ATOM     14  C   UNL     1      -2.568  13.026  23.667  0.00  0.00    +0.000 A 
ATOM     15  N   UNL     1      -2.007  14.109  23.146  0.00  0.00    +0.000 NA
ATOM     16  N   UNL     1      -1.380  13.659  22.037  0.00  0.00    +0.000 N 
ATOM     17  C   UNL     1      -0.700  14.660  21.247  0.00  0.00    +0.000 C 
ENDBRANCH  11  12
BRANCH   8  18
ATOM     18  C   UNL     1      -5.268  12.099  18.761  0.00  0.00    +0.000 A 
ATOM     19  C   UNL     1      -5.947  12.227  19.961  0.00  0.00    +0.000 A 
ATOM     20  C   UNL     1      -7.258  12.756  19.802  0.00  0.00    +0.000 A 
ATOM     21  C   UNL     1      -7.550  13.021  18.484  0.00  0.00    +0.000 A 
ATOM     22  S   UNL     1      -6.248  12.627  17.448  0.00  0.00    +0.000 S 
ENDBRANCH   8  18
BRANCH   1  24
ATOM     23  C   UNL     1       0.950   9.557  22.651  0.00  0.00    +0.000 C 
ATOM     24  O   UNL     1       0.884  10.775  21.916  0.00  0.00    +0.000 OA
ENDBRANCH   1  24
BRANCH   3  25
ATOM     25  O   UNL     1       0.669   9.257  17.530  0.00  0.00    +0.000 OA
ATOM     26  C   UNL     1       1.933   8.706  17.826  0.00  0.00    +0.000 C 
ENDBRANCH   3  25
TORSDOF 4
ENDMDL
MODEL 5
REMARK VINA RESULT:      -6.3      7.509     10.677
REMARK  Name = 
REMARK  7 active torsions:
REMARK  status: ('A' for Active; 'I' for Inactive)
REMARK    1  A    between atoms: C_1  and  O_2
REMARK    2  A    between atoms: O_2  and  C_3
REMARK    3  A    between atoms: C_5  and  O_6
REMARK    4  A    between atoms: O_6  and  C_7
REMARK    5  A    between atoms: C_12  and  C_13
REMARK    6  A    between atoms: C_20  and  C_21
REMARK    7  A    between atoms: N_25  and  C_26
REMARK                            x       y       z     vdW  Elec       q    Type
REMARK                         _______ _______ _______ _____ _____    ______ ____
ROOT
ATOM      1  C   UNL     1      -1.640  11.588  18.377  0.00  0.00    +0.000 A 
ATOM      2  C   UNL     1      -2.318  11.239  17.205  0.00  0.00    +0.000 A 
ATOM      3  C   UNL     1      -3.714  11.331  17.054  0.00  0.00    +0.000 A 
ATOM      4  C   UNL     1      -4.470  11.777  18.146  0.00  0.00    +0.000 A 
ATOM      5  C   UNL     1      -5.960  11.870  18.195  0.00  0.00    +0.000 A 
ATOM      6  O   UNL     1      -6.713  11.789  17.238  0.00  0.00    +0.000 OA
ATOM      7  C   UNL     1      -6.592  12.071  19.503  0.00  0.00    +0.000 A 
ATOM      8  C   UNL     1      -5.822  12.426  20.527  0.00  0.00    +0.000 A 
ATOM      9  O   UNL     1      -4.468  12.635  20.442  0.00  0.00    +0.000 OA
ATOM     10  C   UNL     1      -3.781  12.171  19.330  0.00  0.00    +0.000 A 
ATOM     11  C   UNL     1      -2.358  12.124  19.458  0.00  0.00    +0.000 A 
ENDROOT
BRANCH  11  12
ATOM     12  C   UNL     1      -1.683  12.580  20.717  0.00  0.00    +0.000 A 
ATOM     13  C   UNL     1      -1.547  11.906  21.928  0.00  0.00    +0.000 A 
ATOM     14  C   UNL     1      -0.901  12.784  22.805  0.00  0.00    +0.000 A 
ATOM     15  N   UNL     1      -0.604  13.938  22.223  0.00  0.00    +0.000 NA
ATOM     16  N   UNL     1      -1.076  13.807  20.963  0.00  0.00    +0.000 N 
ATOM     17  C   UNL     1      -0.907  14.957  20.104  0.00  0.00    +0.000 C 
ENDBRANCH  11  12
BRANCH   8  18
ATOM     18  C   UNL     1      -6.397  12.669  21.802  0.00  0.00    +0.000 A 
ATOM     19  C   UNL     1      -7.718  12.552  22.200  0.00  0.00    +0.000 A 
ATOM     20  C   UNL     1      -7.912  12.864  23.575  0.00  0.00    +0.000 A 
ATOM     21  C   UNL     1      -6.733  13.212  24.195  0.00  0.00    +0.000 A 
ATOM     22  S   UNL     1      -5.405  13.164  23.119  0.00  0.00    +0.000 S 
ENDBRANCH   8  18
BRANCH   1  24
ATOM     23  C   UNL     1       0.175  10.037  18.653  0.00  0.00    +0.000 C 
ATOM     24  O   UNL     1      -0.297  11.376  18.535  0.00  0.00    +0.000 OA
ENDBRANCH   1  24
BRANCH   3  25
ATOM     25  O   UNL     1      -4.020  10.907  15.794  0.00  0.00    +0.000 OA
ATOM     26  C   UNL     1      -3.078  10.413  14.868  0.00  0.00    +0.000 C 
ENDBRANCH   3  25
TORSDOF 4
ENDMDL
MODEL 6
REMARK VINA RESULT:      -6.2      8.526     11.694
REMARK  Name = 
REMARK  7 active torsions:
REMARK  status: ('A' for Active; 'I' for Inactive)
REMARK    1  A    between atoms: C_1  and  O_2
REMARK    2  A    between atoms: O_2  and  C_3
REMARK    3  A    between atoms: C_5  and  O_6
REMARK    4  A    between atoms: O_6  and  C_7
REMARK    5  A    between atoms: C_12  and  C_13
REMARK    6  A    between atoms: C_20  and  C_21
REMARK    7  A    between atoms: N_25  and  C_26
REMARK                            x       y       z     vdW  Elec       q    Type
REMARK                         _______ _______ _______ _____ _____    ______ ____
ROOT
ATOM      1  C   UNL     1      -2.215  13.807  23.456  0.00  0.00    +0.000 A 
ATOM      2  C   UNL     1      -3.489  14.228  23.852  0.00  0.00    +0.000 A 
ATOM      3  C   UNL     1      -4.661  13.961  23.119  0.00  0.00    +0.000 A 
ATOM      4  C   UNL     1      -4.543  13.254  21.915  0.00  0.00    +0.000 A 
ATOM      5  C   UNL     1      -5.660  12.943  20.974  0.00  0.00    +0.000 A 
ATOM      6  O   UNL     1      -6.852  13.058  21.215  0.00  0.00    +0.000 OA
ATOM      7  C   UNL     1      -5.314  12.461  19.633  0.00  0.00    +0.000 A 
ATOM      8  C   UNL     1      -4.063  12.070  19.409  0.00  0.00    +0.000 A 
ATOM      9  O   UNL     1      -3.069  12.071  20.355  0.00  0.00    +0.000 OA
ATOM     10  C   UNL     1      -3.253  12.789  21.528  0.00  0.00    +0.000 A 
ATOM     11  C   UNL     1      -2.074  13.019  22.303  0.00  0.00    +0.000 A 
ENDROOT
BRANCH  11  12
ATOM     12  C   UNL     1      -0.746  12.480  21.862  0.00  0.00    +0.000 A 
ATOM     13  C   UNL     1       0.187  13.053  21.001  0.00  0.00    +0.000 A 
ATOM     14  C   UNL     1       1.225  12.126  20.859  0.00  0.00    +0.000 A 
ATOM     15  N   UNL     1       1.019  11.036  21.585  0.00  0.00    +0.000 NA
ATOM     16  N   UNL     1      -0.170  11.257  22.189  0.00  0.00    +0.000 N 
ATOM     17  C   UNL     1      -0.656  10.190  23.034  0.00  0.00    +0.000 C 
ENDBRANCH  11  12
BRANCH   8  18
ATOM     18  C   UNL     1      -3.693  11.559  18.137  0.00  0.00    +0.000 A 
ATOM     19  C   UNL     1      -2.515  10.940  17.754  0.00  0.00    +0.000 A 
ATOM     20  C   UNL     1      -2.517  10.543  16.387  0.00  0.00    +0.000 A 
ATOM     21  C   UNL     1      -3.697  10.868  15.759  0.00  0.00    +0.000 A 
ATOM     22  S   UNL     1      -4.791  11.650  16.814  0.00  0.00    +0.000 S 
ENDBRANCH   8  18
BRANCH   1  24
ATOM     23  C   UNL     1      -1.084  15.416  24.837  0.00  0.00    +0.000 C 
ATOM     24  O   UNL     1      -1.082  14.182  24.126  0.00  0.00    +0.000 OA
ENDBRANCH   1  24
BRANCH   3  25
ATOM     25  O   UNL     1      -5.704  14.521  23.796  0.00  0.00    +0.000 OA
ATOM     26  C   UNL     1      -5.894  15.908  23.964  0.00  0.00    +0.000 C 
ENDBRANCH   3  25
TORSDOF 4
ENDMDL
MODEL 7
REMARK VINA RESULT:      -6.1      6.304      9.665
REMARK  Name = 
REMARK  7 active torsions:
REMARK  status: ('A' for Active; 'I' for Inactive)
REMARK    1  A    between atoms: C_1  and  O_2
REMARK    2  A    between atoms: O_2  and  C_3
REMARK    3  A    between atoms: C_5  and  O_6
REMARK    4  A    between atoms: O_6  and  C_7
REMARK    5  A    between atoms: C_12  and  C_13
REMARK    6  A    between atoms: C_20  and  C_21
REMARK    7  A    between atoms: N_25  and  C_26
REMARK                            x       y       z     vdW  Elec       q    Type
REMARK                         _______ _______ _______ _____ _____    ______ ____
ROOT
ATOM      1  C   UNL     1       0.414  11.914  20.250  0.00  0.00    +0.000 A 
ATOM      2  C   UNL     1       0.821  10.901  19.376  0.00  0.00    +0.000 A 
ATOM      3  C   UNL     1      -0.021  10.320  18.409  0.00  0.00    +0.000 A 
ATOM      4  C   UNL     1      -1.347  10.766  18.332  0.00  0.00    +0.000 A 
ATOM      5  C   UNL     1      -2.399  10.219  17.424  0.00  0.00    +0.000 A 
ATOM      6  O   UNL     1      -2.208   9.474  16.476  0.00  0.00    +0.000 OA
ATOM      7  C   UNL     1      -3.792  10.594  17.683  0.00  0.00    +0.000 A 
ATOM      8  C   UNL     1      -4.028  11.598  18.524  0.00  0.00    +0.000 A 
ATOM      9  O   UNL     1      -3.051  12.321  19.160  0.00  0.00    +0.000 OA
ATOM     10  C   UNL     1      -1.756  11.824  19.195  0.00  0.00    +0.000 A 
ATOM     11  C   UNL     1      -0.881  12.445  20.139  0.00  0.00    +0.000 A 
ENDROOT
BRANCH  11  12
ATOM     12  C   UNL     1      -1.356  13.577  21.000  0.00  0.00    +0.000 A 
ATOM     13  C   UNL     1      -1.213  14.948  20.798  0.00  0.00    +0.000 A 
ATOM     14  C   UNL     1      -1.766  15.579  21.918  0.00  0.00    +0.000 A 
ATOM     15  N   UNL     1      -2.262  14.706  22.784  0.00  0.00    +0.000 NA
ATOM     16  N   UNL     1      -2.014  13.501  22.223  0.00  0.00    +0.000 N 
ATOM     17  C   UNL     1      -2.434  12.350  22.989  0.00  0.00    +0.000 C 
ENDBRANCH  11  12
BRANCH   8  18
ATOM     18  C   UNL     1      -5.360  12.021  18.774  0.00  0.00    +0.000 A 
ATOM     19  C   UNL     1      -6.372  12.296  17.871  0.00  0.00    +0.000 A 
ATOM     20  C   UNL     1      -7.589  12.678  18.502  0.00  0.00    +0.000 A 
ATOM     21  C   UNL     1      -7.478  12.684  19.873  0.00  0.00    +0.000 A 
ATOM     22  S   UNL     1      -5.911  12.236  20.390  0.00  0.00    +0.000 S 
ENDBRANCH   8  18
BRANCH   1  24
ATOM     23  C   UNL     1       2.268  13.282  20.933  0.00  0.00    +0.000 C 
ATOM     24  O   UNL     1       1.218  12.376  21.257  0.00  0.00    +0.000 OA
ENDBRANCH   1  24
BRANCH   3  25
ATOM     25  O   UNL     1       0.706   9.374  17.748  0.00  0.00    +0.000 OA
ATOM     26  C   UNL     1       2.096   9.189  17.895  0.00  0.00    +0.000 C 
ENDBRANCH   3  25
TORSDOF 4
ENDMDL
MODEL 8
REMARK VINA RESULT:      -6.1      6.345      9.703
REMARK  Name = 
REMARK  7 active torsions:
REMARK  status: ('A' for Active; 'I' for Inactive)
REMARK    1  A    between atoms: C_1  and  O_2
REMARK    2  A    between atoms: O_2  and  C_3
REMARK    3  A    between atoms: C_5  and  O_6
REMARK    4  A    between atoms: O_6  and  C_7
REMARK    5  A    between atoms: C_12  and  C_13
REMARK    6  A    between atoms: C_20  and  C_21
REMARK    7  A    between atoms: N_25  and  C_26
REMARK                            x       y       z     vdW  Elec       q    Type
REMARK                         _______ _______ _______ _____ _____    ______ ____
ROOT
ATOM      1  C   UNL     1       0.447  11.864  20.172  0.00  0.00    +0.000 A 
ATOM      2  C   UNL     1       0.854  10.856  19.291  0.00  0.00    +0.000 A 
ATOM      3  C   UNL     1       0.009  10.273  18.329  0.00  0.00    +0.000 A 
ATOM      4  C   UNL     1      -1.321  10.710  18.263  0.00  0.00    +0.000 A 
ATOM      5  C   UNL     1      -2.376  10.160  17.360  0.00  0.00    +0.000 A 
ATOM      6  O   UNL     1      -2.187   9.419  16.409  0.00  0.00    +0.000 OA
ATOM      7  C   UNL     1      -3.769  10.527  17.630  0.00  0.00    +0.000 A 
ATOM      8  C   UNL     1      -4.005  11.527  18.476  0.00  0.00    +0.000 A 
ATOM      9  O   UNL     1      -3.028  12.254  19.107  0.00  0.00    +0.000 OA
ATOM     10  C   UNL     1      -1.729  11.764  19.131  0.00  0.00    +0.000 A 
ATOM     11  C   UNL     1      -0.851  12.388  20.071  0.00  0.00    +0.000 A 
ENDROOT
BRANCH  11  12
ATOM     12  C   UNL     1      -1.327  13.514  20.939  0.00  0.00    +0.000 A 
ATOM     13  C   UNL     1      -1.991  13.454  22.161  0.00  0.00    +0.000 A 
ATOM     14  C   UNL     1      -2.276  14.774  22.529  0.00  0.00    +0.000 A 
ATOM     15  N   UNL     1      -1.817  15.645  21.641  0.00  0.00    +0.000 NA
ATOM     16  N   UNL     1      -1.244  14.879  20.687  0.00  0.00    +0.000 N 
ATOM     17  C   UNL     1      -0.679  15.591  19.562  0.00  0.00    +0.000 C 
ENDBRANCH  11  12
BRANCH   8  18
ATOM     18  C   UNL     1      -5.337  11.941  18.736  0.00  0.00    +0.000 A 
ATOM     19  C   UNL     1      -6.049  11.898  19.923  0.00  0.00    +0.000 A 
ATOM     20  C   UNL     1      -7.364  12.426  19.800  0.00  0.00    +0.000 A 
ATOM     21  C   UNL     1      -7.626  12.863  18.522  0.00  0.00    +0.000 A 
ATOM     22  S   UNL     1      -6.291  12.629  17.479  0.00  0.00    +0.000 S 
ENDBRANCH   8  18
BRANCH   1  24
ATOM     23  C   UNL     1       2.247  13.301  20.859  0.00  0.00    +0.000 C 
ATOM     24  O   UNL     1       1.256  12.328  21.174  0.00  0.00    +0.000 OA
ENDBRANCH   1  24
BRANCH   3  25
ATOM     25  O   UNL     1       0.736   9.333  17.660  0.00  0.00    +0.000 OA
ATOM     26  C   UNL     1       2.038   8.926  18.019  0.00  0.00    +0.000 C 
ENDBRANCH   3  25
TORSDOF 4
ENDMDL
MODEL 9
REMARK VINA RESULT:      -6.1      0.777      1.167
REMARK  Name = 
REMARK  7 active torsions:
REMARK  status: ('A' for Active; 'I' for Inactive)
REMARK    1  A    between atoms: C_1  and  O_2
REMARK    2  A    between atoms: O_2  and  C_3
REMARK    3  A    between atoms: C_5  and  O_6
REMARK    4  A    between atoms: O_6  and  C_7
REMARK    5  A    between atoms: C_12  and  C_13
REMARK    6  A    between atoms: C_20  and  C_21
REMARK    7  A    between atoms: N_25  and  C_26
REMARK                            x       y       z     vdW  Elec       q    Type
REMARK                         _______ _______ _______ _____ _____    ______ ____
ROOT
ATOM      1  C   UNL     1       3.756   2.764  17.686  0.00  0.00    +0.000 A 
ATOM      2  C   UNL     1       4.515   3.200  16.595  0.00  0.00    +0.000 A 
ATOM      3  C   UNL     1       4.752   4.556  16.302  0.00  0.00    +0.000 A 
ATOM      4  C   UNL     1       4.178   5.525  17.137  0.00  0.00    +0.000 A 
ATOM      5  C   UNL     1       4.260   7.003  16.942  0.00  0.00    +0.000 A 
ATOM      6  O   UNL     1       5.011   7.582  16.173  0.00  0.00    +0.000 OA
ATOM      7  C   UNL     1       3.362   7.850  17.733  0.00  0.00    +0.000 A 
ATOM      8  C   UNL     1       2.722   7.301  18.761  0.00  0.00    +0.000 A 
ATOM      9  O   UNL     1       2.855   5.991  19.147  0.00  0.00    +0.000 OA
ATOM     10  C   UNL     1       3.437   5.085  18.272  0.00  0.00    +0.000 A 
ATOM     11  C   UNL     1       3.244   3.705  18.593  0.00  0.00    +0.000 A 
ENDROOT
BRANCH  11  12
ATOM     12  C   UNL     1       2.480   3.299  19.818  0.00  0.00    +0.000 A 
ATOM     13  C   UNL     1       1.139   3.519  20.124  0.00  0.00    +0.000 A 
ATOM     14  C   UNL     1       0.932   3.010  21.410  0.00  0.00    +0.000 A 
ATOM     15  N   UNL     1       2.033   2.469  21.912  0.00  0.00    +0.000 NA
ATOM     16  N   UNL     1       2.962   2.645  20.946  0.00  0.00    +0.000 N 
ATOM     17  C   UNL     1       4.290   2.164  21.253  0.00  0.00    +0.000 C 
ENDBRANCH  11  12
BRANCH   8  18
ATOM     18  C   UNL     1       1.873   8.093  19.578  0.00  0.00    +0.000 A 
ATOM     19  C   UNL     1       1.463   7.875  20.882  0.00  0.00    +0.000 A 
ATOM     20  C   UNL     1       0.621   8.908  21.379  0.00  0.00    +0.000 A 
ATOM     21  C   UNL     1       0.407   9.893  20.442  0.00  0.00    +0.000 A 
ATOM     22  S   UNL     1       1.217   9.566  18.972  0.00  0.00    +0.000 S 
ENDBRANCH   8  18
BRANCH   1  24
ATOM     23  C   UNL     1       4.415   0.593  18.478  0.00  0.00    +0.000 C 
ATOM     24  O   UNL     1       3.444   1.445  17.878  0.00  0.00    +0.000 OA
ENDBRANCH   1  24
BRANCH   3  25
ATOM     25  O   UNL     1       5.520   4.604  15.176  0.00  0.00    +0.000 OA
ATOM     26  C   UNL     1       6.929   4.579  15.169  0.00  0.00    +0.000 C 
ENDBRANCH   3  25
TORSDOF 4
ENDMDL
