MODEL 1
REMARK VINA RESULT:      -7.8      0.000      0.000
REMARK  Name = 
REMARK  10 active torsions:
REMARK  status: ('A' for Active; 'I' for Inactive)
REMARK    1  A    between atoms: C_1  and  N_2
REMARK    2  A    between atoms: N_2  and  C_3
REMARK    3  A    between atoms: N_2  and  C_4
REMARK    4  A    between atoms: C_4  and  C_5
REMARK    5  A    between atoms: C_6  and  C_7
REMARK    6  A    between atoms: C_12  and  S_13
REMARK    7  A    between atoms: S_13  and  N_16
REMARK    8  A    between atoms: N_16  and  C_17
REMARK    9  A    between atoms: C_22  and  C_23
REMARK   10  A    between atoms: C_23  and  O_25
REMARK                            x       y       z     vdW  Elec       q    Type
REMARK                         _______ _______ _______ _____ _____    ______ ____
ROOT
ATOM      1  N   UNL     1       2.310   7.274  19.898  0.00  0.00    +0.000 N 
ATOM      2  H   UNL     1       1.809   6.741  20.616  0.00  0.00    +0.000 HD
ENDROOT
BRANCH   1   3
ATOM      3  C   UNL     1       1.671   8.488  19.491  0.00  0.00    +0.000 A 
ATOM      4  C   UNL     1       2.014   9.081  18.276  0.00  0.00    +0.000 A 
ATOM      5  C   UNL     1       1.567  10.380  17.968  0.00  0.00    +0.000 A 
ATOM      6  C   UNL     1       0.753  11.119  18.860  0.00  0.00    +0.000 A 
ATOM      7  C   UNL     1       0.397  10.520  20.074  0.00  0.00    +0.000 A 
ATOM      8  C   UNL     1       0.847   9.204  20.375  0.00  0.00    +0.000 A 
ATOM      9  C   UNL     1      -0.317  11.303  21.139  0.00  0.00    +0.000 C 
ATOM     10  C   UNL     1      -0.896  12.662  20.806  0.00  0.00    +0.000 C 
ATOM     11  C   UNL     1      -0.624  13.243  19.433  0.00  0.00    +0.000 C 
ATOM     12  C   UNL     1       0.388  12.540  18.529  0.00  0.00    +0.000 C 
BRANCH   8  13
ATOM     13  C   UNL     1       0.491   8.610  21.684  0.00  0.00    +0.000 C 
ATOM     14  O   UNL     1      -0.586   8.160  22.019  0.00  0.00    +0.000 OA
BRANCH  13  15
ATOM     15  O   UNL     1       1.504   8.707  22.567  0.00  0.00    +0.000 OA
ATOM     16  H   UNL     1       2.237   8.254  22.094  0.00  0.00    +0.000 HD
ENDBRANCH  13  15
ENDBRANCH   8  13
ENDBRANCH   1   3
BRANCH   1  17
ATOM     17  S   UNL     1       3.204   6.276  18.876  0.00  0.00    +0.000 S 
ATOM     18  O   UNL     1       4.463   6.058  19.562  0.00  0.00    +0.000 OA
ATOM     19  O   UNL     1       3.185   6.860  17.555  0.00  0.00    +0.000 OA
BRANCH  17  25
ATOM     20  C   UNL     1       2.600   3.661  17.985  0.00  0.00    +0.000 A 
ATOM     21  C   UNL     1       1.893   2.452  18.120  0.00  0.00    +0.000 A 
ATOM     22  C   UNL     1       0.967   2.267  19.151  0.00  0.00    +0.000 A 
ATOM     23  C   UNL     1       0.750   3.278  20.080  0.00  0.00    +0.000 A 
ATOM     24  C   UNL     1       1.438   4.486  19.960  0.00  0.00    +0.000 A 
ATOM     25  C   UNL     1       2.340   4.701  18.894  0.00  0.00    +0.000 A 
BRANCH  20  27
ATOM     26  C   UNL     1       4.896   3.576  17.055  0.00  0.00    +0.000 C 
ATOM     27  C   UNL     1       3.570   3.751  16.891  0.00  0.00    +0.000 C 
BRANCH  26  28
ATOM     28  C   UNL     1       5.883   3.869  15.955  0.00  0.00    +0.000 C 
BRANCH  28  30
ATOM     29  C   UNL     1       6.322   6.219  16.419  0.00  0.00    +0.000 C 
ATOM     30  N   UNL     1       6.901   4.881  16.277  0.00  0.00    +0.000 NA
ATOM     31  C   UNL     1       7.566   4.510  17.534  0.00  0.00    +0.000 C 
ENDBRANCH  28  30
ENDBRANCH  26  28
ENDBRANCH  20  27
ENDBRANCH  17  25
ENDBRANCH   1  17
TORSDOF 8
ENDMDL
MODEL 2
REMARK VINA RESULT:      -7.7      3.152      5.528
REMARK  Name = 
REMARK  10 active torsions:
REMARK  status: ('A' for Active; 'I' for Inactive)
REMARK    1  A    between atoms: C_1  and  N_2
REMARK    2  A    between atoms: N_2  and  C_3
REMARK    3  A    between atoms: N_2  and  C_4
REMARK    4  A    between atoms: C_4  and  C_5
REMARK    5  A    between atoms: C_6  and  C_7
REMARK    6  A    between atoms: C_12  and  S_13
REMARK    7  A    between atoms: S_13  and  N_16
REMARK    8  A    between atoms: N_16  and  C_17
REMARK    9  A    between atoms: C_22  and  C_23
REMARK   10  A    between atoms: C_23  and  O_25
REMARK                            x       y       z     vdW  Elec       q    Type
REMARK                         _______ _______ _______ _____ _____    ______ ____
ROOT
ATOM      1  N   UNL     1       0.352  11.015  21.291  0.00  0.00    +0.000 N 
ATOM      2  H   UNL     1       1.198  11.583  21.399  0.00  0.00    +0.000 HD
ENDROOT
BRANCH   1   3
ATOM      3  C   UNL     1      -0.865  11.663  21.672  0.00  0.00    +0.000 A 
ATOM      4  C   UNL     1      -1.221  11.737  23.018  0.00  0.00    +0.000 A 
ATOM      5  C   UNL     1      -2.510  12.164  23.391  0.00  0.00    +0.000 A 
ATOM      6  C   UNL     1      -3.476  12.544  22.427  0.00  0.00    +0.000 A 
ATOM      7  C   UNL     1      -3.115  12.484  21.076  0.00  0.00    +0.000 A 
ATOM      8  C   UNL     1      -1.808  12.058  20.709  0.00  0.00    +0.000 A 
ATOM      9  C   UNL     1      -4.135  12.705  19.996  0.00  0.00    +0.000 C 
ATOM     10  C   UNL     1      -5.498  13.261  20.357  0.00  0.00    +0.000 C 
ATOM     11  C   UNL     1      -5.829  13.458  21.823  0.00  0.00    +0.000 C 
ATOM     12  C   UNL     1      -4.869  12.895  22.871  0.00  0.00    +0.000 C 
BRANCH   8  13
ATOM     13  C   UNL     1      -1.467  11.963  19.271  0.00  0.00    +0.000 C 
ATOM     14  O   UNL     1      -1.101  12.862  18.541  0.00  0.00    +0.000 OA
BRANCH  13  15
ATOM     15  O   UNL     1      -1.706  10.730  18.783  0.00  0.00    +0.000 OA
ATOM     16  H   UNL     1      -2.419  10.405  19.376  0.00  0.00    +0.000 HD
ENDBRANCH  13  15
ENDBRANCH   8  13
ENDBRANCH   1   3
BRANCH   1  17
ATOM     17  S   UNL     1       0.663   9.371  21.494  0.00  0.00    +0.000 S 
ATOM     18  O   UNL     1      -0.640   8.735  21.500  0.00  0.00    +0.000 OA
ATOM     19  O   UNL     1       1.553   9.223  22.622  0.00  0.00    +0.000 OA
BRANCH  17  25
ATOM     20  C   UNL     1       1.898   7.545  19.724  0.00  0.00    +0.000 A 
ATOM     21  C   UNL     1       2.476   7.247  18.476  0.00  0.00    +0.000 A 
ATOM     22  C   UNL     1       2.600   8.224  17.483  0.00  0.00    +0.000 A 
ATOM     23  C   UNL     1       2.125   9.510  17.712  0.00  0.00    +0.000 A 
ATOM     24  C   UNL     1       1.553   9.827  18.945  0.00  0.00    +0.000 A 
ATOM     25  C   UNL     1       1.467   8.859  19.971  0.00  0.00    +0.000 A 
BRANCH  20  27
ATOM     26  C   UNL     1       2.346   5.237  20.508  0.00  0.00    +0.000 C 
ATOM     27  C   UNL     1       1.786   6.449  20.688  0.00  0.00    +0.000 C 
BRANCH  26  28
ATOM     28  C   UNL     1       2.048   4.075  21.420  0.00  0.00    +0.000 C 
BRANCH  28  30
ATOM     29  C   UNL     1       1.225   2.590  19.675  0.00  0.00    +0.000 C 
ATOM     30  N   UNL     1       2.152   2.746  20.798  0.00  0.00    +0.000 NA
ATOM     31  C   UNL     1       3.526   2.545  20.318  0.00  0.00    +0.000 C 
ENDBRANCH  28  30
ENDBRANCH  26  28
ENDBRANCH  20  27
ENDBRANCH  17  25
ENDBRANCH   1  17
TORSDOF 8
ENDMDL
MODEL 3
REMARK VINA RESULT:      -7.6      3.820      9.124
REMARK  Name = 
REMARK  10 active torsions:
REMARK  status: ('A' for Active; 'I' for Inactive)
REMARK    1  A    between atoms: C_1  and  N_2
REMARK    2  A    between atoms: N_2  and  C_3
REMARK    3  A    between atoms: N_2  and  C_4
REMARK    4  A    between atoms: C_4  and  C_5
REMARK    5  A    between atoms: C_6  and  C_7
REMARK    6  A    between atoms: C_12  and  S_13
REMARK    7  A    between atoms: S_13  and  N_16
REMARK    8  A    between atoms: N_16  and  C_17
REMARK    9  A    between atoms: C_22  and  C_23
REMARK   10  A    between atoms: C_23  and  O_25
REMARK                            x       y       z     vdW  Elec       q    Type
REMARK                         _______ _______ _______ _____ _____    ______ ____
ROOT
ATOM      1  N   UNL     1       0.654  11.364  19.722  0.00  0.00    +0.000 N 
ATOM      2  H   UNL     1       1.255  12.194  19.689  0.00  0.00    +0.000 HD
ENDROOT
BRANCH   1   3
ATOM      3  C   UNL     1       1.302  10.134  19.386  0.00  0.00    +0.000 A 
ATOM      4  C   UNL     1       1.742   9.913  18.082  0.00  0.00    +0.000 A 
ATOM      5  C   UNL     1       2.171   8.632  17.683  0.00  0.00    +0.000 A 
ATOM      6  C   UNL     1       2.187   7.539  18.583  0.00  0.00    +0.000 A 
ATOM      7  C   UNL     1       1.758   7.762  19.896  0.00  0.00    +0.000 A 
ATOM      8  C   UNL     1       1.332   9.061  20.292  0.00  0.00    +0.000 A 
ATOM      9  C   UNL     1       1.584   6.618  20.854  0.00  0.00    +0.000 C 
ATOM     10  C   UNL     1       2.128   5.251  20.493  0.00  0.00    +0.000 C 
ATOM     11  C   UNL     1       2.722   5.055  19.113  0.00  0.00    +0.000 C 
ATOM     12  C   UNL     1       2.557   6.170  18.080  0.00  0.00    +0.000 C 
BRANCH   8  13
ATOM     13  C   UNL     1       0.844   9.260  21.676  0.00  0.00    +0.000 C 
ATOM     14  O   UNL     1       1.512   9.458  22.671  0.00  0.00    +0.000 OA
BRANCH  13  15
ATOM     15  O   UNL     1      -0.490   9.094  21.762  0.00  0.00    +0.000 OA
ATOM     16  H   UNL     1      -0.566   8.154  22.040  0.00  0.00    +0.000 HD
ENDBRANCH  13  15
ENDBRANCH   8  13
ENDBRANCH   1   3
BRANCH   1  17
ATOM     17  S   UNL     1      -0.950  11.730  19.357  0.00  0.00    +0.000 S 
ATOM     18  O   UNL     1      -1.616  10.447  19.241  0.00  0.00    +0.000 OA
ATOM     19  O   UNL     1      -0.955  12.658  18.250  0.00  0.00    +0.000 OA
BRANCH  17  25
ATOM     20  C   UNL     1      -2.944  12.881  20.999  0.00  0.00    +0.000 A 
ATOM     21  C   UNL     1      -3.352  13.437  22.225  0.00  0.00    +0.000 A 
ATOM     22  C   UNL     1      -2.454  13.592  23.285  0.00  0.00    +0.000 A 
ATOM     23  C   UNL     1      -1.136  13.168  23.146  0.00  0.00    +0.000 A 
ATOM     24  C   UNL     1      -0.712  12.618  21.937  0.00  0.00    +0.000 A 
ATOM     25  C   UNL     1      -1.600  12.502  20.844  0.00  0.00    +0.000 A 
BRANCH  20  27
ATOM     26  C   UNL     1      -5.088  12.008  20.114  0.00  0.00    +0.000 C 
ATOM     27  C   UNL     1      -3.963  12.733  19.958  0.00  0.00    +0.000 C 
BRANCH  26  28
ATOM     28  C   UNL     1      -6.017  11.715  18.964  0.00  0.00    +0.000 C 
BRANCH  28  30
ATOM     29  C   UNL     1      -6.957   9.499  19.337  0.00  0.00    +0.000 C 
ATOM     30  N   UNL     1      -7.219  10.940  19.309  0.00  0.00    +0.000 NA
ATOM     31  C   UNL     1      -7.702  11.365  20.630  0.00  0.00    +0.000 C 
ENDBRANCH  28  30
ENDBRANCH  26  28
ENDBRANCH  20  27
ENDBRANCH  17  25
ENDBRANCH   1  17
TORSDOF 8
ENDMDL
MODEL 4
REMARK VINA RESULT:      -7.5      3.234      8.244
REMARK  Name = 
REMARK  10 active torsions:
REMARK  status: ('A' for Active; 'I' for Inactive)
REMARK    1  A    between atoms: C_1  and  N_2
REMARK    2  A    between atoms: N_2  and  C_3
REMARK    3  A    between atoms: N_2  and  C_4
REMARK    4  A    between atoms: C_4  and  C_5
REMARK    5  A    between atoms: C_6  and  C_7
REMARK    6  A    between atoms: C_12  and  S_13
REMARK    7  A    between atoms: S_13  and  N_16
REMARK    8  A    between atoms: N_16  and  C_17
REMARK    9  A    between atoms: C_22  and  C_23
REMARK   10  A    between atoms: C_23  and  O_25
REMARK                            x       y       z     vdW  Elec       q    Type
REMARK                         _______ _______ _______ _____ _____    ______ ____
ROOT
ATOM      1  N   UNL     1       0.377  10.575  19.552  0.00  0.00    +0.000 N 
ATOM      2  H   UNL     1      -0.557  10.285  19.860  0.00  0.00    +0.000 HD
ENDROOT
BRANCH   1   3
ATOM      3  C   UNL     1       1.272   9.502  19.245  0.00  0.00    +0.000 A 
ATOM      4  C   UNL     1       1.883   9.443  17.993  0.00  0.00    +0.000 A 
ATOM      5  C   UNL     1       2.581   8.286  17.596  0.00  0.00    +0.000 A 
ATOM      6  C   UNL     1       2.701   7.161  18.447  0.00  0.00    +0.000 A 
ATOM      7  C   UNL     1       2.100   7.224  19.710  0.00  0.00    +0.000 A 
ATOM      8  C   UNL     1       1.402   8.399  20.105  0.00  0.00    +0.000 A 
ATOM      9  C   UNL     1       2.038   6.012  20.595  0.00  0.00    +0.000 C 
ATOM     10  C   UNL     1       2.860   4.788  20.245  0.00  0.00    +0.000 C 
ATOM     11  C   UNL     1       3.624   4.785  18.937  0.00  0.00    +0.000 C 
ATOM     12  C   UNL     1       3.368   5.913  17.937  0.00  0.00    +0.000 C 
BRANCH   8  13
ATOM     13  C   UNL     1       0.740   8.424  21.430  0.00  0.00    +0.000 C 
ATOM     14  O   UNL     1      -0.433   8.221  21.669  0.00  0.00    +0.000 OA
BRANCH  13  15
ATOM     15  O   UNL     1       1.587   8.813  22.402  0.00  0.00    +0.000 OA
ATOM     16  H   UNL     1       0.975   9.015  23.144  0.00  0.00    +0.000 HD
ENDBRANCH  13  15
ENDBRANCH   8  13
ENDBRANCH   1   3
BRANCH   1  17
ATOM     17  S   UNL     1       0.843  12.042  20.240  0.00  0.00    +0.000 S 
ATOM     18  O   UNL     1       1.354  12.833  19.137  0.00  0.00    +0.000 OA
ATOM     19  O   UNL     1       1.681  11.752  21.380  0.00  0.00    +0.000 OA
BRANCH  17  25
ATOM     20  C   UNL     1      -1.892  12.725  20.029  0.00  0.00    +0.000 A 
ATOM     21  C   UNL     1      -3.046  13.341  20.547  0.00  0.00    +0.000 A 
ATOM     22  C   UNL     1      -3.017  14.018  21.770  0.00  0.00    +0.000 A 
ATOM     23  C   UNL     1      -1.840  14.069  22.509  0.00  0.00    +0.000 A 
ATOM     24  C   UNL     1      -0.684  13.468  22.009  0.00  0.00    +0.000 A 
ATOM     25  C   UNL     1      -0.692  12.823  20.752  0.00  0.00    +0.000 A 
BRANCH  20  27
ATOM     26  C   UNL     1      -2.948  11.057  18.530  0.00  0.00    +0.000 C 
ATOM     27  C   UNL     1      -2.027  12.015  18.756  0.00  0.00    +0.000 C 
BRANCH  26  28
ATOM     28  C   UNL     1      -2.933  10.211  17.283  0.00  0.00    +0.000 C 
BRANCH  28  30
ATOM     29  C   UNL     1      -4.735  11.723  16.653  0.00  0.00    +0.000 C 
ATOM     30  N   UNL     1      -4.003  10.500  16.316  0.00  0.00    +0.000 NA
ATOM     31  C   UNL     1      -3.414  10.648  14.977  0.00  0.00    +0.000 C 
ENDBRANCH  28  30
ENDBRANCH  26  28
ENDBRANCH  20  27
ENDBRANCH  17  25
ENDBRANCH   1  17
TORSDOF 8
ENDMDL
MODEL 5
REMARK VINA RESULT:      -7.5      3.170      5.542
REMARK  Name = 
REMARK  10 active torsions:
REMARK  status: ('A' for Active; 'I' for Inactive)
REMARK    1  A    between atoms: C_1  and  N_2
REMARK    2  A    between atoms: N_2  and  C_3
REMARK    3  A    between atoms: N_2  and  C_4
REMARK    4  A    between atoms: C_4  and  C_5
REMARK    5  A    between atoms: C_6  and  C_7
REMARK    6  A    between atoms: C_12  and  S_13
REMARK    7  A    between atoms: S_13  and  N_16
REMARK    8  A    between atoms: N_16  and  C_17
REMARK    9  A    between atoms: C_22  and  C_23
REMARK   10  A    between atoms: C_23  and  O_25
REMARK                            x       y       z     vdW  Elec       q    Type
REMARK                         _______ _______ _______ _____ _____    ______ ____
ROOT
ATOM      1  N   UNL     1      -0.560  10.553  21.133  0.00  0.00    +0.000 N 
ATOM      2  H   UNL     1      -0.442  10.821  20.150  0.00  0.00    +0.000 HD
ENDROOT
BRANCH   1   3
ATOM      3  C   UNL     1      -0.791  11.641  22.033  0.00  0.00    +0.000 A 
ATOM      4  C   UNL     1      -1.800  11.550  22.991  0.00  0.00    +0.000 A 
ATOM      5  C   UNL     1      -2.188  12.686  23.726  0.00  0.00    +0.000 A 
ATOM      6  C   UNL     1      -1.566  13.944  23.535  0.00  0.00    +0.000 A 
ATOM      7  C   UNL     1      -0.544  14.035  22.584  0.00  0.00    +0.000 A 
ATOM      8  C   UNL     1      -0.154  12.880  21.850  0.00  0.00    +0.000 A 
ATOM      9  C   UNL     1       0.040  15.366  22.205  0.00  0.00    +0.000 C 
ATOM     10  C   UNL     1      -0.280  16.588  23.041  0.00  0.00    +0.000 C 
ATOM     11  C   UNL     1      -1.287  16.447  24.165  0.00  0.00    +0.000 C 
ATOM     12  C   UNL     1      -2.086  15.148  24.272  0.00  0.00    +0.000 C 
BRANCH   8  13
ATOM     13  C   UNL     1       0.902  13.013  20.819  0.00  0.00    +0.000 C 
ATOM     14  O   UNL     1       0.753  13.280  19.644  0.00  0.00    +0.000 OA
BRANCH  13  15
ATOM     15  O   UNL     1       2.116  12.694  21.307  0.00  0.00    +0.000 OA
ATOM     16  H   UNL     1       2.613  12.458  20.492  0.00  0.00    +0.000 HD
ENDBRANCH  13  15
ENDBRANCH   8  13
ENDBRANCH   1   3
BRANCH   1  17
ATOM     17  S   UNL     1       0.311   9.163  21.519  0.00  0.00    +0.000 S 
ATOM     18  O   UNL     1      -0.684   8.115  21.649  0.00  0.00    +0.000 OA
ATOM     19  O   UNL     1       1.187   9.478  22.622  0.00  0.00    +0.000 OA
BRANCH  17  25
ATOM     20  C   UNL     1       1.827   7.522  19.785  0.00  0.00    +0.000 A 
ATOM     21  C   UNL     1       2.508   7.323  18.570  0.00  0.00    +0.000 A 
ATOM     22  C   UNL     1       2.599   8.339  17.615  0.00  0.00    +0.000 A 
ATOM     23  C   UNL     1       1.987   9.566  17.847  0.00  0.00    +0.000 A 
ATOM     24  C   UNL     1       1.310   9.786  19.047  0.00  0.00    +0.000 A 
ATOM     25  C   UNL     1       1.254   8.781  20.038  0.00  0.00    +0.000 A 
BRANCH  20  27
ATOM     26  C   UNL     1       2.412   5.227  20.512  0.00  0.00    +0.000 C 
ATOM     27  C   UNL     1       1.761   6.390  20.710  0.00  0.00    +0.000 C 
BRANCH  26  28
ATOM     28  C   UNL     1       2.168   4.016  21.376  0.00  0.00    +0.000 C 
BRANCH  28  30
ATOM     29  C   UNL     1       0.887   2.788  19.710  0.00  0.00    +0.000 C 
ATOM     30  N   UNL     1       2.010   2.747  20.649  0.00  0.00    +0.000 NA
ATOM     31  C   UNL     1       3.245   2.460  19.907  0.00  0.00    +0.000 C 
ENDBRANCH  28  30
ENDBRANCH  26  28
ENDBRANCH  20  27
ENDBRANCH  17  25
ENDBRANCH   1  17
TORSDOF 8
ENDMDL
MODEL 6
REMARK VINA RESULT:      -7.5      0.892      1.011
REMARK  Name = 
REMARK  10 active torsions:
REMARK  status: ('A' for Active; 'I' for Inactive)
REMARK    1  A    between atoms: C_1  and  N_2
REMARK    2  A    between atoms: N_2  and  C_3
REMARK    3  A    between atoms: N_2  and  C_4
REMARK    4  A    between atoms: C_4  and  C_5
REMARK    5  A    between atoms: C_6  and  C_7
REMARK    6  A    between atoms: C_12  and  S_13
REMARK    7  A    between atoms: S_13  and  N_16
REMARK    8  A    between atoms: N_16  and  C_17
REMARK    9  A    between atoms: C_22  and  C_23
REMARK   10  A    between atoms: C_23  and  O_25
REMARK                            x       y       z     vdW  Elec       q    Type
REMARK                         _______ _______ _______ _____ _____    ______ ____
ROOT
ATOM      1  N   UNL     1       1.942   7.145  19.299  0.00  0.00    +0.000 N 
ATOM      2  H   UNL     1       1.141   6.519  19.433  0.00  0.00    +0.000 HD
ENDROOT
BRANCH   1   3
ATOM      3  C   UNL     1       1.606   8.520  19.088  0.00  0.00    +0.000 A 
ATOM      4  C   UNL     1       2.027   9.168  17.927  0.00  0.00    +0.000 A 
ATOM      5  C   UNL     1       1.903  10.566  17.809  0.00  0.00    +0.000 A 
ATOM      6  C   UNL     1       1.341  11.353  18.843  0.00  0.00    +0.000 A 
ATOM      7  C   UNL     1       0.905  10.702  20.002  0.00  0.00    +0.000 A 
ATOM      8  C   UNL     1       1.028   9.289  20.110  0.00  0.00    +0.000 A 
ATOM      9  C   UNL     1       0.459  11.485  21.204  0.00  0.00    +0.000 C 
ATOM     10  C   UNL     1       0.219  12.976  21.078  0.00  0.00    +0.000 C 
ATOM     11  C   UNL     1       0.562  13.651  19.765  0.00  0.00    +0.000 C 
ATOM     12  C   UNL     1       1.325  12.852  18.709  0.00  0.00    +0.000 C 
BRANCH   8  13
ATOM     13  C   UNL     1       0.597   8.630  21.365  0.00  0.00    +0.000 C 
ATOM     14  O   UNL     1      -0.537   8.350  21.698  0.00  0.00    +0.000 OA
BRANCH  13  15
ATOM     15  O   UNL     1       1.631   8.443  22.209  0.00  0.00    +0.000 OA
ATOM     16  H   UNL     1       1.719   9.326  22.631  0.00  0.00    +0.000 HD
ENDBRANCH  13  15
ENDBRANCH   8  13
ENDBRANCH   1   3
BRANCH   1  17
ATOM     17  S   UNL     1       3.246   6.358  18.577  0.00  0.00    +0.000 S 
ATOM     18  O   UNL     1       4.293   6.356  19.581  0.00  0.00    +0.000 OA
ATOM     19  O   UNL     1       3.474   6.966  17.286  0.00  0.00    +0.000 OA
BRANCH  17  25
ATOM     20  C   UNL     1       3.479   3.665  17.749  0.00  0.00    +0.000 A 
ATOM     21  C   UNL     1       2.985   2.348  17.706  0.00  0.00    +0.000 A 
ATOM     22  C   UNL     1       1.774   2.009  18.317  0.00  0.00    +0.000 A 
ATOM     23  C   UNL     1       1.047   2.976  19.003  0.00  0.00    +0.000 A 
ATOM     24  C   UNL     1       1.518   4.288  19.052  0.00  0.00    +0.000 A 
ATOM     25  C   UNL     1       2.717   4.651  18.398  0.00  0.00    +0.000 A 
BRANCH  20  27
ATOM     26  C   UNL     1       5.917   4.109  17.787  0.00  0.00    +0.000 C 
ATOM     27  C   UNL     1       4.770   3.917  17.106  0.00  0.00    +0.000 C 
BRANCH  26  28
ATOM     28  C   UNL     1       7.184   4.560  17.107  0.00  0.00    +0.000 C 
BRANCH  28  30
ATOM     29  C   UNL     1       7.016   6.987  17.211  0.00  0.00    +0.000 C 
ATOM     30  N   UNL     1       7.769   5.804  17.632  0.00  0.00    +0.000 NA
ATOM     31  C   UNL     1       7.788   5.744  19.100  0.00  0.00    +0.000 C 
ENDBRANCH  28  30
ENDBRANCH  26  28
ENDBRANCH  20  27
ENDBRANCH  17  25
ENDBRANCH   1  17
TORSDOF 8
ENDMDL
MODEL 7
REMARK VINA RESULT:      -7.4      3.998      9.202
REMARK  Name = 
REMARK  10 active torsions:
REMARK  status: ('A' for Active; 'I' for Inactive)
REMARK    1  A    between atoms: C_1  and  N_2
REMARK    2  A    between atoms: N_2  and  C_3
REMARK    3  A    between atoms: N_2  and  C_4
REMARK    4  A    between atoms: C_4  and  C_5
REMARK    5  A    between atoms: C_6  and  C_7
REMARK    6  A    between atoms: C_12  and  S_13
REMARK    7  A    between atoms: S_13  and  N_16
REMARK    8  A    between atoms: N_16  and  C_17
REMARK    9  A    between atoms: C_22  and  C_23
REMARK   10  A    between atoms: C_23  and  O_25
REMARK                            x       y       z     vdW  Elec       q    Type
REMARK                         _______ _______ _______ _____ _____    ______ ____
ROOT
ATOM      1  N   UNL     1       0.393  11.297  20.168  0.00  0.00    +0.000 N 
ATOM      2  H   UNL     1       0.964  12.102  20.441  0.00  0.00    +0.000 HD
ENDROOT
BRANCH   1   3
ATOM      3  C   UNL     1       1.127  10.177  19.665  0.00  0.00    +0.000 A 
ATOM      4  C   UNL     1       1.550  10.162  18.336  0.00  0.00    +0.000 A 
ATOM      5  C   UNL     1       2.069   8.983  17.768  0.00  0.00    +0.000 A 
ATOM      6  C   UNL     1       2.194   7.788  18.517  0.00  0.00    +0.000 A 
ATOM      7  C   UNL     1       1.783   7.805  19.855  0.00  0.00    +0.000 A 
ATOM      8  C   UNL     1       1.266   9.003  20.423  0.00  0.00    +0.000 A 
ATOM      9  C   UNL     1       1.724   6.537  20.659  0.00  0.00    +0.000 C 
ATOM     10  C   UNL     1       2.365   5.277  20.115  0.00  0.00    +0.000 C 
ATOM     11  C   UNL     1       2.938   5.309  18.712  0.00  0.00    +0.000 C 
ATOM     12  C   UNL     1       2.658   6.530  17.836  0.00  0.00    +0.000 C 
BRANCH   8  13
ATOM     13  C   UNL     1       0.799   8.981  21.829  0.00  0.00    +0.000 C 
ATOM     14  O   UNL     1      -0.337   8.809  22.224  0.00  0.00    +0.000 OA
BRANCH  13  15
ATOM     15  O   UNL     1       1.790   9.288  22.687  0.00  0.00    +0.000 OA
ATOM     16  H   UNL     1       1.296   9.647  23.458  0.00  0.00    +0.000 HD
ENDBRANCH  13  15
ENDBRANCH   8  13
ENDBRANCH   1   3
BRANCH   1  17
ATOM     17  S   UNL     1      -1.135  11.760  19.625  0.00  0.00    +0.000 S 
ATOM     18  O   UNL     1      -1.729  10.552  19.085  0.00  0.00    +0.000 OA
ATOM     19  O   UNL     1      -0.976  12.930  18.793  0.00  0.00    +0.000 OA
BRANCH  17  25
ATOM     20  C   UNL     1      -3.373  12.647  21.108  0.00  0.00    +0.000 A 
ATOM     21  C   UNL     1      -4.015  12.878  22.338  0.00  0.00    +0.000 A 
ATOM     22  C   UNL     1      -3.378  12.600  23.551  0.00  0.00    +0.000 A 
ATOM     23  C   UNL     1      -2.096  12.062  23.555  0.00  0.00    +0.000 A 
ATOM     24  C   UNL     1      -1.440  11.830  22.345  0.00  0.00    +0.000 A 
ATOM     25  C   UNL     1      -2.057  12.152  21.116  0.00  0.00    +0.000 A 
BRANCH  20  27
ATOM     26  C   UNL     1      -5.111  12.151  19.413  0.00  0.00    +0.000 C 
ATOM     27  C   UNL     1      -4.131  12.942  19.891  0.00  0.00    +0.000 C 
BRANCH  26  28
ATOM     28  C   UNL     1      -5.734  12.377  18.059  0.00  0.00    +0.000 C 
BRANCH  28  30
ATOM     29  C   UNL     1      -6.772  13.981  16.550  0.00  0.00    +0.000 C 
ATOM     30  N   UNL     1      -6.566  13.585  17.945  0.00  0.00    +0.000 NA
ATOM     31  C   UNL     1      -7.872  13.330  18.569  0.00  0.00    +0.000 C 
ENDBRANCH  28  30
ENDBRANCH  26  28
ENDBRANCH  20  27
ENDBRANCH  17  25
ENDBRANCH   1  17
TORSDOF 8
ENDMDL
MODEL 8
REMARK VINA RESULT:      -7.4      3.415      8.145
REMARK  Name = 
REMARK  10 active torsions:
REMARK  status: ('A' for Active; 'I' for Inactive)
REMARK    1  A    between atoms: C_1  and  N_2
REMARK    2  A    between atoms: N_2  and  C_3
REMARK    3  A    between atoms: N_2  and  C_4
REMARK    4  A    between atoms: C_4  and  C_5
REMARK    5  A    between atoms: C_6  and  C_7
REMARK    6  A    between atoms: C_12  and  S_13
REMARK    7  A    between atoms: S_13  and  N_16
REMARK    8  A    between atoms: N_16  and  C_17
REMARK    9  A    between atoms: C_22  and  C_23
REMARK   10  A    between atoms: C_23  and  O_25
REMARK                            x       y       z     vdW  Elec       q    Type
REMARK                         _______ _______ _______ _____ _____    ______ ____
ROOT
ATOM      1  N   UNL     1       0.109  10.756  19.499  0.00  0.00    +0.000 N 
ATOM      2  H   UNL     1      -0.851  10.442  19.673  0.00  0.00    +0.000 HD
ENDROOT
BRANCH   1   3
ATOM      3  C   UNL     1       1.050   9.711  19.239  0.00  0.00    +0.000 A 
ATOM      4  C   UNL     1       1.676   9.631  17.996  0.00  0.00    +0.000 A 
ATOM      5  C   UNL     1       2.425   8.490  17.648  0.00  0.00    +0.000 A 
ATOM      6  C   UNL     1       2.581   7.402  18.541  0.00  0.00    +0.000 A 
ATOM      7  C   UNL     1       1.965   7.486  19.795  0.00  0.00    +0.000 A 
ATOM      8  C   UNL     1       1.216   8.646  20.140  0.00  0.00    +0.000 A 
ATOM      9  C   UNL     1       1.941   6.305  20.722  0.00  0.00    +0.000 C 
ATOM     10  C   UNL     1       2.816   5.104  20.426  0.00  0.00    +0.000 C 
ATOM     11  C   UNL     1       3.594   5.084  19.125  0.00  0.00    +0.000 C 
ATOM     12  C   UNL     1       3.304   6.164  18.083  0.00  0.00    +0.000 C 
BRANCH   8  13
ATOM     13  C   UNL     1       0.539   8.691  21.457  0.00  0.00    +0.000 C 
ATOM     14  O   UNL     1       1.042   8.936  22.534  0.00  0.00    +0.000 OA
BRANCH  13  15
ATOM     15  O   UNL     1      -0.752   8.315  21.367  0.00  0.00    +0.000 OA
ATOM     16  H   UNL     1      -0.800   7.576  22.013  0.00  0.00    +0.000 HD
ENDBRANCH  13  15
ENDBRANCH   8  13
ENDBRANCH   1   3
BRANCH   1  17
ATOM     17  S   UNL     1       0.468  12.181  20.324  0.00  0.00    +0.000 S 
ATOM     18  O   UNL     1       0.543  13.205  19.300  0.00  0.00    +0.000 OA
ATOM     19  O   UNL     1       1.599  11.925  21.185  0.00  0.00    +0.000 OA
BRANCH  17  25
ATOM     20  C   UNL     1      -2.300  12.573  20.748  0.00  0.00    +0.000 A 
ATOM     21  C   UNL     1      -3.386  12.823  21.607  0.00  0.00    +0.000 A 
ATOM     22  C   UNL     1      -3.195  13.011  22.979  0.00  0.00    +0.000 A 
ATOM     23  C   UNL     1      -1.917  12.928  23.520  0.00  0.00    +0.000 A 
ATOM     24  C   UNL     1      -0.827  12.686  22.684  0.00  0.00    +0.000 A 
ATOM     25  C   UNL     1      -1.004  12.542  21.290  0.00  0.00    +0.000 A 
BRANCH  20  27
ATOM     26  C   UNL     1      -3.757  11.826  18.887  0.00  0.00    +0.000 C 
ATOM     27  C   UNL     1      -2.602  12.360  19.331  0.00  0.00    +0.000 C 
BRANCH  26  28
ATOM     28  C   UNL     1      -3.957  11.440  17.444  0.00  0.00    +0.000 C 
BRANCH  28  30
ATOM     29  C   UNL     1      -2.292   9.679  17.206  0.00  0.00    +0.000 C 
ATOM     30  N   UNL     1      -2.746  10.992  16.740  0.00  0.00    +0.000 NA
ATOM     31  C   UNL     1      -3.026  10.918  15.300  0.00  0.00    +0.000 C 
ENDBRANCH  28  30
ENDBRANCH  26  28
ENDBRANCH  20  27
ENDBRANCH  17  25
ENDBRANCH   1  17
TORSDOF 8
ENDMDL
MODEL 9
REMARK VINA RESULT:      -7.4      2.572      4.539
REMARK  Name = 
REMARK  10 active torsions:
REMARK  status: ('A' for Active; 'I' for Inactive)
REMARK    1  A    between atoms: C_1  and  N_2
REMARK    2  A    between atoms: N_2  and  C_3
REMARK    3  A    between atoms: N_2  and  C_4
REMARK    4  A    between atoms: C_4  and  C_5
REMARK    5  A    between atoms: C_6  and  C_7
REMARK    6  A    between atoms: C_12  and  S_13
REMARK    7  A    between atoms: S_13  and  N_16
REMARK    8  A    between atoms: N_16  and  C_17
REMARK    9  A    between atoms: C_22  and  C_23
REMARK   10  A    between atoms: C_23  and  O_25
REMARK                            x       y       z     vdW  Elec       q    Type
REMARK                         _______ _______ _______ _____ _____    ______ ____
ROOT
ATOM      1  N   UNL     1       3.190   4.945  18.052  0.00  0.00    +0.000 N 
ATOM      2  H   UNL     1       2.874   4.507  17.180  0.00  0.00    +0.000 HD
ENDROOT
BRANCH   1   3
ATOM      3  C   UNL     1       2.563   6.192  18.364  0.00  0.00    +0.000 A 
ATOM      4  C   UNL     1       2.739   7.289  17.522  0.00  0.00    +0.000 A 
ATOM      5  C   UNL     1       2.322   8.572  17.928  0.00  0.00    +0.000 A 
ATOM      6  C   UNL     1       1.704   8.791  19.183  0.00  0.00    +0.000 A 
ATOM      7  C   UNL     1       1.513   7.688  20.023  0.00  0.00    +0.000 A 
ATOM      8  C   UNL     1       1.932   6.395  19.602  0.00  0.00    +0.000 A 
ATOM      9  C   UNL     1       1.024   7.869  21.432  0.00  0.00    +0.000 C 
ATOM     10  C   UNL     1       0.475   9.213  21.866  0.00  0.00    +0.000 C 
ATOM     11  C   UNL     1       0.556  10.371  20.893  0.00  0.00    +0.000 C 
ATOM     12  C   UNL     1       1.370  10.194  19.611  0.00  0.00    +0.000 C 
BRANCH   8  13
ATOM     13  C   UNL     1       1.757   5.252  20.529  0.00  0.00    +0.000 C 
ATOM     14  O   UNL     1       0.768   4.562  20.667  0.00  0.00    +0.000 OA
BRANCH  13  15
ATOM     15  O   UNL     1       2.828   5.093  21.331  0.00  0.00    +0.000 OA
ATOM     16  H   UNL     1       3.388   4.474  20.812  0.00  0.00    +0.000 HD
ENDBRANCH  13  15
ENDBRANCH   8  13
ENDBRANCH   1   3
BRANCH   1  17
ATOM     17  S   UNL     1       4.794   4.567  18.404  0.00  0.00    +0.000 S 
ATOM     18  O   UNL     1       4.797   3.145  18.687  0.00  0.00    +0.000 OA
ATOM     19  O   UNL     1       5.267   5.509  19.391  0.00  0.00    +0.000 OA
BRANCH  17  25
ATOM     20  C   UNL     1       6.836   5.547  16.710  0.00  0.00    +0.000 A 
ATOM     21  C   UNL     1       7.465   5.602  15.453  0.00  0.00    +0.000 A 
ATOM     22  C   UNL     1       6.966   4.884  14.361  0.00  0.00    +0.000 A 
ATOM     23  C   UNL     1       5.842   4.079  14.515  0.00  0.00    +0.000 A 
ATOM     24  C   UNL     1       5.202   4.015  15.753  0.00  0.00    +0.000 A 
ATOM     25  C   UNL     1       5.671   4.773  16.849  0.00  0.00    +0.000 A 
BRANCH  20  27
ATOM     26  C   UNL     1       7.793   7.608  17.698  0.00  0.00    +0.000 C 
ATOM     27  C   UNL     1       7.449   6.309  17.799  0.00  0.00    +0.000 C 
BRANCH  26  28
ATOM     28  C   UNL     1       8.598   8.308  18.763  0.00  0.00    +0.000 C 
BRANCH  28  30
ATOM     29  C   UNL     1       9.672  10.441  19.235  0.00  0.00    +0.000 C 
ATOM     30  N   UNL     1       8.443   9.770  18.808  0.00  0.00    +0.000 NA
ATOM     31  C   UNL     1       8.071  10.256  17.472  0.00  0.00    +0.000 C 
ENDBRANCH  28  30
ENDBRANCH  26  28
ENDBRANCH  20  27
ENDBRANCH  17  25
ENDBRANCH   1  17
TORSDOF 8
ENDMDL
