MODEL 1
REMARK VINA RESULT:      -6.0      0.000      0.000
REMARK  Name = 
REMARK  5 active torsions:
REMARK  status: ('A' for Active; 'I' for Inactive)
REMARK    1  A    between atoms: N_1  and  CA_2
REMARK    2  A    between atoms: CA_2  and  C_3
REMARK    3  A    between atoms: CA_2  and  C_12
REMARK    4  A    between atoms: C_3  and  N_4
REMARK    5  A    between atoms: C_12  and  OXT_14
REMARK                            x       y       z     vdW  Elec       q    Type
REMARK                         _______ _______ _______ _____ _____    ______ ____
ROOT
ATOM      1  C   UNL     1       5.228   5.490  18.541  0.00  0.00    +0.000 C 
ENDROOT
BRANCH   1   2
ATOM      2  N   UNL     1       4.051   4.619  18.439  0.00  0.00    +0.000 N 
ATOM      3  C   UNL     1       2.947   5.051  17.733  0.00  0.00    +0.000 A 
ATOM      4  C   UNL     1       1.818   4.342  17.685  0.00  0.00    +0.000 A 
ATOM      5  C   UNL     1       1.748   3.070  18.421  0.00  0.00    +0.000 A 
ATOM      6  O   UNL     1       0.702   2.436  18.492  0.00  0.00    +0.000 OA
ATOM      7  N   UNL     1       2.910   2.663  19.010  0.00  0.00    +0.000 N 
ATOM      8  C   UNL     1       4.076   3.381  19.072  0.00  0.00    +0.000 A 
ATOM      9  O   UNL     1       5.057   2.941  19.667  0.00  0.00    +0.000 OA
ATOM     10  H   UNL     1       2.886   1.791  19.516  0.00  0.00    +0.000 HD
ENDBRANCH   1   2
BRANCH   1  11
ATOM     11  CA  UNL     1       5.971   5.711  17.207  0.00  0.00    +0.000 C 
BRANCH  11  12
ATOM     12  N   UNL     1       6.417   7.114  17.007  0.00  0.00    +0.000 NA
ATOM     13  H1  UNL     1       7.435   7.156  16.935  0.00  0.00    +0.000 HD
ATOM     14  H2  UNL     1       6.190   7.650  17.849  0.00  0.00    +0.000 HD
ENDBRANCH  11  12
BRANCH  11  15
ATOM     15  C   UNL     1       7.201   4.795  17.188  0.00  0.00    +0.000 C 
ATOM     16  O   UNL     1       7.847   4.513  16.189  0.00  0.00    +0.000 OA
BRANCH  15  17
ATOM     17  OXT UNL     1       7.449   4.220  18.392  0.00  0.00    +0.000 OA
ATOM     18  HXT UNL     1       7.438   3.244  18.372  0.00  0.00    +0.000 HD
ENDBRANCH  15  17
ENDBRANCH  11  15
ENDBRANCH   1  11
TORSDOF 5
ENDMDL
MODEL 2
REMARK VINA RESULT:      -6.0      1.713      5.243
REMARK  Name = 
REMARK  5 active torsions:
REMARK  status: ('A' for Active; 'I' for Inactive)
REMARK    1  A    between atoms: N_1  and  CA_2
REMARK    2  A    between atoms: CA_2  and  C_3
REMARK    3  A    between atoms: CA_2  and  C_12
REMARK    4  A    between atoms: C_3  and  N_4
REMARK    5  A    between atoms: C_12  and  OXT_14
REMARK                            x       y       z     vdW  Elec       q    Type
REMARK                         _______ _______ _______ _____ _____    ______ ____
ROOT
ATOM      1  C   UNL     1       4.441   3.433  18.450  0.00  0.00    +0.000 C 
ENDROOT
BRANCH   1   2
ATOM      2  N   UNL     1       5.292   4.057  17.429  0.00  0.00    +0.000 N 
ATOM      3  C   UNL     1       4.844   4.128  16.125  0.00  0.00    +0.000 A 
ATOM      4  C   UNL     1       5.611   4.600  15.140  0.00  0.00    +0.000 A 
ATOM      5  C   UNL     1       6.978   5.040  15.456  0.00  0.00    +0.000 A 
ATOM      6  O   UNL     1       7.754   5.382  14.571  0.00  0.00    +0.000 OA
ATOM      7  N   UNL     1       7.312   5.033  16.780  0.00  0.00    +0.000 N 
ATOM      8  C   UNL     1       6.537   4.548  17.802  0.00  0.00    +0.000 A 
ATOM      9  O   UNL     1       6.950   4.547  18.960  0.00  0.00    +0.000 OA
ATOM     10  H   UNL     1       8.243   5.335  17.020  0.00  0.00    +0.000 HD
ENDBRANCH   1   2
BRANCH   1  11
ATOM     11  CA  UNL     1       3.537   2.302  17.915  0.00  0.00    +0.000 C 
BRANCH  11  12
ATOM     12  N   UNL     1       3.960   0.950  18.363  0.00  0.00    +0.000 NA
ATOM     13  H1  UNL     1       4.654   1.024  19.108  0.00  0.00    +0.000 HD
ATOM     14  H2  UNL     1       4.449   0.490  17.591  0.00  0.00    +0.000 HD
ENDBRANCH  11  12
BRANCH  11  15
ATOM     15  C   UNL     1       2.107   2.561  18.409  0.00  0.00    +0.000 C 
ATOM     16  O   UNL     1       1.585   1.998  19.361  0.00  0.00    +0.000 OA
BRANCH  15  17
ATOM     17  OXT UNL     1       1.417   3.409  17.607  0.00  0.00    +0.000 OA
ATOM     18  HXT UNL     1       0.555   3.684  17.974  0.00  0.00    +0.000 HD
ENDBRANCH  15  17
ENDBRANCH  11  15
ENDBRANCH   1  11
TORSDOF 5
ENDMDL
MODEL 3
REMARK VINA RESULT:      -5.8      1.751      1.875
REMARK  Name = 
REMARK  5 active torsions:
REMARK  status: ('A' for Active; 'I' for Inactive)
REMARK    1  A    between atoms: N_1  and  CA_2
REMARK    2  A    between atoms: CA_2  and  C_3
REMARK    3  A    between atoms: CA_2  and  C_12
REMARK    4  A    between atoms: C_3  and  N_4
REMARK    5  A    between atoms: C_12  and  OXT_14
REMARK                            x       y       z     vdW  Elec       q    Type
REMARK                         _______ _______ _______ _____ _____    ______ ____
ROOT
ATOM      1  C   UNL     1       4.857   4.896  16.639  0.00  0.00    +0.000 C 
ENDROOT
BRANCH   1   2
ATOM      2  N   UNL     1       4.107   4.070  17.593  0.00  0.00    +0.000 N 
ATOM      3  C   UNL     1       2.848   3.616  17.254  0.00  0.00    +0.000 A 
ATOM      4  C   UNL     1       2.085   2.941  18.115  0.00  0.00    +0.000 A 
ATOM      5  C   UNL     1       2.598   2.691  19.470  0.00  0.00    +0.000 A 
ATOM      6  O   UNL     1       1.894   2.168  20.327  0.00  0.00    +0.000 OA
ATOM      7  N   UNL     1       3.886   3.082  19.698  0.00  0.00    +0.000 N 
ATOM      8  C   UNL     1       4.681   3.779  18.825  0.00  0.00    +0.000 A 
ATOM      9  O   UNL     1       5.817   4.123  19.145  0.00  0.00    +0.000 OA
ATOM     10  H   UNL     1       4.259   2.916  20.619  0.00  0.00    +0.000 HD
ENDBRANCH   1   2
BRANCH   1  11
ATOM     11  CA  UNL     1       5.791   4.096  15.707  0.00  0.00    +0.000 C 
BRANCH  11  12
ATOM     12  N   UNL     1       5.396   4.166  14.277  0.00  0.00    +0.000 NA
ATOM     13  H1  UNL     1       5.321   5.139  13.977  0.00  0.00    +0.000 HD
ATOM     14  H2  UNL     1       4.450   3.787  14.182  0.00  0.00    +0.000 HD
ENDBRANCH  11  12
BRANCH  11  15
ATOM     15  C   UNL     1       7.210   4.660  15.855  0.00  0.00    +0.000 C 
ATOM     16  O   UNL     1       7.753   5.405  15.051  0.00  0.00    +0.000 OA
BRANCH  15  17
ATOM     17  OXT UNL     1       7.869   4.157  16.928  0.00  0.00    +0.000 OA
ATOM     18  HXT UNL     1       8.669   4.662  17.172  0.00  0.00    +0.000 HD
ENDBRANCH  15  17
ENDBRANCH  11  15
ENDBRANCH   1  11
TORSDOF 5
ENDMDL
MODEL 4
REMARK VINA RESULT:      -5.8      1.847      5.038
REMARK  Name = 
REMARK  5 active torsions:
REMARK  status: ('A' for Active; 'I' for Inactive)
REMARK    1  A    between atoms: N_1  and  CA_2
REMARK    2  A    between atoms: CA_2  and  C_3
REMARK    3  A    between atoms: CA_2  and  C_12
REMARK    4  A    between atoms: C_3  and  N_4
REMARK    5  A    between atoms: C_12  and  OXT_14
REMARK                            x       y       z     vdW  Elec       q    Type
REMARK                         _______ _______ _______ _____ _____    ______ ____
ROOT
ATOM      1  C   UNL     1       4.049   4.458  19.484  0.00  0.00    +0.000 C 
ENDROOT
BRANCH   1   2
ATOM      2  N   UNL     1       4.954   4.865  18.402  0.00  0.00    +0.000 N 
ATOM      3  C   UNL     1       4.479   4.929  17.108  0.00  0.00    +0.000 A 
ATOM      4  C   UNL     1       5.277   5.202  16.075  0.00  0.00    +0.000 A 
ATOM      5  C   UNL     1       6.709   5.425  16.326  0.00  0.00    +0.000 A 
ATOM      6  O   UNL     1       7.499   5.575  15.401  0.00  0.00    +0.000 OA
ATOM      7  N   UNL     1       7.084   5.444  17.639  0.00  0.00    +0.000 N 
ATOM      8  C   UNL     1       6.277   5.162  18.710  0.00  0.00    +0.000 A 
ATOM      9  O   UNL     1       6.725   5.164  19.855  0.00  0.00    +0.000 OA
ATOM     10  H   UNL     1       8.061   5.600  17.834  0.00  0.00    +0.000 HD
ENDBRANCH   1   2
BRANCH   1  11
ATOM     11  CA  UNL     1       3.852   2.933  19.604  0.00  0.00    +0.000 C 
BRANCH  11  12
ATOM     12  N   UNL     1       5.081   2.213  20.028  0.00  0.00    +0.000 NA
ATOM     13  H1  UNL     1       5.771   2.215  19.275  0.00  0.00    +0.000 HD
ATOM     14  H2  UNL     1       4.848   1.227  20.171  0.00  0.00    +0.000 HD
ENDBRANCH  11  12
BRANCH  11  15
ATOM     15  C   UNL     1       2.748   2.674  20.638  0.00  0.00    +0.000 C 
ATOM     16  O   UNL     1       2.929   2.579  21.844  0.00  0.00    +0.000 OA
BRANCH  15  17
ATOM     17  OXT UNL     1       1.538   2.442  20.071  0.00  0.00    +0.000 OA
ATOM     18  HXT UNL     1       0.841   3.061  20.362  0.00  0.00    +0.000 HD
ENDBRANCH  15  17
ENDBRANCH  11  15
ENDBRANCH   1  11
TORSDOF 5
ENDMDL
MODEL 5
REMARK VINA RESULT:      -5.8      1.906      4.984
REMARK  Name = 
REMARK  5 active torsions:
REMARK  status: ('A' for Active; 'I' for Inactive)
REMARK    1  A    between atoms: N_1  and  CA_2
REMARK    2  A    between atoms: CA_2  and  C_3
REMARK    3  A    between atoms: CA_2  and  C_12
REMARK    4  A    between atoms: C_3  and  N_4
REMARK    5  A    between atoms: C_12  and  OXT_14
REMARK                            x       y       z     vdW  Elec       q    Type
REMARK                         _______ _______ _______ _____ _____    ______ ____
ROOT
ATOM      1  C   UNL     1       4.997   4.412  19.181  0.00  0.00    +0.000 C 
ENDROOT
BRANCH   1   2
ATOM      2  N   UNL     1       5.662   4.722  17.909  0.00  0.00    +0.000 N 
ATOM      3  C   UNL     1       4.898   4.929  16.778  0.00  0.00    +0.000 A 
ATOM      4  C   UNL     1       5.449   5.122  15.579  0.00  0.00    +0.000 A 
ATOM      5  C   UNL     1       6.916   5.098  15.462  0.00  0.00    +0.000 A 
ATOM      6  O   UNL     1       7.464   5.167  14.368  0.00  0.00    +0.000 OA
ATOM      7  N   UNL     1       7.602   4.989  16.637  0.00  0.00    +0.000 N 
ATOM      8  C   UNL     1       7.050   4.786  17.875  0.00  0.00    +0.000 A 
ATOM      9  O   UNL     1       7.762   4.657  18.869  0.00  0.00    +0.000 OA
ATOM     10  H   UNL     1       8.608   4.975  16.580  0.00  0.00    +0.000 HD
ENDBRANCH   1   2
BRANCH   1  11
ATOM     11  CA  UNL     1       4.304   3.033  19.213  0.00  0.00    +0.000 C 
BRANCH  11  12
ATOM     12  N   UNL     1       5.082   2.001  19.947  0.00  0.00    +0.000 NA
ATOM     13  H1  UNL     1       5.152   1.148  19.391  0.00  0.00    +0.000 HD
ATOM     14  H2  UNL     1       4.556   1.731  20.782  0.00  0.00    +0.000 HD
ENDBRANCH  11  12
BRANCH  11  15
ATOM     15  C   UNL     1       2.941   3.201  19.896  0.00  0.00    +0.000 C 
ATOM     16  O   UNL     1       2.002   3.834  19.435  0.00  0.00    +0.000 OA
BRANCH  15  17
ATOM     17  OXT UNL     1       2.904   2.663  21.141  0.00  0.00    +0.000 OA
ATOM     18  HXT UNL     1       2.400   1.829  21.195  0.00  0.00    +0.000 HD
ENDBRANCH  15  17
ENDBRANCH  11  15
ENDBRANCH   1  11
TORSDOF 5
ENDMDL
MODEL 6
REMARK VINA RESULT:      -5.8      2.064      5.040
REMARK  Name = 
REMARK  5 active torsions:
REMARK  status: ('A' for Active; 'I' for Inactive)
REMARK    1  A    between atoms: N_1  and  CA_2
REMARK    2  A    between atoms: CA_2  and  C_3
REMARK    3  A    between atoms: CA_2  and  C_12
REMARK    4  A    between atoms: C_3  and  N_4
REMARK    5  A    between atoms: C_12  and  OXT_14
REMARK                            x       y       z     vdW  Elec       q    Type
REMARK                         _______ _______ _______ _____ _____    ______ ____
ROOT
ATOM      1  C   UNL     1       2.710   4.487  19.044  0.00  0.00    +0.000 C 
ENDROOT
BRANCH   1   2
ATOM      2  N   UNL     1       4.062   4.693  18.510  0.00  0.00    +0.000 N 
ATOM      3  C   UNL     1       4.292   5.730  17.629  0.00  0.00    +0.000 A 
ATOM      4  C   UNL     1       5.476   5.908  17.041  0.00  0.00    +0.000 A 
ATOM      5  C   UNL     1       6.560   4.957  17.331  0.00  0.00    +0.000 A 
ATOM      6  O   UNL     1       7.631   5.018  16.737  0.00  0.00    +0.000 OA
ATOM      7  N   UNL     1       6.287   4.021  18.285  0.00  0.00    +0.000 N 
ATOM      8  C   UNL     1       5.075   3.823  18.895  0.00  0.00    +0.000 A 
ATOM      9  O   UNL     1       4.922   2.919  19.714  0.00  0.00    +0.000 OA
ATOM     10  H   UNL     1       7.018   3.362  18.503  0.00  0.00    +0.000 HD
ENDBRANCH   1   2
BRANCH   1  11
ATOM     11  CA  UNL     1       2.554   4.864  20.532  0.00  0.00    +0.000 C 
BRANCH  11  12
ATOM     12  N   UNL     1       1.837   6.149  20.741  0.00  0.00    +0.000 NA
ATOM     13  H1  UNL     1       1.018   6.007  21.333  0.00  0.00    +0.000 HD
ATOM     14  H2  UNL     1       1.462   6.462  19.841  0.00  0.00    +0.000 HD
ENDBRANCH  11  12
BRANCH  11  15
ATOM     15  C   UNL     1       1.770   3.744  21.229  0.00  0.00    +0.000 C 
ATOM     16  O   UNL     1       2.156   3.129  22.212  0.00  0.00    +0.000 OA
BRANCH  15  17
ATOM     17  OXT UNL     1       0.630   3.411  20.573  0.00  0.00    +0.000 OA
ATOM     18  HXT UNL     1       0.374   4.049  19.879  0.00  0.00    +0.000 HD
ENDBRANCH  15  17
ENDBRANCH  11  15
ENDBRANCH   1  11
TORSDOF 5
ENDMDL
MODEL 7
REMARK VINA RESULT:      -5.8      0.609      1.036
REMARK  Name = 
REMARK  5 active torsions:
REMARK  status: ('A' for Active; 'I' for Inactive)
REMARK    1  A    between atoms: N_1  and  CA_2
REMARK    2  A    between atoms: CA_2  and  C_3
REMARK    3  A    between atoms: CA_2  and  C_12
REMARK    4  A    between atoms: C_3  and  N_4
REMARK    5  A    between atoms: C_12  and  OXT_14
REMARK                            x       y       z     vdW  Elec       q    Type
REMARK                         _______ _______ _______ _____ _____    ______ ____
ROOT
ATOM      1  C   UNL     1       5.252   4.701  18.695  0.00  0.00    +0.000 C 
ENDROOT
BRANCH   1   2
ATOM      2  N   UNL     1       3.979   3.972  18.623  0.00  0.00    +0.000 N 
ATOM      3  C   UNL     1       2.946   4.486  17.865  0.00  0.00    +0.000 A 
ATOM      4  C   UNL     1       1.740   3.917  17.837  0.00  0.00    +0.000 A 
ATOM      5  C   UNL     1       1.504   2.716  18.654  0.00  0.00    +0.000 A 
ATOM      6  O   UNL     1       0.387   2.220  18.742  0.00  0.00    +0.000 OA
ATOM      7  N   UNL     1       2.599   2.212  19.295  0.00  0.00    +0.000 N 
ATOM      8  C   UNL     1       3.843   2.787  19.336  0.00  0.00    +0.000 A 
ATOM      9  O   UNL     1       4.754   2.273  19.982  0.00  0.00    +0.000 OA
ATOM     10  H   UNL     1       2.461   1.387  19.857  0.00  0.00    +0.000 HD
ENDBRANCH   1   2
BRANCH   1  11
ATOM     11  CA  UNL     1       5.844   5.077  17.320  0.00  0.00    +0.000 C 
BRANCH  11  12
ATOM     12  N   UNL     1       5.788   6.534  17.036  0.00  0.00    +0.000 NA
ATOM     13  H1  UNL     1       5.091   6.728  16.316  0.00  0.00    +0.000 HD
ATOM     14  H2  UNL     1       6.680   6.819  16.622  0.00  0.00    +0.000 HD
ENDBRANCH  11  12
BRANCH  11  15
ATOM     15  C   UNL     1       7.310   4.625  17.293  0.00  0.00    +0.000 C 
ATOM     16  O   UNL     1       7.998   4.425  18.284  0.00  0.00    +0.000 OA
BRANCH  15  17
ATOM     17  OXT UNL     1       7.823   4.574  16.038  0.00  0.00    +0.000 OA
ATOM     18  HXT UNL     1       7.683   3.718  15.589  0.00  0.00    +0.000 HD
ENDBRANCH  15  17
ENDBRANCH  11  15
ENDBRANCH   1  11
TORSDOF 5
ENDMDL
MODEL 8
REMARK VINA RESULT:      -5.8      1.216      1.258
REMARK  Name = 
REMARK  5 active torsions:
REMARK  status: ('A' for Active; 'I' for Inactive)
REMARK    1  A    between atoms: N_1  and  CA_2
REMARK    2  A    between atoms: CA_2  and  C_3
REMARK    3  A    between atoms: CA_2  and  C_12
REMARK    4  A    between atoms: C_3  and  N_4
REMARK    5  A    between atoms: C_12  and  OXT_14
REMARK                            x       y       z     vdW  Elec       q    Type
REMARK                         _______ _______ _______ _____ _____    ______ ____
ROOT
ATOM      1  C   UNL     1       4.802   5.948  17.726  0.00  0.00    +0.000 C 
ENDROOT
BRANCH   1   2
ATOM      2  N   UNL     1       3.981   4.805  18.144  0.00  0.00    +0.000 N 
ATOM      3  C   UNL     1       2.668   4.724  17.726  0.00  0.00    +0.000 A 
ATOM      4  C   UNL     1       1.850   3.759  18.149  0.00  0.00    +0.000 A 
ATOM      5  C   UNL     1       2.364   2.764  19.104  0.00  0.00    +0.000 A 
ATOM      6  O   UNL     1       1.624   1.922  19.600  0.00  0.00    +0.000 OA
ATOM      7  N   UNL     1       3.695   2.851  19.392  0.00  0.00    +0.000 N 
ATOM      8  C   UNL     1       4.547   3.839  18.968  0.00  0.00    +0.000 A 
ATOM      9  O   UNL     1       5.724   3.850  19.321  0.00  0.00    +0.000 OA
ATOM     10  H   UNL     1       4.069   2.176  20.041  0.00  0.00    +0.000 HD
ENDBRANCH   1   2
BRANCH   1  11
ATOM     11  CA  UNL     1       5.571   5.726  16.407  0.00  0.00    +0.000 C 
BRANCH  11  12
ATOM     12  N   UNL     1       5.222   6.710  15.350  0.00  0.00    +0.000 NA
ATOM     13  H1  UNL     1       4.410   7.261  15.632  0.00  0.00    +0.000 HD
ATOM     14  H2  UNL     1       4.918   6.199  14.517  0.00  0.00    +0.000 HD
ENDBRANCH  11  12
BRANCH  11  15
ATOM     15  C   UNL     1       7.072   5.834  16.705  0.00  0.00    +0.000 C 
ATOM     16  O   UNL     1       7.732   6.858  16.601  0.00  0.00    +0.000 OA
BRANCH  15  17
ATOM     17  OXT UNL     1       7.640   4.637  16.995  0.00  0.00    +0.000 OA
ATOM     18  HXT UNL     1       7.158   3.872  16.627  0.00  0.00    +0.000 HD
ENDBRANCH  15  17
ENDBRANCH  11  15
ENDBRANCH   1  11
TORSDOF 5
ENDMDL
MODEL 9
REMARK VINA RESULT:      -5.8      2.171      2.515
REMARK  Name = 
REMARK  5 active torsions:
REMARK  status: ('A' for Active; 'I' for Inactive)
REMARK    1  A    between atoms: N_1  and  CA_2
REMARK    2  A    between atoms: CA_2  and  C_3
REMARK    3  A    between atoms: CA_2  and  C_12
REMARK    4  A    between atoms: C_3  and  N_4
REMARK    5  A    between atoms: C_12  and  OXT_14
REMARK                            x       y       z     vdW  Elec       q    Type
REMARK                         _______ _______ _______ _____ _____    ______ ____
ROOT
ATOM      1  C   UNL     1       5.870   5.631  17.457  0.00  0.00    +0.000 C 
ENDROOT
BRANCH   1   2
ATOM      2  N   UNL     1       4.539   5.047  17.660  0.00  0.00    +0.000 N 
ATOM      3  C   UNL     1       4.389   3.675  17.631  0.00  0.00    +0.000 A 
ATOM      4  C   UNL     1       3.192   3.093  17.718  0.00  0.00    +0.000 A 
ATOM      5  C   UNL     1       1.998   3.944  17.831  0.00  0.00    +0.000 A 
ATOM      6  O   UNL     1       0.872   3.461  17.808  0.00  0.00    +0.000 OA
ATOM      7  N   UNL     1       2.234   5.283  17.954  0.00  0.00    +0.000 N 
ATOM      8  C   UNL     1       3.457   5.895  17.863  0.00  0.00    +0.000 A 
ATOM      9  O   UNL     1       3.557   7.118  17.944  0.00  0.00    +0.000 OA
ATOM     10  H   UNL     1       1.429   5.885  18.037  0.00  0.00    +0.000 HD
ENDBRANCH   1   2
BRANCH   1  11
ATOM     11  CA  UNL     1       7.006   4.891  18.193  0.00  0.00    +0.000 C 
BRANCH  11  12
ATOM     12  N   UNL     1       7.992   4.265  17.273  0.00  0.00    +0.000 NA
ATOM     13  H1  UNL     1       8.942   4.522  17.543  0.00  0.00    +0.000 HD
ATOM     14  H2  UNL     1       7.865   4.664  16.339  0.00  0.00    +0.000 HD
ENDBRANCH  11  12
BRANCH  11  15
ATOM     15  C   UNL     1       7.737   5.903  19.084  0.00  0.00    +0.000 C 
ATOM     16  O   UNL     1       8.227   6.953  18.692  0.00  0.00    +0.000 OA
BRANCH  15  17
ATOM     17  OXT UNL     1       7.895   5.466  20.359  0.00  0.00    +0.000 OA
ATOM     18  HXT UNL     1       7.496   4.591  20.527  0.00  0.00    +0.000 HD
ENDBRANCH  15  17
ENDBRANCH  11  15
ENDBRANCH   1  11
TORSDOF 5
ENDMDL
