MODEL 1
REMARK VINA RESULT:      -8.1      0.000      0.000
REMARK  Name = 
REMARK  5 active torsions:
REMARK  status: ('A' for Active; 'I' for Inactive)
REMARK    1  A    between atoms: C_2  and  C_3
REMARK    2  A    between atoms: C_6  and  N_7
REMARK    3  A    between atoms: C_12  and  N_13
REMARK    4  A    between atoms: N_13  and  C_14
REMARK    5  A    between atoms: C_14  and  C_15
REMARK                            x       y       z     vdW  Elec       q    Type
REMARK                         _______ _______ _______ _____ _____    ______ ____
ROOT
ATOM      1  N   UNL     1       3.598   7.597  17.032  0.00  0.00    +0.000 N 
ATOM      2  C   UNL     1       4.432   6.498  16.803  0.00  0.00    +0.000 A 
ATOM      3  N   UNL     1       5.498   6.733  16.024  0.00  0.00    +0.000 NA
ATOM      4  C   UNL     1       6.407   5.746  15.942  0.00  0.00    +0.000 A 
ATOM      5  C   UNL     1       6.294   4.553  16.612  0.00  0.00    +0.000 A 
ATOM      6  C   UNL     1       5.133   4.363  17.324  0.00  0.00    +0.000 A 
ATOM      7  N   UNL     1       4.211   5.325  17.414  0.00  0.00    +0.000 NA
ATOM      8  H   UNL     1       4.036   8.403  16.607  0.00  0.00    +0.000 HD
ENDROOT
BRANCH   1  12
ATOM      9  C   UNL     1       1.106   8.447  20.344  0.00  0.00    +0.000 A 
ATOM     10  C   UNL     1       1.182   9.326  19.260  0.00  0.00    +0.000 A 
ATOM     11  C   UNL     1       2.002   9.025  18.167  0.00  0.00    +0.000 A 
ATOM     12  C   UNL     1       2.773   7.854  18.141  0.00  0.00    +0.000 A 
ATOM     13  C   UNL     1       2.654   6.975  19.227  0.00  0.00    +0.000 A 
ATOM     14  C   UNL     1       1.848   7.269  20.324  0.00  0.00    +0.000 A 
BRANCH   9  16
ATOM     15  N   UNL     1      -0.417   8.985  22.371  0.00  0.00    +0.000 NA
ATOM     16  C   UNL     1       0.269   8.744  21.463  0.00  0.00    +0.000 C 
ENDBRANCH   9  16
ENDBRANCH   1  12
BRANCH   6  17
ATOM     17  N   UNL     1       4.949   3.146  17.991  0.00  0.00    +0.000 N 
ATOM     18  H   UNL     1       5.203   3.266  18.970  0.00  0.00    +0.000 HD
BRANCH  17  19
ATOM     19  C   UNL     1       3.621   2.549  17.858  0.00  0.00    +0.000 C 
BRANCH  19  20
ATOM     20  C   UNL     1       2.820   2.858  19.101  0.00  0.00    +0.000 A 
ATOM     21  C   UNL     1       3.308   2.493  20.367  0.00  0.00    +0.000 A 
ATOM     22  C   UNL     1       2.551   2.719  21.518  0.00  0.00    +0.000 A 
ATOM     23  C   UNL     1       1.292   3.308  21.420  0.00  0.00    +0.000 A 
ATOM     24  C   UNL     1       0.794   3.674  20.170  0.00  0.00    +0.000 A 
ATOM     25  C   UNL     1       1.557   3.445  19.024  0.00  0.00    +0.000 A 
ATOM     26  F   UNL     1       1.048   3.793  17.834  0.00  0.00    +0.000 F 
ENDBRANCH  19  20
ENDBRANCH  17  19
ENDBRANCH   6  17
TORSDOF 5
ENDMDL
MODEL 2
REMARK VINA RESULT:      -8.0      0.904      1.008
REMARK  Name = 
REMARK  5 active torsions:
REMARK  status: ('A' for Active; 'I' for Inactive)
REMARK    1  A    between atoms: C_2  and  C_3
REMARK    2  A    between atoms: C_6  and  N_7
REMARK    3  A    between atoms: C_12  and  N_13
REMARK    4  A    between atoms: N_13  and  C_14
REMARK    5  A    between atoms: C_14  and  C_15
REMARK                            x       y       z     vdW  Elec       q    Type
REMARK                         _______ _______ _______ _____ _____    ______ ____
ROOT
ATOM      1  N   UNL     1       3.316   7.317  17.481  0.00  0.00    +0.000 N 
ATOM      2  C   UNL     1       4.310   6.333  17.439  0.00  0.00    +0.000 A 
ATOM      3  N   UNL     1       5.278   6.526  16.532  0.00  0.00    +0.000 NA
ATOM      4  C   UNL     1       6.333   5.698  16.599  0.00  0.00    +0.000 A 
ATOM      5  C   UNL     1       6.458   4.702  17.537  0.00  0.00    +0.000 A 
ATOM      6  C   UNL     1       5.385   4.521  18.378  0.00  0.00    +0.000 A 
ATOM      7  N   UNL     1       4.321   5.326  18.325  0.00  0.00    +0.000 NA
ATOM      8  H   UNL     1       3.590   8.050  16.841  0.00  0.00    +0.000 HD
ENDROOT
BRANCH   1  12
ATOM      9  C   UNL     1       0.917   8.580  20.729  0.00  0.00    +0.000 A 
ATOM     10  C   UNL     1       1.045   9.370  19.582  0.00  0.00    +0.000 A 
ATOM     11  C   UNL     1       1.833   8.932  18.512  0.00  0.00    +0.000 A 
ATOM     12  C   UNL     1       2.521   7.712  18.571  0.00  0.00    +0.000 A 
ATOM     13  C   UNL     1       2.350   6.926  19.719  0.00  0.00    +0.000 A 
ATOM     14  C   UNL     1       1.575   7.355  20.794  0.00  0.00    +0.000 A 
BRANCH   9  16
ATOM     15  N   UNL     1      -0.545   9.378  22.715  0.00  0.00    +0.000 NA
ATOM     16  C   UNL     1       0.112   9.017  21.825  0.00  0.00    +0.000 C 
ENDBRANCH   9  16
ENDBRANCH   1  12
BRANCH   6  17
ATOM     17  N   UNL     1       5.444   3.491  19.325  0.00  0.00    +0.000 N 
ATOM     18  H   UNL     1       5.250   3.880  20.245  0.00  0.00    +0.000 HD
BRANCH  17  19
ATOM     19  C   UNL     1       4.594   2.333  19.049  0.00  0.00    +0.000 C 
BRANCH  19  20
ATOM     20  C   UNL     1       3.176   2.662  19.449  0.00  0.00    +0.000 A 
ATOM     21  C   UNL     1       2.893   3.116  20.749  0.00  0.00    +0.000 A 
ATOM     22  C   UNL     1       1.580   3.366  21.150  0.00  0.00    +0.000 A 
ATOM     23  C   UNL     1       0.528   3.162  20.259  0.00  0.00    +0.000 A 
ATOM     24  C   UNL     1       0.793   2.711  18.966  0.00  0.00    +0.000 A 
ATOM     25  C   UNL     1       2.108   2.462  18.573  0.00  0.00    +0.000 A 
ATOM     26  F   UNL     1       2.333   2.015  17.330  0.00  0.00    +0.000 F 
ENDBRANCH  19  20
ENDBRANCH  17  19
ENDBRANCH   6  17
TORSDOF 5
ENDMDL
MODEL 3
REMARK VINA RESULT:      -8.0      1.074      1.450
REMARK  Name = 
REMARK  5 active torsions:
REMARK  status: ('A' for Active; 'I' for Inactive)
REMARK    1  A    between atoms: C_2  and  C_3
REMARK    2  A    between atoms: C_6  and  N_7
REMARK    3  A    between atoms: C_12  and  N_13
REMARK    4  A    between atoms: N_13  and  C_14
REMARK    5  A    between atoms: C_14  and  C_15
REMARK                            x       y       z     vdW  Elec       q    Type
REMARK                         _______ _______ _______ _____ _____    ______ ____
ROOT
ATOM      1  N   UNL     1       3.603   7.544  17.132  0.00  0.00    +0.000 N 
ATOM      2  C   UNL     1       4.514   6.491  16.998  0.00  0.00    +0.000 A 
ATOM      3  N   UNL     1       5.558   6.727  16.190  0.00  0.00    +0.000 NA
ATOM      4  C   UNL     1       6.535   5.805  16.192  0.00  0.00    +0.000 A 
ATOM      5  C   UNL     1       6.511   4.675  16.972  0.00  0.00    +0.000 A 
ATOM      6  C   UNL     1       5.369   4.471  17.710  0.00  0.00    +0.000 A 
ATOM      7  N   UNL     1       4.380   5.368  17.719  0.00  0.00    +0.000 NA
ATOM      8  H   UNL     1       3.980   8.335  16.628  0.00  0.00    +0.000 HD
ENDROOT
BRANCH   1  12
ATOM      9  C   UNL     1       1.074   8.524  20.378  0.00  0.00    +0.000 A 
ATOM     10  C   UNL     1       1.186   9.375  19.274  0.00  0.00    +0.000 A 
ATOM     11  C   UNL     1       2.017   9.030  18.203  0.00  0.00    +0.000 A 
ATOM     12  C   UNL     1       2.766   7.845  18.219  0.00  0.00    +0.000 A 
ATOM     13  C   UNL     1       2.611   6.995  19.324  0.00  0.00    +0.000 A 
ATOM     14  C   UNL     1       1.792   7.332  20.400  0.00  0.00    +0.000 A 
BRANCH   9  16
ATOM     15  N   UNL     1      -0.465   9.149  22.369  0.00  0.00    +0.000 NA
ATOM     16  C   UNL     1       0.224   8.866  21.475  0.00  0.00    +0.000 C 
ENDBRANCH   9  16
ENDBRANCH   1  12
BRANCH   6  17
ATOM     17  N   UNL     1       5.276   3.311  18.491  0.00  0.00    +0.000 N 
ATOM     18  H   UNL     1       5.327   3.572  19.473  0.00  0.00    +0.000 HD
BRANCH  17  19
ATOM     19  C   UNL     1       4.112   2.467  18.227  0.00  0.00    +0.000 C 
BRANCH  19  20
ATOM     20  C   UNL     1       3.078   2.711  19.300  0.00  0.00    +0.000 A 
ATOM     21  C   UNL     1       1.830   3.264  18.969  0.00  0.00    +0.000 A 
ATOM     22  C   UNL     1       0.889   3.550  19.960  0.00  0.00    +0.000 A 
ATOM     23  C   UNL     1       1.183   3.291  21.296  0.00  0.00    +0.000 A 
ATOM     24  C   UNL     1       2.418   2.743  21.641  0.00  0.00    +0.000 A 
ATOM     25  C   UNL     1       3.354   2.461  20.645  0.00  0.00    +0.000 A 
ATOM     26  F   UNL     1       4.539   1.948  21.006  0.00  0.00    +0.000 F 
ENDBRANCH  19  20
ENDBRANCH  17  19
ENDBRANCH   6  17
TORSDOF 5
ENDMDL
MODEL 4
REMARK VINA RESULT:      -7.8      0.995      1.708
REMARK  Name = 
REMARK  5 active torsions:
REMARK  status: ('A' for Active; 'I' for Inactive)
REMARK    1  A    between atoms: C_2  and  C_3
REMARK    2  A    between atoms: C_6  and  N_7
REMARK    3  A    between atoms: C_12  and  N_13
REMARK    4  A    between atoms: N_13  and  C_14
REMARK    5  A    between atoms: C_14  and  C_15
REMARK                            x       y       z     vdW  Elec       q    Type
REMARK                         _______ _______ _______ _____ _____    ______ ____
ROOT
ATOM      1  N   UNL     1       3.665   7.581  16.944  0.00  0.00    +0.000 N 
ATOM      2  C   UNL     1       4.511   6.479  16.783  0.00  0.00    +0.000 A 
ATOM      3  N   UNL     1       5.580   6.678  15.999  0.00  0.00    +0.000 NA
ATOM      4  C   UNL     1       6.498   5.697  15.979  0.00  0.00    +0.000 A 
ATOM      5  C   UNL     1       6.391   4.543  16.715  0.00  0.00    +0.000 A 
ATOM      6  C   UNL     1       5.227   4.383  17.429  0.00  0.00    +0.000 A 
ATOM      7  N   UNL     1       4.295   5.339  17.459  0.00  0.00    +0.000 NA
ATOM      8  H   UNL     1       4.099   8.365  16.477  0.00  0.00    +0.000 HD
ENDROOT
BRANCH   1  12
ATOM      9  C   UNL     1       1.164   8.445  20.245  0.00  0.00    +0.000 A 
ATOM     10  C   UNL     1       1.946   7.286  20.222  0.00  0.00    +0.000 A 
ATOM     11  C   UNL     1       2.777   7.021  19.128  0.00  0.00    +0.000 A 
ATOM     12  C   UNL     1       2.831   7.893  18.031  0.00  0.00    +0.000 A 
ATOM     13  C   UNL     1       2.060   9.063  18.095  0.00  0.00    +0.000 A 
ATOM     14  C   UNL     1       1.223   9.333  19.174  0.00  0.00    +0.000 A 
BRANCH   9  16
ATOM     15  N   UNL     1      -0.374   8.961  22.267  0.00  0.00    +0.000 NA
ATOM     16  C   UNL     1       0.316   8.726  21.359  0.00  0.00    +0.000 C 
ENDBRANCH   9  16
ENDBRANCH   1  12
BRANCH   6  17
ATOM     17  N   UNL     1       5.049   3.204  18.163  0.00  0.00    +0.000 N 
ATOM     18  H   UNL     1       5.206   3.403  19.149  0.00  0.00    +0.000 HD
BRANCH  17  19
ATOM     19  C   UNL     1       3.773   2.521  17.958  0.00  0.00    +0.000 C 
BRANCH  19  20
ATOM     20  C   UNL     1       2.884   2.777  19.152  0.00  0.00    +0.000 A 
ATOM     21  C   UNL     1       1.620   3.367  18.982  0.00  0.00    +0.000 A 
ATOM     22  C   UNL     1       0.815   3.663  20.082  0.00  0.00    +0.000 A 
ATOM     23  C   UNL     1       1.263   3.379  21.371  0.00  0.00    +0.000 A 
ATOM     24  C   UNL     1       2.515   2.795  21.556  0.00  0.00    +0.000 A 
ATOM     25  C   UNL     1       3.315   2.502  20.451  0.00  0.00    +0.000 A 
ATOM     26  F   UNL     1       4.521   1.954  20.659  0.00  0.00    +0.000 F 
ENDBRANCH  19  20
ENDBRANCH  17  19
ENDBRANCH   6  17
TORSDOF 5
ENDMDL
MODEL 5
REMARK VINA RESULT:      -7.8      0.499      1.100
REMARK  Name = 
REMARK  5 active torsions:
REMARK  status: ('A' for Active; 'I' for Inactive)
REMARK    1  A    between atoms: C_2  and  C_3
REMARK    2  A    between atoms: C_6  and  N_7
REMARK    3  A    between atoms: C_12  and  N_13
REMARK    4  A    between atoms: N_13  and  C_14
REMARK    5  A    between atoms: C_14  and  C_15
REMARK                            x       y       z     vdW  Elec       q    Type
REMARK                         _______ _______ _______ _____ _____    ______ ____
ROOT
ATOM      1  N   UNL     1       3.677   7.437  17.109  0.00  0.00    +0.000 N 
ATOM      2  C   UNL     1       4.613   6.399  17.050  0.00  0.00    +0.000 A 
ATOM      3  N   UNL     1       5.649   6.601  16.224  0.00  0.00    +0.000 NA
ATOM      4  C   UNL     1       6.648   5.705  16.291  0.00  0.00    +0.000 A 
ATOM      5  C   UNL     1       6.652   4.634  17.151  0.00  0.00    +0.000 A 
ATOM      6  C   UNL     1       5.516   4.456  17.904  0.00  0.00    +0.000 A 
ATOM      7  N   UNL     1       4.505   5.328  17.851  0.00  0.00    +0.000 NA
ATOM      8  H   UNL     1       4.035   8.199  16.549  0.00  0.00    +0.000 HD
ENDROOT
BRANCH   1  12
ATOM      9  C   UNL     1       1.142   8.442  20.344  0.00  0.00    +0.000 A 
ATOM     10  C   UNL     1       1.846   7.234  20.333  0.00  0.00    +0.000 A 
ATOM     11  C   UNL     1       2.690   6.922  19.261  0.00  0.00    +0.000 A 
ATOM     12  C   UNL     1       2.833   7.796  18.174  0.00  0.00    +0.000 A 
ATOM     13  C   UNL     1       2.140   9.014  18.226  0.00  0.00    +0.000 A 
ATOM     14  C   UNL     1       1.291   9.332  19.284  0.00  0.00    +0.000 A 
BRANCH   9  16
ATOM     15  N   UNL     1      -0.424   9.037  22.322  0.00  0.00    +0.000 NA
ATOM     16  C   UNL     1       0.282   8.770  21.436  0.00  0.00    +0.000 C 
ENDBRANCH   9  16
ENDBRANCH   1  12
BRANCH   6  17
ATOM     17  N   UNL     1       5.451   3.355  18.766  0.00  0.00    +0.000 N 
ATOM     18  H   UNL     1       5.421   3.691  19.727  0.00  0.00    +0.000 HD
BRANCH  17  19
ATOM     19  C   UNL     1       4.365   2.412  18.502  0.00  0.00    +0.000 C 
BRANCH  19  20
ATOM     20  C   UNL     1       3.186   2.766  19.378  0.00  0.00    +0.000 A 
ATOM     21  C   UNL     1       3.269   2.615  20.773  0.00  0.00    +0.000 A 
ATOM     22  C   UNL     1       2.168   2.882  21.588  0.00  0.00    +0.000 A 
ATOM     23  C   UNL     1       0.966   3.298  21.021  0.00  0.00    +0.000 A 
ATOM     24  C   UNL     1       0.868   3.451  19.638  0.00  0.00    +0.000 A 
ATOM     25  C   UNL     1       1.973   3.182  18.830  0.00  0.00    +0.000 A 
ATOM     26  F   UNL     1       1.846   3.322  17.503  0.00  0.00    +0.000 F 
ENDBRANCH  19  20
ENDBRANCH  17  19
ENDBRANCH   6  17
TORSDOF 5
ENDMDL
MODEL 6
REMARK VINA RESULT:      -7.7      2.297      5.732
REMARK  Name = 
REMARK  5 active torsions:
REMARK  status: ('A' for Active; 'I' for Inactive)
REMARK    1  A    between atoms: C_2  and  C_3
REMARK    2  A    between atoms: C_6  and  N_7
REMARK    3  A    between atoms: C_12  and  N_13
REMARK    4  A    between atoms: N_13  and  C_14
REMARK    5  A    between atoms: C_14  and  C_15
REMARK                            x       y       z     vdW  Elec       q    Type
REMARK                         _______ _______ _______ _____ _____    ______ ____
ROOT
ATOM      1  N   UNL     1       5.202   3.703  17.417  0.00  0.00    +0.000 N 
ATOM      2  C   UNL     1       4.022   3.324  18.066  0.00  0.00    +0.000 A 
ATOM      3  N   UNL     1       3.832   2.003  18.199  0.00  0.00    +0.000 NA
ATOM      4  C   UNL     1       2.805   1.623  18.976  0.00  0.00    +0.000 A 
ATOM      5  C   UNL     1       1.977   2.505  19.626  0.00  0.00    +0.000 A 
ATOM      6  C   UNL     1       2.191   3.839  19.371  0.00  0.00    +0.000 A 
ATOM      7  N   UNL     1       3.200   4.243  18.595  0.00  0.00    +0.000 NA
ATOM      8  H   UNL     1       5.735   2.861  17.245  0.00  0.00    +0.000 HD
ENDROOT
BRANCH   1  12
ATOM      9  C   UNL     1       7.397   7.296  17.823  0.00  0.00    +0.000 A 
ATOM     10  C   UNL     1       6.243   7.246  17.035  0.00  0.00    +0.000 A 
ATOM     11  C   UNL     1       5.522   6.053  16.921  0.00  0.00    +0.000 A 
ATOM     12  C   UNL     1       5.945   4.885  17.572  0.00  0.00    +0.000 A 
ATOM     13  C   UNL     1       7.087   4.972  18.381  0.00  0.00    +0.000 A 
ATOM     14  C   UNL     1       7.818   6.152  18.496  0.00  0.00    +0.000 A 
BRANCH   9  16
ATOM     15  N   UNL     1       8.738   9.503  18.055  0.00  0.00    +0.000 NA
ATOM     16  C   UNL     1       8.138   8.511  17.949  0.00  0.00    +0.000 C 
ENDBRANCH   9  16
ENDBRANCH   1  12
BRANCH   6  17
ATOM     17  N   UNL     1       1.347   4.779  19.975  0.00  0.00    +0.000 N 
ATOM     18  H   UNL     1       0.698   4.291  20.588  0.00  0.00    +0.000 HD
BRANCH  17  19
ATOM     19  C   UNL     1       2.020   5.871  20.677  0.00  0.00    +0.000 C 
BRANCH  19  20
ATOM     20  C   UNL     1       1.827   7.148  19.894  0.00  0.00    +0.000 A 
ATOM     21  C   UNL     1       2.358   7.272  18.599  0.00  0.00    +0.000 A 
ATOM     22  C   UNL     1       2.239   8.467  17.888  0.00  0.00    +0.000 A 
ATOM     23  C   UNL     1       1.591   9.558  18.463  0.00  0.00    +0.000 A 
ATOM     24  C   UNL     1       1.060   9.451  19.748  0.00  0.00    +0.000 A 
ATOM     25  C   UNL     1       1.184   8.253  20.452  0.00  0.00    +0.000 A 
ATOM     26  F   UNL     1       0.677   8.182  21.691  0.00  0.00    +0.000 F 
ENDBRANCH  19  20
ENDBRANCH  17  19
ENDBRANCH   6  17
TORSDOF 5
ENDMDL
MODEL 7
REMARK VINA RESULT:      -7.7      1.108      1.419
REMARK  Name = 
REMARK  5 active torsions:
REMARK  status: ('A' for Active; 'I' for Inactive)
REMARK    1  A    between atoms: C_2  and  C_3
REMARK    2  A    between atoms: C_6  and  N_7
REMARK    3  A    between atoms: C_12  and  N_13
REMARK    4  A    between atoms: N_13  and  C_14
REMARK    5  A    between atoms: C_14  and  C_15
REMARK                            x       y       z     vdW  Elec       q    Type
REMARK                         _______ _______ _______ _____ _____    ______ ____
ROOT
ATOM      1  N   UNL     1       3.735   7.542  17.005  0.00  0.00    +0.000 N 
ATOM      2  C   UNL     1       4.640   6.478  16.929  0.00  0.00    +0.000 A 
ATOM      3  N   UNL     1       5.701   6.675  16.135  0.00  0.00    +0.000 NA
ATOM      4  C   UNL     1       6.670   5.745  16.192  0.00  0.00    +0.000 A 
ATOM      5  C   UNL     1       6.620   4.645  17.012  0.00  0.00    +0.000 A 
ATOM      6  C   UNL     1       5.461   4.478  17.734  0.00  0.00    +0.000 A 
ATOM      7  N   UNL     1       4.480   5.383  17.688  0.00  0.00    +0.000 NA
ATOM      8  H   UNL     1       4.130   8.311  16.480  0.00  0.00    +0.000 HD
ENDROOT
BRANCH   1  12
ATOM      9  C   UNL     1       1.147   8.663  20.158  0.00  0.00    +0.000 A 
ATOM     10  C   UNL     1       1.261   9.452  19.009  0.00  0.00    +0.000 A 
ATOM     11  C   UNL     1       2.112   9.061  17.970  0.00  0.00    +0.000 A 
ATOM     12  C   UNL     1       2.879   7.890  18.063  0.00  0.00    +0.000 A 
ATOM     13  C   UNL     1       2.722   7.102  19.212  0.00  0.00    +0.000 A 
ATOM     14  C   UNL     1       1.883   7.485  20.257  0.00  0.00    +0.000 A 
BRANCH   9  16
ATOM     15  N   UNL     1      -0.436   9.369  22.086  0.00  0.00    +0.000 NA
ATOM     16  C   UNL     1       0.277   9.052  21.222  0.00  0.00    +0.000 C 
ENDBRANCH   9  16
ENDBRANCH   1  12
BRANCH   6  17
ATOM     17  N   UNL     1       5.341   3.349  18.554  0.00  0.00    +0.000 N 
ATOM     18  H   UNL     1       6.263   2.935  18.679  0.00  0.00    +0.000 HD
BRANCH  17  19
ATOM     19  C   UNL     1       4.682   3.573  19.840  0.00  0.00    +0.000 C 
BRANCH  19  20
ATOM     20  C   UNL     1       3.218   3.225  19.705  0.00  0.00    +0.000 A 
ATOM     21  C   UNL     1       2.781   2.391  18.662  0.00  0.00    +0.000 A 
ATOM     22  C   UNL     1       1.425   2.110  18.490  0.00  0.00    +0.000 A 
ATOM     23  C   UNL     1       0.484   2.662  19.357  0.00  0.00    +0.000 A 
ATOM     24  C   UNL     1       0.903   3.492  20.397  0.00  0.00    +0.000 A 
ATOM     25  C   UNL     1       2.260   3.769  20.561  0.00  0.00    +0.000 A 
ATOM     26  F   UNL     1       2.633   4.582  21.559  0.00  0.00    +0.000 F 
ENDBRANCH  19  20
ENDBRANCH  17  19
ENDBRANCH   6  17
TORSDOF 5
ENDMDL
MODEL 8
REMARK VINA RESULT:      -7.6      3.489      5.996
REMARK  Name = 
REMARK  5 active torsions:
REMARK  status: ('A' for Active; 'I' for Inactive)
REMARK    1  A    between atoms: C_2  and  C_3
REMARK    2  A    between atoms: C_6  and  N_7
REMARK    3  A    between atoms: C_12  and  N_13
REMARK    4  A    between atoms: N_13  and  C_14
REMARK    5  A    between atoms: C_14  and  C_15
REMARK                            x       y       z     vdW  Elec       q    Type
REMARK                         _______ _______ _______ _____ _____    ______ ____
ROOT
ATOM      1  N   UNL     1       7.606   5.385  15.221  0.00  0.00    +0.000 N 
ATOM      2  C   UNL     1       7.413   5.354  16.607  0.00  0.00    +0.000 A 
ATOM      3  N   UNL     1       7.912   6.398  17.284  0.00  0.00    +0.000 NA
ATOM      4  C   UNL     1       7.579   6.480  18.584  0.00  0.00    +0.000 A 
ATOM      5  C   UNL     1       6.765   5.573  19.218  0.00  0.00    +0.000 A 
ATOM      6  C   UNL     1       6.362   4.492  18.471  0.00  0.00    +0.000 A 
ATOM      7  N   UNL     1       6.687   4.382  17.180  0.00  0.00    +0.000 NA
ATOM      8  H   UNL     1       8.034   6.273  14.996  0.00  0.00    +0.000 HD
ENDROOT
BRANCH   1  12
ATOM      9  C   UNL     1       5.167   3.633  12.242  0.00  0.00    +0.000 A 
ATOM     10  C   UNL     1       4.627   4.025  13.471  0.00  0.00    +0.000 A 
ATOM     11  C   UNL     1       5.445   4.615  14.441  0.00  0.00    +0.000 A 
ATOM     12  C   UNL     1       6.816   4.806  14.214  0.00  0.00    +0.000 A 
ATOM     13  C   UNL     1       7.324   4.432  12.962  0.00  0.00    +0.000 A 
ATOM     14  C   UNL     1       6.521   3.836  11.992  0.00  0.00    +0.000 A 
BRANCH   9  16
ATOM     15  N   UNL     1       3.661   2.551  10.431  0.00  0.00    +0.000 NA
ATOM     16  C   UNL     1       4.338   3.034  11.244  0.00  0.00    +0.000 C 
ENDBRANCH   9  16
ENDBRANCH   1  12
BRANCH   6  17
ATOM     17  N   UNL     1       5.566   3.516  19.082  0.00  0.00    +0.000 N 
ATOM     18  H   UNL     1       5.393   3.790  20.047  0.00  0.00    +0.000 HD
BRANCH  17  19
ATOM     19  C   UNL     1       4.318   3.197  18.391  0.00  0.00    +0.000 C 
BRANCH  19  20
ATOM     20  C   UNL     1       3.189   3.199  19.394  0.00  0.00    +0.000 A 
ATOM     21  C   UNL     1       3.388   2.680  20.685  0.00  0.00    +0.000 A 
ATOM     22  C   UNL     1       2.337   2.622  21.602  0.00  0.00    +0.000 A 
ATOM     23  C   UNL     1       1.071   3.076  21.241  0.00  0.00    +0.000 A 
ATOM     24  C   UNL     1       0.858   3.592  19.963  0.00  0.00    +0.000 A 
ATOM     25  C   UNL     1       1.913   3.647  19.052  0.00  0.00    +0.000 A 
ATOM     26  F   UNL     1       1.677   4.135  17.825  0.00  0.00    +0.000 F 
ENDBRANCH  19  20
ENDBRANCH  17  19
ENDBRANCH   6  17
TORSDOF 5
ENDMDL
MODEL 9
REMARK VINA RESULT:      -7.6      2.294      4.477
REMARK  Name = 
REMARK  5 active torsions:
REMARK  status: ('A' for Active; 'I' for Inactive)
REMARK    1  A    between atoms: C_2  and  C_3
REMARK    2  A    between atoms: C_6  and  N_7
REMARK    3  A    between atoms: C_12  and  N_13
REMARK    4  A    between atoms: N_13  and  C_14
REMARK    5  A    between atoms: C_14  and  C_15
REMARK                            x       y       z     vdW  Elec       q    Type
REMARK                         _______ _______ _______ _____ _____    ______ ____
ROOT
ATOM      1  N   UNL     1       2.454   6.003  20.618  0.00  0.00    +0.000 N 
ATOM      2  C   UNL     1       2.926   4.924  19.861  0.00  0.00    +0.000 A 
ATOM      3  N   UNL     1       2.779   3.716  20.421  0.00  0.00    +0.000 NA
ATOM      4  C   UNL     1       3.053   2.658  19.640  0.00  0.00    +0.000 A 
ATOM      5  C   UNL     1       3.454   2.765  18.330  0.00  0.00    +0.000 A 
ATOM      6  C   UNL     1       3.657   4.041  17.860  0.00  0.00    +0.000 A 
ATOM      7  N   UNL     1       3.400   5.109  18.619  0.00  0.00    +0.000 NA
ATOM      8  H   UNL     1       2.004   5.621  21.438  0.00  0.00    +0.000 HD
ENDROOT
BRANCH   1  12
ATOM      9  C   UNL     1       0.958   9.744  19.328  0.00  0.00    +0.000 A 
ATOM     10  C   UNL     1       0.722   9.286  20.628  0.00  0.00    +0.000 A 
ATOM     11  C   UNL     1       1.234   8.053  21.043  0.00  0.00    +0.000 A 
ATOM     12  C   UNL     1       1.973   7.244  20.167  0.00  0.00    +0.000 A 
ATOM     13  C   UNL     1       2.220   7.740  18.880  0.00  0.00    +0.000 A 
ATOM     14  C   UNL     1       1.708   8.963  18.453  0.00  0.00    +0.000 A 
BRANCH   9  16
ATOM     15  N   UNL     1       0.025  12.034  18.550  0.00  0.00    +0.000 NA
ATOM     16  C   UNL     1       0.442  11.004  18.897  0.00  0.00    +0.000 C 
ENDBRANCH   9  16
ENDBRANCH   1  12
BRANCH   6  17
ATOM     17  N   UNL     1       4.107   4.204  16.544  0.00  0.00    +0.000 N 
ATOM     18  H   UNL     1       3.871   5.143  16.230  0.00  0.00    +0.000 HD
BRANCH  17  19
ATOM     19  C   UNL     1       5.523   3.912  16.322  0.00  0.00    +0.000 C 
BRANCH  19  20
ATOM     20  C   UNL     1       6.352   4.989  16.981  0.00  0.00    +0.000 A 
ATOM     21  C   UNL     1       7.224   4.666  18.035  0.00  0.00    +0.000 A 
ATOM     22  C   UNL     1       7.951   5.660  18.692  0.00  0.00    +0.000 A 
ATOM     23  C   UNL     1       7.814   6.992  18.308  0.00  0.00    +0.000 A 
ATOM     24  C   UNL     1       6.952   7.328  17.265  0.00  0.00    +0.000 A 
ATOM     25  C   UNL     1       6.228   6.329  16.614  0.00  0.00    +0.000 A 
ATOM     26  F   UNL     1       5.396   6.682  15.624  0.00  0.00    +0.000 F 
ENDBRANCH  19  20
ENDBRANCH  17  19
ENDBRANCH   6  17
TORSDOF 5
ENDMDL
