MODEL 1
REMARK VINA RESULT:      -7.6      0.000      0.000
REMARK  Name = 
REMARK  7 active torsions:
REMARK  status: ('A' for Active; 'I' for Inactive)
REMARK    1  A    between atoms: C_2  and  C_3
REMARK    2  A    between atoms: C_5  and  C_6
REMARK    3  A    between atoms: C_8  and  C_9
REMARK    4  A    between atoms: C_9  and  O_11
REMARK    5  A    between atoms: C_16  and  O_17
REMARK    6  A    between atoms: O_17  and  C_18
REMARK    7  A    between atoms: C_18  and  C_19
REMARK                            x       y       z     vdW  Elec       q    Type
REMARK                         _______ _______ _______ _____ _____    ______ ____
ROOT
ATOM      1  C   UNL     1       2.596   5.308  19.925  0.00  0.00    +0.000 A 
ATOM      2  C   UNL     1       3.428   4.831  18.893  0.00  0.00    +0.000 A 
ATOM      3  C   UNL     1       3.824   5.659  17.834  0.00  0.00    +0.000 A 
ATOM      4  C   UNL     1       3.368   6.979  17.819  0.00  0.00    +0.000 A 
ATOM      5  C   UNL     1       2.545   7.460  18.832  0.00  0.00    +0.000 A 
ATOM      6  C   UNL     1       2.124   6.626  19.876  0.00  0.00    +0.000 A 
ENDROOT
BRANCH   3   7
ATOM      7  C   UNL     1       4.716   5.171  16.793  0.00  0.00    +0.000 A 
ATOM      8  C   UNL     1       5.332   5.738  15.705  0.00  0.00    +0.000 A 
ATOM      9  C   UNL     1       6.038   4.674  15.093  0.00  0.00    +0.000 A 
ATOM     10  N   UNL     1       5.864   3.525  15.769  0.00  0.00    +0.000 NA
ATOM     11  O   UNL     1       5.040   3.845  16.833  0.00  0.00    +0.000 OA
BRANCH   9  12
ATOM     12  C   UNL     1       6.860   4.722  13.892  0.00  0.00    +0.000 C 
ATOM     13  O   UNL     1       6.646   4.042  12.899  0.00  0.00    +0.000 OA
BRANCH  12  14
ATOM     14  O   UNL     1       7.896   5.600  13.972  0.00  0.00    +0.000 OA
ATOM     15  H   UNL     1       8.002   5.885  14.906  0.00  0.00    +0.000 HD
ENDBRANCH  12  14
ENDBRANCH   9  12
ENDBRANCH   3   7
BRANCH   1  17
ATOM     16  N   UNL     1       2.101   3.692  21.893  0.00  0.00    +0.000 NA
ATOM     17  C   UNL     1       2.277   4.412  21.003  0.00  0.00    +0.000 C 
ENDBRANCH   1  17
BRANCH   6  18
ATOM     18  O   UNL     1       1.255   7.053  20.851  0.00  0.00    +0.000 OA
BRANCH  18  19
ATOM     19  C   UNL     1       1.740   8.161  21.626  0.00  0.00    +0.000 C 
BRANCH  19  20
ATOM     20  C   UNL     1       0.737   9.272  21.789  0.00  0.00    +0.000 A 
ATOM     21  C   UNL     1       0.047   9.497  22.984  0.00  0.00    +0.000 A 
ATOM     22  C   UNL     1      -0.912  10.504  23.061  0.00  0.00    +0.000 A 
ATOM     23  C   UNL     1      -1.188  11.299  21.949  0.00  0.00    +0.000 A 
ATOM     24  C   UNL     1      -0.495  11.100  20.759  0.00  0.00    +0.000 A 
ATOM     25  C   UNL     1       0.466  10.093  20.679  0.00  0.00    +0.000 A 
ENDBRANCH  19  20
ENDBRANCH  18  19
ENDBRANCH   6  18
TORSDOF 7
ENDMDL
MODEL 2
REMARK VINA RESULT:      -7.6      3.167      4.942
REMARK  Name = 
REMARK  7 active torsions:
REMARK  status: ('A' for Active; 'I' for Inactive)
REMARK    1  A    between atoms: C_2  and  C_3
REMARK    2  A    between atoms: C_5  and  C_6
REMARK    3  A    between atoms: C_8  and  C_9
REMARK    4  A    between atoms: C_9  and  O_11
REMARK    5  A    between atoms: C_16  and  O_17
REMARK    6  A    between atoms: O_17  and  C_18
REMARK    7  A    between atoms: C_18  and  C_19
REMARK                            x       y       z     vdW  Elec       q    Type
REMARK                         _______ _______ _______ _____ _____    ______ ____
ROOT
ATOM      1  C   UNL     1       0.894   9.097  21.101  0.00  0.00    +0.000 A 
ATOM      2  C   UNL     1       1.376   7.774  21.049  0.00  0.00    +0.000 A 
ATOM      3  C   UNL     1       1.945   7.250  19.880  0.00  0.00    +0.000 A 
ATOM      4  C   UNL     1       2.018   8.073  18.754  0.00  0.00    +0.000 A 
ATOM      5  C   UNL     1       1.544   9.381  18.794  0.00  0.00    +0.000 A 
ATOM      6  C   UNL     1       0.948   9.896  19.952  0.00  0.00    +0.000 A 
ENDROOT
BRANCH   3   7
ATOM      7  C   UNL     1       2.477   5.897  19.845  0.00  0.00    +0.000 A 
ATOM      8  C   UNL     1       3.193   5.163  18.931  0.00  0.00    +0.000 A 
ATOM      9  C   UNL     1       3.350   3.891  19.531  0.00  0.00    +0.000 A 
ATOM     10  N   UNL     1       2.766   3.850  20.740  0.00  0.00    +0.000 NA
ATOM     11  O   UNL     1       2.226   5.110  20.932  0.00  0.00    +0.000 OA
BRANCH   9  12
ATOM     12  C   UNL     1       4.029   2.725  18.984  0.00  0.00    +0.000 C 
ATOM     13  O   UNL     1       3.658   2.136  17.978  0.00  0.00    +0.000 OA
BRANCH  12  14
ATOM     14  O   UNL     1       5.124   2.344  19.696  0.00  0.00    +0.000 OA
ATOM     15  H   UNL     1       5.729   3.112  19.787  0.00  0.00    +0.000 HD
ENDBRANCH  12  14
ENDBRANCH   9  12
ENDBRANCH   3   7
BRANCH   1  17
ATOM     16  N   UNL     1       0.004  10.028  23.354  0.00  0.00    +0.000 NA
ATOM     17  C   UNL     1       0.373   9.576  22.354  0.00  0.00    +0.000 C 
ENDBRANCH   1  17
BRANCH   6  18
ATOM     18  O   UNL     1       0.407  11.159  20.000  0.00  0.00    +0.000 OA
BRANCH  18  19
ATOM     19  C   UNL     1      -0.040  11.654  18.728  0.00  0.00    +0.000 C 
BRANCH  19  20
ATOM     20  C   UNL     1      -1.438  11.225  18.368  0.00  0.00    +0.000 A 
ATOM     21  C   UNL     1      -1.699  10.164  17.496  0.00  0.00    +0.000 A 
ATOM     22  C   UNL     1      -3.011   9.846  17.152  0.00  0.00    +0.000 A 
ATOM     23  C   UNL     1      -4.073  10.580  17.679  0.00  0.00    +0.000 A 
ATOM     24  C   UNL     1      -3.829  11.625  18.563  0.00  0.00    +0.000 A 
ATOM     25  C   UNL     1      -2.517  11.946  18.910  0.00  0.00    +0.000 A 
ENDBRANCH  19  20
ENDBRANCH  18  19
ENDBRANCH   6  18
TORSDOF 7
ENDMDL
MODEL 3
REMARK VINA RESULT:      -7.5      2.778      8.119
REMARK  Name = 
REMARK  7 active torsions:
REMARK  status: ('A' for Active; 'I' for Inactive)
REMARK    1  A    between atoms: C_2  and  C_3
REMARK    2  A    between atoms: C_5  and  C_6
REMARK    3  A    between atoms: C_8  and  C_9
REMARK    4  A    between atoms: C_9  and  O_11
REMARK    5  A    between atoms: C_16  and  O_17
REMARK    6  A    between atoms: O_17  and  C_18
REMARK    7  A    between atoms: C_18  and  C_19
REMARK                            x       y       z     vdW  Elec       q    Type
REMARK                         _______ _______ _______ _____ _____    ______ ____
ROOT
ATOM      1  C   UNL     1       2.241   4.976  20.477  0.00  0.00    +0.000 A 
ATOM      2  C   UNL     1       1.685   6.184  20.942  0.00  0.00    +0.000 A 
ATOM      3  C   UNL     1       1.743   7.357  20.176  0.00  0.00    +0.000 A 
ATOM      4  C   UNL     1       2.373   7.303  18.931  0.00  0.00    +0.000 A 
ATOM      5  C   UNL     1       2.926   6.115  18.462  0.00  0.00    +0.000 A 
ATOM      6  C   UNL     1       2.896   4.950  19.239  0.00  0.00    +0.000 A 
ENDROOT
BRANCH   3   7
ATOM      7  C   UNL     1       1.132   8.590  20.645  0.00  0.00    +0.000 A 
ATOM      8  C   UNL     1       0.529   8.987  21.814  0.00  0.00    +0.000 A 
ATOM      9  C   UNL     1       0.124  10.323  21.578  0.00  0.00    +0.000 A 
ATOM     10  N   UNL     1       0.461  10.719  20.338  0.00  0.00    +0.000 NA
ATOM     11  O   UNL     1       1.095   9.632  19.763  0.00  0.00    +0.000 OA
BRANCH   9  12
ATOM     12  C   UNL     1      -0.573  11.218  22.490  0.00  0.00    +0.000 C 
ATOM     13  O   UNL     1      -1.413  10.843  23.295  0.00  0.00    +0.000 OA
BRANCH  12  14
ATOM     14  O   UNL     1      -0.202  12.522  22.368  0.00  0.00    +0.000 OA
ATOM     15  H   UNL     1       0.324  12.779  23.157  0.00  0.00    +0.000 HD
ENDBRANCH  12  14
ENDBRANCH   9  12
ENDBRANCH   3   7
BRANCH   1  17
ATOM     16  N   UNL     1       2.058   2.848  21.950  0.00  0.00    +0.000 NA
ATOM     17  C   UNL     1       2.095   3.805  21.300  0.00  0.00    +0.000 C 
ENDBRANCH   1  17
BRANCH   6  18
ATOM     18  O   UNL     1       3.495   3.782  18.833  0.00  0.00    +0.000 OA
BRANCH  18  19
ATOM     19  C   UNL     1       4.869   3.657  19.233  0.00  0.00    +0.000 C 
BRANCH  19  20
ATOM     20  C   UNL     1       5.804   4.570  18.486  0.00  0.00    +0.000 A 
ATOM     21  C   UNL     1       6.634   5.492  19.131  0.00  0.00    +0.000 A 
ATOM     22  C   UNL     1       7.437   6.353  18.387  0.00  0.00    +0.000 A 
ATOM     23  C   UNL     1       7.424   6.298  16.993  0.00  0.00    +0.000 A 
ATOM     24  C   UNL     1       6.618   5.373  16.338  0.00  0.00    +0.000 A 
ATOM     25  C   UNL     1       5.813   4.509  17.080  0.00  0.00    +0.000 A 
ENDBRANCH  19  20
ENDBRANCH  18  19
ENDBRANCH   6  18
TORSDOF 7
ENDMDL
MODEL 4
REMARK VINA RESULT:      -7.5      2.321      8.910
REMARK  Name = 
REMARK  7 active torsions:
REMARK  status: ('A' for Active; 'I' for Inactive)
REMARK    1  A    between atoms: C_2  and  C_3
REMARK    2  A    between atoms: C_5  and  C_6
REMARK    3  A    between atoms: C_8  and  C_9
REMARK    4  A    between atoms: C_9  and  O_11
REMARK    5  A    between atoms: C_16  and  O_17
REMARK    6  A    between atoms: O_17  and  C_18
REMARK    7  A    between atoms: C_18  and  C_19
REMARK                            x       y       z     vdW  Elec       q    Type
REMARK                         _______ _______ _______ _____ _____    ______ ____
ROOT
ATOM      1  C   UNL     1       3.071   4.666  17.697  0.00  0.00    +0.000 A 
ATOM      2  C   UNL     1       2.359   5.584  18.494  0.00  0.00    +0.000 A 
ATOM      3  C   UNL     1       2.759   6.924  18.598  0.00  0.00    +0.000 A 
ATOM      4  C   UNL     1       3.892   7.332  17.892  0.00  0.00    +0.000 A 
ATOM      5  C   UNL     1       4.603   6.434  17.103  0.00  0.00    +0.000 A 
ATOM      6  C   UNL     1       4.223   5.088  17.021  0.00  0.00    +0.000 A 
ENDROOT
BRANCH   3   7
ATOM      7  C   UNL     1       1.996   7.875  19.391  0.00  0.00    +0.000 A 
ATOM      8  C   UNL     1       1.544   7.910  20.687  0.00  0.00    +0.000 A 
ATOM      9  C   UNL     1       0.830   9.128  20.789  0.00  0.00    +0.000 A 
ATOM     10  N   UNL     1       0.845   9.798  19.624  0.00  0.00    +0.000 NA
ATOM     11  O   UNL     1       1.580   9.010  18.756  0.00  0.00    +0.000 OA
BRANCH   9  12
ATOM     12  C   UNL     1       0.136   9.660  21.953  0.00  0.00    +0.000 C 
ATOM     13  O   UNL     1       0.276  10.805  22.359  0.00  0.00    +0.000 OA
BRANCH  12  14
ATOM     14  O   UNL     1      -0.691   8.764  22.556  0.00  0.00    +0.000 OA
ATOM     15  H   UNL     1      -0.156   8.009  22.888  0.00  0.00    +0.000 HD
ENDBRANCH  12  14
ENDBRANCH   9  12
ENDBRANCH   3   7
BRANCH   1  17
ATOM     16  N   UNL     1       2.089   2.272  17.496  0.00  0.00    +0.000 NA
ATOM     17  C   UNL     1       2.567   3.322  17.602  0.00  0.00    +0.000 C 
ENDBRANCH   1  17
BRANCH   6  18
ATOM     18  O   UNL     1       4.947   4.163  16.307  0.00  0.00    +0.000 OA
BRANCH  18  19
ATOM     19  C   UNL     1       6.285   4.579  15.993  0.00  0.00    +0.000 C 
BRANCH  19  20
ATOM     20  C   UNL     1       6.618   4.492  14.527  0.00  0.00    +0.000 A 
ATOM     21  C   UNL     1       7.558   5.327  13.917  0.00  0.00    +0.000 A 
ATOM     22  C   UNL     1       7.785   5.242  12.545  0.00  0.00    +0.000 A 
ATOM     23  C   UNL     1       7.081   4.319  11.772  0.00  0.00    +0.000 A 
ATOM     24  C   UNL     1       6.158   3.468  12.369  0.00  0.00    +0.000 A 
ATOM     25  C   UNL     1       5.928   3.551  13.742  0.00  0.00    +0.000 A 
ENDBRANCH  19  20
ENDBRANCH  18  19
ENDBRANCH   6  18
TORSDOF 7
ENDMDL
MODEL 5
REMARK VINA RESULT:      -7.5      3.036      4.672
REMARK  Name = 
REMARK  7 active torsions:
REMARK  status: ('A' for Active; 'I' for Inactive)
REMARK    1  A    between atoms: C_2  and  C_3
REMARK    2  A    between atoms: C_5  and  C_6
REMARK    3  A    between atoms: C_8  and  C_9
REMARK    4  A    between atoms: C_9  and  O_11
REMARK    5  A    between atoms: C_16  and  O_17
REMARK    6  A    between atoms: O_17  and  C_18
REMARK    7  A    between atoms: C_18  and  C_19
REMARK                            x       y       z     vdW  Elec       q    Type
REMARK                         _______ _______ _______ _____ _____    ______ ____
ROOT
ATOM      1  C   UNL     1       3.283   7.140  18.011  0.00  0.00    +0.000 A 
ATOM      2  C   UNL     1       4.031   6.784  16.871  0.00  0.00    +0.000 A 
ATOM      3  C   UNL     1       4.941   5.717  16.900  0.00  0.00    +0.000 A 
ATOM      4  C   UNL     1       5.095   5.011  18.095  0.00  0.00    +0.000 A 
ATOM      5  C   UNL     1       4.362   5.355  19.226  0.00  0.00    +0.000 A 
ATOM      6  C   UNL     1       3.475   6.439  19.209  0.00  0.00    +0.000 A 
ENDROOT
BRANCH   3   7
ATOM      7  C   UNL     1       5.680   5.329  15.709  0.00  0.00    +0.000 A 
ATOM      8  C   UNL     1       5.413   4.535  14.621  0.00  0.00    +0.000 A 
ATOM      9  C   UNL     1       6.599   4.568  13.848  0.00  0.00    +0.000 A 
ATOM     10  N   UNL     1       7.535   5.337  14.430  0.00  0.00    +0.000 NA
ATOM     11  O   UNL     1       6.952   5.813  15.590  0.00  0.00    +0.000 OA
BRANCH   9  12
ATOM     12  C   UNL     1       6.861   3.887  12.588  0.00  0.00    +0.000 C 
ATOM     13  O   UNL     1       7.509   4.380  11.676  0.00  0.00    +0.000 OA
BRANCH  12  14
ATOM     14  O   UNL     1       6.318   2.641  12.515  0.00  0.00    +0.000 OA
ATOM     15  H   UNL     1       5.420   2.660  12.912  0.00  0.00    +0.000 HD
ENDBRANCH  12  14
ENDBRANCH   9  12
ENDBRANCH   3   7
BRANCH   1  17
ATOM     16  N   UNL     1       1.526   9.042  17.848  0.00  0.00    +0.000 NA
ATOM     17  C   UNL     1       2.333   8.212  17.885  0.00  0.00    +0.000 C 
ENDBRANCH   1  17
BRANCH   6  18
ATOM     18  O   UNL     1       2.791   6.846  20.329  0.00  0.00    +0.000 OA
BRANCH  18  19
ATOM     19  C   UNL     1       1.513   6.213  20.499  0.00  0.00    +0.000 C 
BRANCH  19  20
ATOM     20  C   UNL     1       1.541   4.723  20.284  0.00  0.00    +0.000 A 
ATOM     21  C   UNL     1       1.159   4.128  19.078  0.00  0.00    +0.000 A 
ATOM     22  C   UNL     1       1.149   2.741  18.953  0.00  0.00    +0.000 A 
ATOM     23  C   UNL     1       1.525   1.935  20.028  0.00  0.00    +0.000 A 
ATOM     24  C   UNL     1       1.926   2.514  21.227  0.00  0.00    +0.000 A 
ATOM     25  C   UNL     1       1.937   3.902  21.355  0.00  0.00    +0.000 A 
ENDBRANCH  19  20
ENDBRANCH  18  19
ENDBRANCH   6  18
TORSDOF 7
ENDMDL
MODEL 6
REMARK VINA RESULT:      -7.5      2.588      8.700
REMARK  Name = 
REMARK  7 active torsions:
REMARK  status: ('A' for Active; 'I' for Inactive)
REMARK    1  A    between atoms: C_2  and  C_3
REMARK    2  A    between atoms: C_5  and  C_6
REMARK    3  A    between atoms: C_8  and  C_9
REMARK    4  A    between atoms: C_9  and  O_11
REMARK    5  A    between atoms: C_16  and  O_17
REMARK    6  A    between atoms: O_17  and  C_18
REMARK    7  A    between atoms: C_18  and  C_19
REMARK                            x       y       z     vdW  Elec       q    Type
REMARK                         _______ _______ _______ _____ _____    ______ ____
ROOT
ATOM      1  C   UNL     1       3.134   4.721  17.545  0.00  0.00    +0.000 A 
ATOM      2  C   UNL     1       2.378   5.767  18.109  0.00  0.00    +0.000 A 
ATOM      3  C   UNL     1       2.830   7.093  18.076  0.00  0.00    +0.000 A 
ATOM      4  C   UNL     1       4.061   7.358  17.472  0.00  0.00    +0.000 A 
ATOM      5  C   UNL     1       4.817   6.332  16.913  0.00  0.00    +0.000 A 
ATOM      6  C   UNL     1       4.381   5.002  16.971  0.00  0.00    +0.000 A 
ENDROOT
BRANCH   3   7
ATOM      7  C   UNL     1       2.025   8.174  18.624  0.00  0.00    +0.000 A 
ATOM      8  C   UNL     1       1.459   9.315  18.109  0.00  0.00    +0.000 A 
ATOM      9  C   UNL     1       0.833   9.939  19.214  0.00  0.00    +0.000 A 
ATOM     10  N   UNL     1       1.006   9.222  20.338  0.00  0.00    +0.000 NA
ATOM     11  O   UNL     1       1.748   8.118  19.960  0.00  0.00    +0.000 OA
BRANCH   9  12
ATOM     12  C   UNL     1       0.089  11.191  19.228  0.00  0.00    +0.000 C 
ATOM     13  O   UNL     1       0.426  12.184  18.599  0.00  0.00    +0.000 OA
BRANCH  12  14
ATOM     14  O   UNL     1      -1.025  11.158  20.008  0.00  0.00    +0.000 OA
ATOM     15  H   UNL     1      -1.131  10.253  20.375  0.00  0.00    +0.000 HD
ENDBRANCH  12  14
ENDBRANCH   9  12
ENDBRANCH   3   7
BRANCH   1  17
ATOM     16  N   UNL     1       2.154   2.318  17.516  0.00  0.00    +0.000 NA
ATOM     17  C   UNL     1       2.577   3.395  17.573  0.00  0.00    +0.000 C 
ENDBRANCH   1  17
BRANCH   6  18
ATOM     18  O   UNL     1       5.138   3.960  16.492  0.00  0.00    +0.000 OA
BRANCH  18  19
ATOM     19  C   UNL     1       6.446   4.344  16.040  0.00  0.00    +0.000 C 
BRANCH  19  20
ATOM     20  C   UNL     1       6.599   4.326  14.542  0.00  0.00    +0.000 A 
ATOM     21  C   UNL     1       5.862   3.470  13.719  0.00  0.00    +0.000 A 
ATOM     22  C   UNL     1       6.086   3.455  12.344  0.00  0.00    +0.000 A 
ATOM     23  C   UNL     1       7.043   4.297  11.778  0.00  0.00    +0.000 A 
ATOM     24  C   UNL     1       7.769   5.168  12.582  0.00  0.00    +0.000 A 
ATOM     25  C   UNL     1       7.548   5.186  13.958  0.00  0.00    +0.000 A 
ENDBRANCH  19  20
ENDBRANCH  18  19
ENDBRANCH   6  18
TORSDOF 7
ENDMDL
MODEL 7
REMARK VINA RESULT:      -7.5      2.702      8.464
REMARK  Name = 
REMARK  7 active torsions:
REMARK  status: ('A' for Active; 'I' for Inactive)
REMARK    1  A    between atoms: C_2  and  C_3
REMARK    2  A    between atoms: C_5  and  C_6
REMARK    3  A    between atoms: C_8  and  C_9
REMARK    4  A    between atoms: C_9  and  O_11
REMARK    5  A    between atoms: C_16  and  O_17
REMARK    6  A    between atoms: O_17  and  C_18
REMARK    7  A    between atoms: C_18  and  C_19
REMARK                            x       y       z     vdW  Elec       q    Type
REMARK                         _______ _______ _______ _____ _____    ______ ____
ROOT
ATOM      1  C   UNL     1       2.287   5.148  20.401  0.00  0.00    +0.000 A 
ATOM      2  C   UNL     1       1.716   6.350  20.862  0.00  0.00    +0.000 A 
ATOM      3  C   UNL     1       1.757   7.520  20.090  0.00  0.00    +0.000 A 
ATOM      4  C   UNL     1       2.388   7.470  18.845  0.00  0.00    +0.000 A 
ATOM      5  C   UNL     1       2.957   6.288  18.381  0.00  0.00    +0.000 A 
ATOM      6  C   UNL     1       2.943   5.126  19.163  0.00  0.00    +0.000 A 
ENDROOT
BRANCH   3   7
ATOM      7  C   UNL     1       1.130   8.748  20.555  0.00  0.00    +0.000 A 
ATOM      8  C   UNL     1       0.723   9.223  21.777  0.00  0.00    +0.000 A 
ATOM      9  C   UNL     1       0.154  10.490  21.503  0.00  0.00    +0.000 A 
ATOM     10  N   UNL     1       0.211  10.772  20.191  0.00  0.00    +0.000 NA
ATOM     11  O   UNL     1       0.827   9.681  19.605  0.00  0.00    +0.000 OA
BRANCH   9  12
ATOM     12  C   UNL     1      -0.441  11.424  22.449  0.00  0.00    +0.000 C 
ATOM     13  O   UNL     1      -1.174  11.082  23.365  0.00  0.00    +0.000 OA
BRANCH  12  14
ATOM     14  O   UNL     1      -0.105  12.722  22.221  0.00  0.00    +0.000 OA
ATOM     15  H   UNL     1      -0.623  13.056  21.456  0.00  0.00    +0.000 HD
ENDBRANCH  12  14
ENDBRANCH   9  12
ENDBRANCH   3   7
BRANCH   1  17
ATOM     16  N   UNL     1       2.031   3.088  21.958  0.00  0.00    +0.000 NA
ATOM     17  C   UNL     1       2.157   3.979  21.228  0.00  0.00    +0.000 C 
ENDBRANCH   1  17
BRANCH   6  18
ATOM     18  O   UNL     1       3.558   3.964  18.762  0.00  0.00    +0.000 OA
BRANCH  18  19
ATOM     19  C   UNL     1       4.992   4.036  18.741  0.00  0.00    +0.000 C 
BRANCH  19  20
ATOM     20  C   UNL     1       5.567   4.276  17.371  0.00  0.00    +0.000 A 
ATOM     21  C   UNL     1       4.841   4.053  16.198  0.00  0.00    +0.000 A 
ATOM     22  C   UNL     1       5.442   4.237  14.955  0.00  0.00    +0.000 A 
ATOM     23  C   UNL     1       6.771   4.650  14.871  0.00  0.00    +0.000 A 
ATOM     24  C   UNL     1       7.500   4.895  16.029  0.00  0.00    +0.000 A 
ATOM     25  C   UNL     1       6.902   4.713  17.275  0.00  0.00    +0.000 A 
ENDBRANCH  19  20
ENDBRANCH  18  19
ENDBRANCH   6  18
TORSDOF 7
ENDMDL
MODEL 8
REMARK VINA RESULT:      -7.5      2.815      7.980
REMARK  Name = 
REMARK  7 active torsions:
REMARK  status: ('A' for Active; 'I' for Inactive)
REMARK    1  A    between atoms: C_2  and  C_3
REMARK    2  A    between atoms: C_5  and  C_6
REMARK    3  A    between atoms: C_8  and  C_9
REMARK    4  A    between atoms: C_9  and  O_11
REMARK    5  A    between atoms: C_16  and  O_17
REMARK    6  A    between atoms: O_17  and  C_18
REMARK    7  A    between atoms: C_18  and  C_19
REMARK                            x       y       z     vdW  Elec       q    Type
REMARK                         _______ _______ _______ _____ _____    ______ ____
ROOT
ATOM      1  C   UNL     1       2.181   4.997  20.420  0.00  0.00    +0.000 A 
ATOM      2  C   UNL     1       1.715   6.218  20.946  0.00  0.00    +0.000 A 
ATOM      3  C   UNL     1       1.786   7.406  20.205  0.00  0.00    +0.000 A 
ATOM      4  C   UNL     1       2.341   7.354  18.924  0.00  0.00    +0.000 A 
ATOM      5  C   UNL     1       2.805   6.154  18.396  0.00  0.00    +0.000 A 
ATOM      6  C   UNL     1       2.761   4.972  19.145  0.00  0.00    +0.000 A 
ENDROOT
BRANCH   3   7
ATOM      7  C   UNL     1       1.266   8.655  20.739  0.00  0.00    +0.000 A 
ATOM      8  C   UNL     1       0.726   9.791  20.188  0.00  0.00    +0.000 A 
ATOM      9  C   UNL     1       0.461  10.639  21.290  0.00  0.00    +0.000 A 
ATOM     10  N   UNL     1       0.819  10.055  22.447  0.00  0.00    +0.000 NA
ATOM     11  O   UNL     1       1.317   8.813  22.094  0.00  0.00    +0.000 OA
BRANCH   9  12
ATOM     12  C   UNL     1      -0.110  11.977  21.269  0.00  0.00    +0.000 C 
ATOM     13  O   UNL     1       0.237  12.873  22.025  0.00  0.00    +0.000 OA
BRANCH  12  14
ATOM     14  O   UNL     1      -1.074  12.147  20.324  0.00  0.00    +0.000 OA
ATOM     15  H   UNL     1      -1.917  11.767  20.655  0.00  0.00    +0.000 HD
ENDBRANCH  12  14
ENDBRANCH   9  12
ENDBRANCH   3   7
BRANCH   1  17
ATOM     16  N   UNL     1       1.928   2.903  21.933  0.00  0.00    +0.000 NA
ATOM     17  C   UNL     1       2.024   3.813  21.222  0.00  0.00    +0.000 C 
ENDBRANCH   1  17
BRANCH   6  18
ATOM     18  O   UNL     1       3.277   3.787  18.677  0.00  0.00    +0.000 OA
BRANCH  18  19
ATOM     19  C   UNL     1       4.646   3.556  19.046  0.00  0.00    +0.000 C 
BRANCH  19  20
ATOM     20  C   UNL     1       5.621   4.475  18.360  0.00  0.00    +0.000 A 
ATOM     21  C   UNL     1       6.443   5.362  19.063  0.00  0.00    +0.000 A 
ATOM     22  C   UNL     1       7.286   6.231  18.374  0.00  0.00    +0.000 A 
ATOM     23  C   UNL     1       7.321   6.220  16.980  0.00  0.00    +0.000 A 
ATOM     24  C   UNL     1       6.524   5.329  16.269  0.00  0.00    +0.000 A 
ATOM     25  C   UNL     1       5.679   4.457  16.955  0.00  0.00    +0.000 A 
ENDBRANCH  19  20
ENDBRANCH  18  19
ENDBRANCH   6  18
TORSDOF 7
ENDMDL
MODEL 9
REMARK VINA RESULT:      -7.4      2.838      7.977
REMARK  Name = 
REMARK  7 active torsions:
REMARK  status: ('A' for Active; 'I' for Inactive)
REMARK    1  A    between atoms: C_2  and  C_3
REMARK    2  A    between atoms: C_5  and  C_6
REMARK    3  A    between atoms: C_8  and  C_9
REMARK    4  A    between atoms: C_9  and  O_11
REMARK    5  A    between atoms: C_16  and  O_17
REMARK    6  A    between atoms: O_17  and  C_18
REMARK    7  A    between atoms: C_18  and  C_19
REMARK                            x       y       z     vdW  Elec       q    Type
REMARK                         _______ _______ _______ _____ _____    ______ ____
ROOT
ATOM      1  C   UNL     1       2.193   4.944  20.434  0.00  0.00    +0.000 A 
ATOM      2  C   UNL     1       1.722   6.175  20.932  0.00  0.00    +0.000 A 
ATOM      3  C   UNL     1       1.791   7.347  20.165  0.00  0.00    +0.000 A 
ATOM      4  C   UNL     1       2.348   7.269  18.887  0.00  0.00    +0.000 A 
ATOM      5  C   UNL     1       2.817   6.059  18.385  0.00  0.00    +0.000 A 
ATOM      6  C   UNL     1       2.776   4.893  19.161  0.00  0.00    +0.000 A 
ENDROOT
BRANCH   3   7
ATOM      7  C   UNL     1       1.266   8.606  20.671  0.00  0.00    +0.000 A 
ATOM      8  C   UNL     1       0.585   9.661  20.116  0.00  0.00    +0.000 A 
ATOM      9  C   UNL     1       0.414  10.581  21.178  0.00  0.00    +0.000 A 
ATOM     10  N   UNL     1       0.959  10.115  22.315  0.00  0.00    +0.000 NA
ATOM     11  O   UNL     1       1.486   8.878  21.991  0.00  0.00    +0.000 OA
BRANCH   9  12
ATOM     12  C   UNL     1      -0.241  11.881  21.135  0.00  0.00    +0.000 C 
ATOM     13  O   UNL     1      -1.234  12.116  20.461  0.00  0.00    +0.000 OA
BRANCH  12  14
ATOM     14  O   UNL     1       0.353  12.820  21.920  0.00  0.00    +0.000 OA
ATOM     15  H   UNL     1      -0.177  13.647  21.885  0.00  0.00    +0.000 HD
ENDBRANCH  12  14
ENDBRANCH   9  12
ENDBRANCH   3   7
BRANCH   1  17
ATOM     16  N   UNL     1       1.945   2.883  21.991  0.00  0.00    +0.000 NA
ATOM     17  C   UNL     1       2.038   3.778  21.261  0.00  0.00    +0.000 C 
ENDBRANCH   1  17
BRANCH   6  18
ATOM     18  O   UNL     1       3.296   3.700  18.720  0.00  0.00    +0.000 OA
BRANCH  18  19
ATOM     19  C   UNL     1       4.684   3.512  19.034  0.00  0.00    +0.000 C 
BRANCH  19  20
ATOM     20  C   UNL     1       5.602   4.474  18.327  0.00  0.00    +0.000 A 
ATOM     21  C   UNL     1       5.728   4.509  16.935  0.00  0.00    +0.000 A 
ATOM     22  C   UNL     1       6.635   5.380  16.336  0.00  0.00    +0.000 A 
ATOM     23  C   UNL     1       7.419   6.227  17.118  0.00  0.00    +0.000 A 
ATOM     24  C   UNL     1       7.290   6.217  18.503  0.00  0.00    +0.000 A 
ATOM     25  C   UNL     1       6.383   5.346  19.106  0.00  0.00    +0.000 A 
ENDBRANCH  19  20
ENDBRANCH  18  19
ENDBRANCH   6  18
TORSDOF 7
ENDMDL
