MODEL 1
REMARK VINA RESULT:      -8.2      0.000      0.000
REMARK  Name = 
REMARK  3 active torsions:
REMARK  status: ('A' for Active; 'I' for Inactive)
REMARK    1  A    between atoms: N_4  and  C_5
REMARK    2  A    between atoms: N_7  and  C_8
REMARK    3  A    between atoms: C_10  and  C_11
REMARK                            x       y       z     vdW  Elec       q    Type
REMARK                         _______ _______ _______ _____ _____    ______ ____
ROOT
ATOM      1  C   UNL     1       3.082   5.508  18.508  0.00  0.00    +0.000 A 
ATOM      2  N   UNL     1       2.624   6.754  18.779  0.00  0.00    +0.000 NA
ATOM      3  C   UNL     1       1.939   6.949  19.943  0.00  0.00    +0.000 A 
ATOM      4  N   UNL     1       1.667   5.987  20.845  0.00  0.00    +0.000 NA
ATOM      5  C   UNL     1       2.109   4.774  20.525  0.00  0.00    +0.000 A 
ATOM      6  C   UNL     1       2.810   4.476  19.378  0.00  0.00    +0.000 A 
ATOM      7  C   UNL     1       3.179   3.033  19.342  0.00  0.00    +0.000 C 
ATOM      8  C   UNL     1       2.255   2.441  20.415  0.00  0.00    +0.000 C 
ATOM      9  C   UNL     1       1.960   3.570  21.407  0.00  0.00    +0.000 C 
ENDROOT
BRANCH   3  10
ATOM     10  C   UNL     1       1.470   8.311  20.282  0.00  0.00    +0.000 A 
ATOM     11  C   UNL     1       1.301   9.312  19.319  0.00  0.00    +0.000 A 
ATOM     12  C   UNL     1       0.864  10.572  19.711  0.00  0.00    +0.000 A 
ATOM     13  N   UNL     1       0.584  10.909  20.985  0.00  0.00    +0.000 NA
ATOM     14  C   UNL     1       0.747   9.946  21.913  0.00  0.00    +0.000 A 
ATOM     15  C   UNL     1       1.178   8.661  21.613  0.00  0.00    +0.000 A 
ENDBRANCH   3  10
BRANCH   1  18
ATOM     16  C   UNL     1       5.763   5.073  16.612  0.00  0.00    +0.000 C 
ATOM     17  C   UNL     1       4.684   6.165  16.639  0.00  0.00    +0.000 C 
ATOM     18  N   UNL     1       3.817   5.255  17.325  0.00  0.00    +0.000 N 
ATOM     19  C   UNL     1       4.661   4.122  17.078  0.00  0.00    +0.000 C 
BRANCH  16  23
ATOM     20  C   UNL     1       6.604   4.036  13.264  0.00  0.00    +0.000 A 
ATOM     21  C   UNL     1       7.571   4.987  13.630  0.00  0.00    +0.000 A 
ATOM     22  N   UNL     1       7.393   5.439  14.872  0.00  0.00    +0.000 NA
ATOM     23  N   UNL     1       6.284   4.800  15.301  0.00  0.00    +0.000 N 
ATOM     24  C   UNL     1       5.789   3.925  14.368  0.00  0.00    +0.000 A 
ENDBRANCH  16  23
ENDBRANCH   1  18
TORSDOF 3
ENDMDL
MODEL 2
REMARK VINA RESULT:      -8.1      0.840      1.296
REMARK  Name = 
REMARK  3 active torsions:
REMARK  status: ('A' for Active; 'I' for Inactive)
REMARK    1  A    between atoms: N_4  and  C_5
REMARK    2  A    between atoms: N_7  and  C_8
REMARK    3  A    between atoms: C_10  and  C_11
REMARK                            x       y       z     vdW  Elec       q    Type
REMARK                         _______ _______ _______ _____ _____    ______ ____
ROOT
ATOM      1  C   UNL     1       3.563   5.238  17.848  0.00  0.00    +0.000 A 
ATOM      2  N   UNL     1       3.032   6.446  18.156  0.00  0.00    +0.000 NA
ATOM      3  C   UNL     1       2.375   6.576  19.345  0.00  0.00    +0.000 A 
ATOM      4  N   UNL     1       2.199   5.584  20.238  0.00  0.00    +0.000 NA
ATOM      5  C   UNL     1       2.709   4.408  19.882  0.00  0.00    +0.000 A 
ATOM      6  C   UNL     1       3.390   4.176  18.707  0.00  0.00    +0.000 A 
ATOM      7  C   UNL     1       3.853   2.762  18.634  0.00  0.00    +0.000 C 
ATOM      8  C   UNL     1       3.006   2.093  19.724  0.00  0.00    +0.000 C 
ATOM      9  C   UNL     1       2.670   3.183  20.746  0.00  0.00    +0.000 C 
ENDROOT
BRANCH   3  10
ATOM     10  C   UNL     1       1.829   7.898  19.724  0.00  0.00    +0.000 A 
ATOM     11  C   UNL     1       1.482   8.221  21.042  0.00  0.00    +0.000 A 
ATOM     12  C   UNL     1       0.967   9.480  21.324  0.00  0.00    +0.000 A 
ATOM     13  N   UNL     1       0.772  10.440  20.398  0.00  0.00    +0.000 NA
ATOM     14  C   UNL     1       1.105  10.129  19.130  0.00  0.00    +0.000 A 
ATOM     15  C   UNL     1       1.626   8.898  18.755  0.00  0.00    +0.000 A 
ENDBRANCH   3  10
BRANCH   1  18
ATOM     16  C   UNL     1       6.203   4.983  15.864  0.00  0.00    +0.000 C 
ATOM     17  C   UNL     1       5.077   6.022  15.954  0.00  0.00    +0.000 C 
ATOM     18  N   UNL     1       4.272   5.054  16.637  0.00  0.00    +0.000 N 
ATOM     19  C   UNL     1       5.160   3.969  16.332  0.00  0.00    +0.000 C 
BRANCH  16  23
ATOM     20  C   UNL     1       6.998   4.073  12.468  0.00  0.00    +0.000 A 
ATOM     21  C   UNL     1       7.909   5.081  12.823  0.00  0.00    +0.000 A 
ATOM     22  N   UNL     1       7.742   5.496  14.079  0.00  0.00    +0.000 NA
ATOM     23  N   UNL     1       6.696   4.772  14.531  0.00  0.00    +0.000 N 
ATOM     24  C   UNL     1       6.232   3.883  13.595  0.00  0.00    +0.000 A 
ENDBRANCH  16  23
ENDBRANCH   1  18
TORSDOF 3
ENDMDL
MODEL 3
REMARK VINA RESULT:      -7.9      1.350      7.296
REMARK  Name = 
REMARK  3 active torsions:
REMARK  status: ('A' for Active; 'I' for Inactive)
REMARK    1  A    between atoms: N_4  and  C_5
REMARK    2  A    between atoms: N_7  and  C_8
REMARK    3  A    between atoms: C_10  and  C_11
REMARK                            x       y       z     vdW  Elec       q    Type
REMARK                         _______ _______ _______ _____ _____    ______ ____
ROOT
ATOM      1  C   UNL     1       2.341   5.959  19.468  0.00  0.00    +0.000 A 
ATOM      2  N   UNL     1       3.444   6.230  18.728  0.00  0.00    +0.000 NA
ATOM      3  C   UNL     1       4.145   5.179  18.212  0.00  0.00    +0.000 A 
ATOM      4  N   UNL     1       3.832   3.882  18.393  0.00  0.00    +0.000 NA
ATOM      5  C   UNL     1       2.761   3.662  19.151  0.00  0.00    +0.000 A 
ATOM      6  C   UNL     1       1.987   4.653  19.715  0.00  0.00    +0.000 A 
ATOM      7  C   UNL     1       0.849   4.066  20.477  0.00  0.00    +0.000 C 
ATOM      8  C   UNL     1       1.287   2.603  20.627  0.00  0.00    +0.000 C 
ATOM      9  C   UNL     1       2.208   2.299  19.441  0.00  0.00    +0.000 C 
ENDROOT
BRANCH   3  10
ATOM     10  C   UNL     1       5.325   5.451  17.361  0.00  0.00    +0.000 A 
ATOM     11  C   UNL     1       5.558   4.776  16.156  0.00  0.00    +0.000 A 
ATOM     12  C   UNL     1       6.692   5.078  15.412  0.00  0.00    +0.000 A 
ATOM     13  N   UNL     1       7.608   5.997  15.773  0.00  0.00    +0.000 NA
ATOM     14  C   UNL     1       7.384   6.647  16.933  0.00  0.00    +0.000 A 
ATOM     15  C   UNL     1       6.280   6.412  17.740  0.00  0.00    +0.000 A 
ENDBRANCH   3  10
BRANCH   1  18
ATOM     16  C   UNL     1       1.700   8.672  21.258  0.00  0.00    +0.000 C 
ATOM     17  C   UNL     1       1.231   7.216  21.388  0.00  0.00    +0.000 C 
ATOM     18  N   UNL     1       1.566   7.012  20.010  0.00  0.00    +0.000 N 
ATOM     19  C   UNL     1       1.741   8.413  19.753  0.00  0.00    +0.000 C 
BRANCH  16  23
ATOM     20  C   UNL     1      -0.814  10.755  22.785  0.00  0.00    +0.000 A 
ATOM     21  C   UNL     1      -0.411  11.425  21.618  0.00  0.00    +0.000 A 
ATOM     22  N   UNL     1       0.508  10.743  20.934  0.00  0.00    +0.000 NA
ATOM     23  N   UNL     1       0.724   9.638  21.679  0.00  0.00    +0.000 N 
ATOM     24  C   UNL     1      -0.072   9.596  22.795  0.00  0.00    +0.000 A 
ENDBRANCH  16  23
ENDBRANCH   1  18
TORSDOF 3
ENDMDL
MODEL 4
REMARK VINA RESULT:      -7.8      1.235      7.225
REMARK  Name = 
REMARK  3 active torsions:
REMARK  status: ('A' for Active; 'I' for Inactive)
REMARK    1  A    between atoms: N_4  and  C_5
REMARK    2  A    between atoms: N_7  and  C_8
REMARK    3  A    between atoms: C_10  and  C_11
REMARK                            x       y       z     vdW  Elec       q    Type
REMARK                         _______ _______ _______ _____ _____    ______ ____
ROOT
ATOM      1  C   UNL     1       2.352   5.975  19.186  0.00  0.00    +0.000 A 
ATOM      2  N   UNL     1       3.429   6.109  18.375  0.00  0.00    +0.000 NA
ATOM      3  C   UNL     1       4.129   4.985  18.045  0.00  0.00    +0.000 A 
ATOM      4  N   UNL     1       3.838   3.744  18.477  0.00  0.00    +0.000 NA
ATOM      5  C   UNL     1       2.792   3.663  19.294  0.00  0.00    +0.000 A 
ATOM      6  C   UNL     1       2.022   4.736  19.685  0.00  0.00    +0.000 A 
ATOM      7  C   UNL     1       0.914   4.295  20.578  0.00  0.00    +0.000 C 
ATOM      8  C   UNL     1       1.375   2.890  20.988  0.00  0.00    +0.000 C 
ATOM      9  C   UNL     1       2.265   2.375  19.853  0.00  0.00    +0.000 C 
ENDROOT
BRANCH   3  10
ATOM     10  C   UNL     1       5.281   5.100  17.122  0.00  0.00    +0.000 A 
ATOM     11  C   UNL     1       6.360   5.958  17.366  0.00  0.00    +0.000 A 
ATOM     12  C   UNL     1       7.404   6.020  16.452  0.00  0.00    +0.000 A 
ATOM     13  N   UNL     1       7.457   5.295  15.318  0.00  0.00    +0.000 NA
ATOM     14  C   UNL     1       6.418   4.470  15.082  0.00  0.00    +0.000 A 
ATOM     15  C   UNL     1       5.333   4.342  15.938  0.00  0.00    +0.000 A 
ENDBRANCH   3  10
BRANCH   1  18
ATOM     16  C   UNL     1       1.745   9.012  20.363  0.00  0.00    +0.000 C 
ATOM     17  C   UNL     1       1.354   7.614  20.864  0.00  0.00    +0.000 C 
ATOM     18  N   UNL     1       1.579   7.106  19.544  0.00  0.00    +0.000 N 
ATOM     19  C   UNL     1       1.669   8.413  18.959  0.00  0.00    +0.000 C 
BRANCH  16  23
ATOM     20  C   UNL     1      -1.022  11.306  20.631  0.00  0.00    +0.000 A 
ATOM     21  C   UNL     1      -0.129  11.653  21.658  0.00  0.00    +0.000 A 
ATOM     22  N   UNL     1       0.965  10.892  21.658  0.00  0.00    +0.000 NA
ATOM     23  N   UNL     1       0.765  10.025  20.642  0.00  0.00    +0.000 N 
ATOM     24  C   UNL     1      -0.414  10.257  19.981  0.00  0.00    +0.000 A 
ENDBRANCH  16  23
ENDBRANCH   1  18
TORSDOF 3
ENDMDL
MODEL 5
REMARK VINA RESULT:      -7.5      1.258      7.072
REMARK  Name = 
REMARK  3 active torsions:
REMARK  status: ('A' for Active; 'I' for Inactive)
REMARK    1  A    between atoms: N_4  and  C_5
REMARK    2  A    between atoms: N_7  and  C_8
REMARK    3  A    between atoms: C_10  and  C_11
REMARK                            x       y       z     vdW  Elec       q    Type
REMARK                         _______ _______ _______ _____ _____    ______ ____
ROOT
ATOM      1  C   UNL     1       2.495   6.053  18.749  0.00  0.00    +0.000 A 
ATOM      2  N   UNL     1       3.520   6.041  17.862  0.00  0.00    +0.000 NA
ATOM      3  C   UNL     1       4.220   4.880  17.704  0.00  0.00    +0.000 A 
ATOM      4  N   UNL     1       3.979   3.739  18.376  0.00  0.00    +0.000 NA
ATOM      5  C   UNL     1       2.985   3.804  19.257  0.00  0.00    +0.000 A 
ATOM      6  C   UNL     1       2.219   4.926  19.489  0.00  0.00    +0.000 A 
ATOM      7  C   UNL     1       1.174   4.651  20.515  0.00  0.00    +0.000 C 
ATOM      8  C   UNL     1       1.684   3.350  21.149  0.00  0.00    +0.000 C 
ATOM      9  C   UNL     1       2.515   2.639  20.077  0.00  0.00    +0.000 C 
ENDROOT
BRANCH   3  10
ATOM     10  C   UNL     1       5.313   4.829  16.706  0.00  0.00    +0.000 A 
ATOM     11  C   UNL     1       5.238   4.053  15.544  0.00  0.00    +0.000 A 
ATOM     12  C   UNL     1       6.305   4.048  14.655  0.00  0.00    +0.000 A 
ATOM     13  N   UNL     1       7.438   4.755  14.834  0.00  0.00    +0.000 NA
ATOM     14  C   UNL     1       7.511   5.502  15.953  0.00  0.00    +0.000 A 
ATOM     15  C   UNL     1       6.495   5.569  16.896  0.00  0.00    +0.000 A 
ENDBRANCH   3  10
BRANCH   1  18
ATOM     16  C   UNL     1       1.895   9.294  19.078  0.00  0.00    +0.000 C 
ATOM     17  C   UNL     1       1.771   8.117  20.056  0.00  0.00    +0.000 C 
ATOM     18  N   UNL     1       1.724   7.224  18.937  0.00  0.00    +0.000 N 
ATOM     19  C   UNL     1       1.546   8.283  17.986  0.00  0.00    +0.000 C 
BRANCH  16  23
ATOM     20  C   UNL     1      -0.893  11.457  19.812  0.00  0.00    +0.000 A 
ATOM     21  C   UNL     1       0.122  12.289  19.313  0.00  0.00    +0.000 A 
ATOM     22  N   UNL     1       1.216  11.605  18.972  0.00  0.00    +0.000 NA
ATOM     23  N   UNL     1       0.916  10.326  19.282  0.00  0.00    +0.000 N 
ATOM     24  C   UNL     1      -0.358  10.190  19.771  0.00  0.00    +0.000 A 
ENDBRANCH  16  23
ENDBRANCH   1  18
TORSDOF 3
ENDMDL
MODEL 6
REMARK VINA RESULT:      -7.4      0.615      1.303
REMARK  Name = 
REMARK  3 active torsions:
REMARK  status: ('A' for Active; 'I' for Inactive)
REMARK    1  A    between atoms: N_4  and  C_5
REMARK    2  A    between atoms: N_7  and  C_8
REMARK    3  A    between atoms: C_10  and  C_11
REMARK                            x       y       z     vdW  Elec       q    Type
REMARK                         _______ _______ _______ _____ _____    ______ ____
ROOT
ATOM      1  C   UNL     1       3.061   5.731  18.748  0.00  0.00    +0.000 A 
ATOM      2  N   UNL     1       2.528   6.942  19.037  0.00  0.00    +0.000 NA
ATOM      3  C   UNL     1       1.829   7.075  20.202  0.00  0.00    +0.000 A 
ATOM      4  N   UNL     1       1.614   6.084  21.087  0.00  0.00    +0.000 NA
ATOM      5  C   UNL     1       2.129   4.906  20.749  0.00  0.00    +0.000 A 
ATOM      6  C   UNL     1       2.850   4.670  19.599  0.00  0.00    +0.000 A 
ATOM      7  C   UNL     1       3.306   3.253  19.541  0.00  0.00    +0.000 C 
ATOM      8  C   UNL     1       2.416   2.588  20.600  0.00  0.00    +0.000 C 
ATOM      9  C   UNL     1       2.051   3.680  21.609  0.00  0.00    +0.000 C 
ENDROOT
BRANCH   3  10
ATOM     10  C   UNL     1       1.278   8.401  20.562  0.00  0.00    +0.000 A 
ATOM     11  C   UNL     1       0.918   8.737  21.873  0.00  0.00    +0.000 A 
ATOM     12  C   UNL     1       0.400   9.999  22.137  0.00  0.00    +0.000 A 
ATOM     13  N   UNL     1       0.213  10.949  21.200  0.00  0.00    +0.000 NA
ATOM     14  C   UNL     1       0.559  10.625  19.938  0.00  0.00    +0.000 A 
ATOM     15  C   UNL     1       1.084   9.391  19.581  0.00  0.00    +0.000 A 
ENDBRANCH   3  10
BRANCH   1  18
ATOM     16  C   UNL     1       5.428   4.477  16.799  0.00  0.00    +0.000 C 
ATOM     17  C   UNL     1       5.187   5.889  17.350  0.00  0.00    +0.000 C 
ATOM     18  N   UNL     1       3.813   5.543  17.563  0.00  0.00    +0.000 N 
ATOM     19  C   UNL     1       3.907   4.331  16.803  0.00  0.00    +0.000 C 
BRANCH  16  23
ATOM     20  C   UNL     1       7.371   4.748  13.775  0.00  0.00    +0.000 A 
ATOM     21  C   UNL     1       6.289   3.907  13.467  0.00  0.00    +0.000 A 
ATOM     22  N   UNL     1       5.465   3.741  14.502  0.00  0.00    +0.000 NA
ATOM     23  N   UNL     1       6.035   4.455  15.497  0.00  0.00    +0.000 N 
ATOM     24  C   UNL     1       7.177   5.098  15.092  0.00  0.00    +0.000 A 
ENDBRANCH  16  23
ENDBRANCH   1  18
TORSDOF 3
ENDMDL
MODEL 7
REMARK VINA RESULT:      -7.4      1.276      7.131
REMARK  Name = 
REMARK  3 active torsions:
REMARK  status: ('A' for Active; 'I' for Inactive)
REMARK    1  A    between atoms: N_4  and  C_5
REMARK    2  A    between atoms: N_7  and  C_8
REMARK    3  A    between atoms: C_10  and  C_11
REMARK                            x       y       z     vdW  Elec       q    Type
REMARK                         _______ _______ _______ _____ _____    ______ ____
ROOT
ATOM      1  C   UNL     1       2.478   6.043  18.808  0.00  0.00    +0.000 A 
ATOM      2  N   UNL     1       3.520   6.048  17.942  0.00  0.00    +0.000 NA
ATOM      3  C   UNL     1       4.220   4.889  17.773  0.00  0.00    +0.000 A 
ATOM      4  N   UNL     1       3.963   3.734  18.415  0.00  0.00    +0.000 NA
ATOM      5  C   UNL     1       2.951   3.783  19.277  0.00  0.00    +0.000 A 
ATOM      6  C   UNL     1       2.184   4.901  19.518  0.00  0.00    +0.000 A 
ATOM      7  C   UNL     1       1.118   4.607  20.516  0.00  0.00    +0.000 C 
ATOM      8  C   UNL     1       1.612   3.291  21.132  0.00  0.00    +0.000 C 
ATOM      9  C   UNL     1       2.463   2.601  20.061  0.00  0.00    +0.000 C 
ENDROOT
BRANCH   3  10
ATOM     10  C   UNL     1       5.333   4.857  16.797  0.00  0.00    +0.000 A 
ATOM     11  C   UNL     1       6.502   5.609  16.962  0.00  0.00    +0.000 A 
ATOM     12  C   UNL     1       7.503   5.535  16.001  0.00  0.00    +0.000 A 
ATOM     13  N   UNL     1       7.430   4.773  14.893  0.00  0.00    +0.000 NA
ATOM     14  C   UNL     1       6.304   4.050  14.733  0.00  0.00    +0.000 A 
ATOM     15  C   UNL     1       5.253   4.060  15.640  0.00  0.00    +0.000 A 
ENDBRANCH   3  10
BRANCH   1  18
ATOM     16  C   UNL     1       1.880   9.275  19.219  0.00  0.00    +0.000 C 
ATOM     17  C   UNL     1       1.717   8.069  20.154  0.00  0.00    +0.000 C 
ATOM     18  N   UNL     1       1.705   7.212  19.006  0.00  0.00    +0.000 N 
ATOM     19  C   UNL     1       1.565   8.302  18.084  0.00  0.00    +0.000 C 
BRANCH  16  23
ATOM     20  C   UNL     1      -0.220  12.055  20.144  0.00  0.00    +0.000 A 
ATOM     21  C   UNL     1      -0.851  11.439  19.051  0.00  0.00    +0.000 A 
ATOM     22  N   UNL     1      -0.186  10.367  18.620  0.00  0.00    +0.000 NA
ATOM     23  N   UNL     1       0.899  10.306  19.421  0.00  0.00    +0.000 N 
ATOM     24  C   UNL     1       0.905  11.295  20.371  0.00  0.00    +0.000 A 
ENDBRANCH  16  23
ENDBRANCH   1  18
TORSDOF 3
ENDMDL
MODEL 8
REMARK VINA RESULT:      -7.3      1.241      7.390
REMARK  Name = 
REMARK  3 active torsions:
REMARK  status: ('A' for Active; 'I' for Inactive)
REMARK    1  A    between atoms: N_4  and  C_5
REMARK    2  A    between atoms: N_7  and  C_8
REMARK    3  A    between atoms: C_10  and  C_11
REMARK                            x       y       z     vdW  Elec       q    Type
REMARK                         _______ _______ _______ _____ _____    ______ ____
ROOT
ATOM      1  C   UNL     1       2.728   6.369  19.241  0.00  0.00    +0.000 A 
ATOM      2  N   UNL     1       3.755   6.359  18.357  0.00  0.00    +0.000 NA
ATOM      3  C   UNL     1       4.141   5.160  17.832  0.00  0.00    +0.000 A 
ATOM      4  N   UNL     1       3.584   3.973  18.137  0.00  0.00    +0.000 NA
ATOM      5  C   UNL     1       2.601   4.025  19.031  0.00  0.00    +0.000 A 
ATOM      6  C   UNL     1       2.138   5.183  19.616  0.00  0.00    +0.000 A 
ATOM      7  C   UNL     1       1.012   4.893  20.547  0.00  0.00    +0.000 C 
ATOM      8  C   UNL     1       1.142   3.377  20.742  0.00  0.00    +0.000 C 
ATOM      9  C   UNL     1       1.811   2.831  19.477  0.00  0.00    +0.000 C 
ENDROOT
BRANCH   3  10
ATOM     10  C   UNL     1       5.229   5.131  16.829  0.00  0.00    +0.000 A 
ATOM     11  C   UNL     1       5.171   4.338  15.677  0.00  0.00    +0.000 A 
ATOM     12  C   UNL     1       6.233   4.354  14.781  0.00  0.00    +0.000 A 
ATOM     13  N   UNL     1       7.345   5.098  14.944  0.00  0.00    +0.000 NA
ATOM     14  C   UNL     1       7.401   5.861  16.054  0.00  0.00    +0.000 A 
ATOM     15  C   UNL     1       6.389   5.908  17.002  0.00  0.00    +0.000 A 
ENDBRANCH   3  10
BRANCH   1  18
ATOM     16  C   UNL     1       0.539   8.667  20.188  0.00  0.00    +0.000 C 
ATOM     17  C   UNL     1       1.632   8.666  19.111  0.00  0.00    +0.000 C 
ATOM     18  N   UNL     1       2.275   7.588  19.800  0.00  0.00    +0.000 N 
ATOM     19  C   UNL     1       1.459   7.731  20.971  0.00  0.00    +0.000 C 
BRANCH  16  23
ATOM     20  C   UNL     1       0.303  12.099  21.265  0.00  0.00    +0.000 A 
ATOM     21  C   UNL     1      -0.458  11.351  22.180  0.00  0.00    +0.000 A 
ATOM     22  N   UNL     1      -0.434  10.046  21.911  0.00  0.00    +0.000 NA
ATOM     23  N   UNL     1       0.322   9.950  20.797  0.00  0.00    +0.000 N 
ATOM     24  C   UNL     1       0.806  11.166  20.387  0.00  0.00    +0.000 A 
ENDBRANCH  16  23
ENDBRANCH   1  18
TORSDOF 3
ENDMDL
MODEL 9
REMARK VINA RESULT:      -7.3      2.921      5.421
REMARK  Name = 
REMARK  3 active torsions:
REMARK  status: ('A' for Active; 'I' for Inactive)
REMARK    1  A    between atoms: N_4  and  C_5
REMARK    2  A    between atoms: N_7  and  C_8
REMARK    3  A    between atoms: C_10  and  C_11
REMARK                            x       y       z     vdW  Elec       q    Type
REMARK                         _______ _______ _______ _____ _____    ______ ____
ROOT
ATOM      1  C   UNL     1       0.864   9.135  19.547  0.00  0.00    +0.000 A 
ATOM      2  N   UNL     1      -0.043   9.456  18.593  0.00  0.00    +0.000 NA
ATOM      3  C   UNL     1      -1.155  10.150  18.971  0.00  0.00    +0.000 A 
ATOM      4  N   UNL     1      -1.432  10.532  20.231  0.00  0.00    +0.000 NA
ATOM      5  C   UNL     1      -0.530  10.170  21.140  0.00  0.00    +0.000 A 
ATOM      6  C   UNL     1       0.624   9.472  20.859  0.00  0.00    +0.000 A 
ATOM      7  C   UNL     1       1.426   9.255  22.096  0.00  0.00    +0.000 C 
ATOM      8  C   UNL     1       0.401   9.558  23.197  0.00  0.00    +0.000 C 
ATOM      9  C   UNL     1      -0.613  10.533  22.593  0.00  0.00    +0.000 C 
ENDROOT
BRANCH   3  10
ATOM     10  C   UNL     1      -2.137  10.553  17.938  0.00  0.00    +0.000 A 
ATOM     11  C   UNL     1      -3.260  11.336  18.231  0.00  0.00    +0.000 A 
ATOM     12  C   UNL     1      -4.143  11.670  17.212  0.00  0.00    +0.000 A 
ATOM     13  N   UNL     1      -3.995  11.287  15.929  0.00  0.00    +0.000 NA
ATOM     14  C   UNL     1      -2.915  10.532  15.648  0.00  0.00    +0.000 A 
ATOM     15  C   UNL     1      -1.979  10.150  16.599  0.00  0.00    +0.000 A 
ENDBRANCH   3  10
BRANCH   1  18
ATOM     16  C   UNL     1       2.723   6.800  18.108  0.00  0.00    +0.000 C 
ATOM     17  C   UNL     1       2.391   7.094  19.578  0.00  0.00    +0.000 C 
ATOM     18  N   UNL     1       2.046   8.434  19.206  0.00  0.00    +0.000 N 
ATOM     19  C   UNL     1       2.607   8.309  17.892  0.00  0.00    +0.000 C 
BRANCH  16  23
ATOM     20  C   UNL     1       6.123   5.931  17.289  0.00  0.00    +0.000 A 
ATOM     21  C   UNL     1       5.653   4.908  18.130  0.00  0.00    +0.000 A 
ATOM     22  N   UNL     1       4.382   5.093  18.491  0.00  0.00    +0.000 NA
ATOM     23  N   UNL     1       4.038   6.259  17.904  0.00  0.00    +0.000 N 
ATOM     24  C   UNL     1       5.054   6.786  17.150  0.00  0.00    +0.000 A 
ENDBRANCH  16  23
ENDBRANCH   1  18
TORSDOF 3
ENDMDL
